#------------------------------------------------------------------------------
#$Date: 2016-03-26 22:50:16 +0200 (Sat, 26 Mar 2016) $
#$Revision: 180520 $
#$URL: svn://www.crystallography.net/cod/cif/7/21/89/7218937.cif $
#------------------------------------------------------------------------------
#
# This file is available in the Crystallography Open Database (COD),
# http://www.crystallography.net/
#
# All data on this site have been placed in the public domain by the
# contributors.
#
data_7218937
loop_
_publ_author_name
'Harvey, Benjamin G.'
'Guenthner, Andrew J.'
'Meylemans, Heather A.'
'Haines, Shannon R. L.'
'Lamison, Kevin R.'
'Groshens, Thomas J.'
'Cambrea, Lee R.'
'Davis, Matthew C.'
'Lai, William W.'
_publ_section_title
;
 Renewable thermosetting resins and thermoplastics from vanillin
;
_journal_issue                   2
_journal_name_full               'Green Chem.'
_journal_page_first              1249
_journal_paper_doi               10.1039/C4GC01825G
_journal_volume                  17
_journal_year                    2015
_chemical_formula_moiety         'C18 H14 N2 O4'
_chemical_formula_sum            'C18 H14 N2 O4'
_chemical_formula_weight         322.31
_chemical_name_systematic        1,2-bis(4-cyanato-3-methoxyphenyl)ethene
_space_group_crystal_system      monoclinic
_space_group_IT_number           14
_space_group_name_Hall           '-P 2ybc'
_space_group_name_H-M_alt        'P 1 21/c 1'
_symmetry_space_group_name_Hall  '-P 2ybc'
_symmetry_space_group_name_H-M   'P 1 21/c 1'
_atom_sites_solution_hydrogens   mixed
_audit_update_record
;
2014-08-28 deposited with the CCDC.
2014-11-27 downloaded from the CCDC.
;
_cell_angle_alpha                90
_cell_angle_beta                 95.9060(17)
_cell_angle_gamma                90
_cell_formula_units_Z            2
_cell_length_a                   3.8765(4)
_cell_length_b                   12.2303(13)
_cell_length_c                   16.1995(18)
_cell_measurement_reflns_used    1817
_cell_measurement_temperature    296.(2)
_cell_measurement_theta_max      24.1822
_cell_measurement_theta_min      2.5280
_cell_volume                     763.95(14)
_computing_cell_refinement       'Bruker SAINT'
_computing_data_collection       'Bruker APEX2'
_computing_data_reduction        'Bruker SAINT'
_computing_molecular_graphics    'Bruker SHELXTL'
_computing_publication_material  'Bruker SHELXTL'
_computing_structure_refinement  'SHELXL-2013 (Sheldrick 2013)'
_computing_structure_solution    'SHELXS-97 (Sheldrick 2008)'
_diffrn_ambient_temperature      296.(2)
_diffrn_detector_area_resol_mean 8.3333
_diffrn_measured_fraction_theta_full 1.001
_diffrn_measured_fraction_theta_max 1.001
_diffrn_measurement_device_type  'Bruker SMART APEX II'
_diffrn_measurement_method       'w scans'
_diffrn_radiation_type           'Mo K\a'
_diffrn_radiation_wavelength     0.71073
_diffrn_reflns_av_R_equivalents  0.0286
_diffrn_reflns_limit_h_max       4
_diffrn_reflns_limit_h_min       -4
_diffrn_reflns_limit_k_max       14
_diffrn_reflns_limit_k_min       -14
_diffrn_reflns_limit_l_max       19
_diffrn_reflns_limit_l_min       -19
_diffrn_reflns_number            8100
_diffrn_reflns_theta_full        25.00
_diffrn_reflns_theta_max         25.00
_diffrn_reflns_theta_min         2.09
_exptl_absorpt_coefficient_mu    0.101
_exptl_absorpt_correction_T_max  0.7456
_exptl_absorpt_correction_T_min  0.6862
_exptl_absorpt_correction_type   multi-scan
_exptl_absorpt_process_details   'SADABS V2012/1 (Bruker AXS Inc.)'
_exptl_crystal_colour            colorless
_exptl_crystal_density_diffrn    1.401
_exptl_crystal_density_method    'not measured'
_exptl_crystal_description       'Rectangular Prism'
_exptl_crystal_F_000             336
_exptl_crystal_size_max          0.272
_exptl_crystal_size_mid          0.138
_exptl_crystal_size_min          0.092
_refine_diff_density_max         0.267
_refine_diff_density_min         -0.156
_refine_ls_extinction_method     none
_refine_ls_goodness_of_fit_ref   1.030
_refine_ls_hydrogen_treatment    mixed
_refine_ls_matrix_type           full
_refine_ls_number_parameters     126
_refine_ls_number_reflns         1354
_refine_ls_number_restraints     0
_refine_ls_restrained_S_all      1.030
_refine_ls_R_factor_all          0.0635
_refine_ls_R_factor_gt           0.0406
_refine_ls_shift/su_max          0.000
_refine_ls_shift/su_mean         0.000
_refine_ls_structure_factor_coef Fsqd
_refine_ls_weighting_details
'w=1/[\s^2^(Fo^2^)+(0.0199P)^2^+0.3882P] where P=(Fo^2^+2Fc^2^)/3'
_refine_ls_weighting_scheme      calc
_refine_ls_wR_factor_gt          0.0764
_refine_ls_wR_factor_ref         0.0892
_reflns_number_gt                966
_reflns_number_total             1354
_reflns_threshold_expression     'I > 2\s(I)'
_cod_data_source_file            c4gc01825g2.cif
_cod_data_source_block           Compound_6
_cod_depositor_comments
'Adding full bibliography for 7218936--7218937.cif.'
_cod_database_code               7218937
#BEGIN Tags that were not found in dictionaries:
_shelx_res_file
;
TITL TG_BH_1847_4_13_10_1_0m in P2(1)/c
CELL  0.71073   3.8765  12.2303  16.1995   90.000   95.906   90.000
ZERR    2.00   0.00040   0.00130   0.00180   0.0000   0.0017   0.0000
LATT 1
SYMM -X, 1/2+Y, 1/2-Z
SFAC C  H  N  O
UNIT 36  28  4  8
OMIT -3 50
L.S. 75
SHEL 999 0.8
ACTA
BOND $H
FMAP 2
PLAN -1
SIZE 0.092 0.138 0.272
TEMP 23.000
WGHT    0.019900    0.388200
FVAR       0.69661
C1    1    0.380170    0.064200    0.102525    11.00000    0.04972    0.04655 =
         0.04737   -0.01021    0.00570    0.00313
C2    1    0.285332    0.021361    0.175560    11.00000    0.06979    0.04797 =
         0.05374   -0.00504    0.01365    0.00056
C3    1    0.192197    0.088199    0.237951    11.00000    0.06400    0.05096 =
         0.04484   -0.00046    0.01415    0.00138
C4    1    0.201772    0.198565    0.227103    11.00000    0.04926    0.05026 =
         0.03631   -0.00753    0.00923    0.00514
C5    1    0.301269    0.246457    0.155821    11.00000    0.04904    0.04390 =
         0.04089   -0.00138    0.00556    0.00364
C6    1    0.389823    0.177353    0.093491    11.00000    0.04928    0.06043 =
         0.03483   -0.00073    0.00982    0.00031
C7    1    0.463618   -0.012298    0.037077    11.00000    0.06644    0.05412 =
         0.05173   -0.00601    0.01308    0.00295
C8    1   -0.023752    0.233650    0.351567    11.00000    0.06520    0.05592 =
         0.04256   -0.00730    0.01109    0.00795
C9    1    0.410589    0.409441    0.082512    11.00000    0.08254    0.05923 =
         0.05864    0.00945    0.01972   -0.00402
AFIX 137
H5    2    0.647076    0.389725    0.077304    11.00000   -1.50000
H7    2    0.393504    0.487344    0.088098    11.00000   -1.50000
H6    2    0.266540    0.386022    0.033980    11.00000   -1.50000
AFIX   0
H1    2    0.285069   -0.059086    0.183420    11.00000    0.07716
H2    2    0.121911    0.059110    0.289093    11.00000    0.07035
H3    2    0.458792    0.210316    0.046535    11.00000    0.04964
H4    2    0.454898   -0.092944    0.046307    11.00000    0.10690
N1    3   -0.147980    0.204906    0.408116    11.00000    0.09581    0.08207 =
         0.05088   -0.00194    0.02771    0.00338
O1    4    0.109911    0.273790    0.288682    11.00000    0.08704    0.05285 =
         0.04448   -0.00551    0.02651    0.00707
O2    4    0.298524    0.357733    0.154128    11.00000    0.08999    0.04853 =
         0.04881    0.00109    0.02289    0.00138
HKLF 4

REM  TG_BH_1847_4_13_10_1_0m in P2(1)/c
REM R1 =  0.0406 for     966 Fo > 4sig(Fo)  and  0.0635 for all    1354 data
REM    126 parameters refined using      0 restraints

END

WGHT      0.0363      0.3053

REM Highest difference peak  0.267,  deepest hole -0.156,  1-sigma level  0.031
Q1    1   0.5246  0.0629  0.0100  11.00000  0.05    0.27
;
_shelx_res_checksum              85099
_shelx_hkl_file
;
   1   0   0  229.18    3.90
   1   0   0  237.38    3.60
  -1   0   0  232.88    4.10
  -1   0   0  230.28    3.10
   2   0   0  133.49    3.70
   2   0   0  137.09    3.30
  -2   0   0  137.29    3.80
  -2   0   0  137.79    2.60
  -3   0   0    5.60    1.50
   3   0   0    2.20    1.20
   3   0   0    3.20    1.20
   4   0   0   -0.40    1.30
   4   0   0    2.60    1.40
  -4   0   0    1.70    1.50
  -5   0   0    0.40    2.00
   5   0   0    3.30    2.10
   0  -1   0   -0.70    0.20
   0  -1   0   -0.40    0.20
   0   1   0   -0.30    0.20
   0   1   0   -0.80    0.10
  -1  -1   0 2675.93   31.90
   1  -1   0 2755.12   29.20
   1  -1   0 2752.62   32.30
   1  -1   0 2711.43   30.40
  -1   1   0 2748.53   28.50
   1   1   0 2738.73   30.50
   1   1   0 2686.93   29.90
   1   1   0 2685.73   27.80
  -2  -1   0  122.89    2.20
   2  -1   0  130.09    3.00
  -2  -1   0  129.79    3.80
   2  -1   0  123.09    3.50
  -2   1   0  124.99    3.80
   2   1   0  128.79    3.60
   2   1   0  124.69    3.40
  -2   1   0  126.59    2.70
  -3  -1   0    1.50    1.20
   3  -1   0   -0.50    1.10
   3  -1   0   -0.80    0.90
  -3   1   0    0.80    1.20
  -3   1   0    0.60    0.70
   3   1   0   -1.00    0.90
   3   1   0    0.40    1.00
   4  -1   0    0.00    1.10
  -4  -1   0   -0.20    1.30
   4  -1   0    0.40    1.20
   4   1   0   -1.30    1.30
   4   1   0   -2.20    1.10
  -4   1   0   -2.60    1.20
   0  -2   0  985.70   12.20
   0  -2   0 1017.30   11.50
   0   2   0  989.50   11.10
   0   2   0 1025.40   11.20
  -1  -2   0 1602.44   19.60
   1  -2   0 1600.94   20.10
   1  -2   0 1643.24   17.40
   1  -2   0 1571.44   18.80
   1   2   0 1602.44   18.70
   1   2   0 1584.44   18.90
   1   2   0 1616.14   16.70
  -1   2   0 1615.34   17.80
  -2  -2   0    6.60    1.20
   2  -2   0    6.10    1.20
   2  -2   0    6.70    1.30
   2  -2   0    8.20    1.00
   2   2   0    7.60    1.20
   2   2   0    6.70    1.20
  -2   2   0    6.80    1.00
   3  -2   0    1.10    0.90
  -3  -2   0    0.90    1.20
   3  -2   0    2.30    1.30
  -3   2   0   -0.20    0.80
  -3   2   0    1.70    1.20
   3   2   0   -1.20    1.00
   3   2   0    2.20    1.10
  -4  -2   0    0.20    1.50
   4  -2   0    0.30    1.40
   4   2   0    0.80    1.50
  -4   2   0   -1.00    1.20
   4   2   0    0.20    1.30
   0  -3   0    0.10    0.50
   0  -3   0    1.70    0.60
   0   3   0   -0.70    0.40
   0   3   0    0.20    0.50
  -1  -3   0  132.79    3.00
   1  -3   0  135.49    3.30
  -1  -3   0  126.59    3.00
   1  -3   0  129.39    2.90
   1   3   0  132.59    2.20
  -1   3   0  130.99    2.90
  -2  -3   0   27.40    1.90
   2  -3   0   26.30    1.20
   2  -3   0   30.70    2.10
   2  -3   0   28.10    1.90
   2   3   0   29.20    1.90
  -2   3   0   29.80    1.60
   2   3   0   27.60    1.90
   3  -3   0    5.00    1.50
   3  -3   0    4.20    1.10
  -3  -3   0    5.00    1.60
   3   3   0    3.80    1.50
  -3   3   0    4.00    1.60
   3   3   0    3.60    1.40
  -3   3   0    6.00    1.20
   4  -3   0    1.50    1.60
  -4  -3   0   -1.90    1.40
  -4   3   0    1.60    1.60
   4   3   0    4.30    1.80
   4   3   0    1.90    1.40
   0  -4   0  775.02   10.00
   0  -4   0  774.92   10.60
   0   4   0  783.92    9.50
   0   4   0  783.42    9.80
  -1  -4   0  203.18    4.10
  -1  -4   0  200.18    4.10
   1  -4   0  199.88    4.00
   1  -4   0  198.38    4.50
  -1   4   0  194.68    4.00
   1   4   0  197.48    3.20
   1   4   0  202.98    4.10
   2  -4   0   30.30    1.10
   2  -4   0   29.30    2.00
  -2  -4   0   28.40    2.00
   2  -4   0   31.30    2.30
  -2  -4   0   32.10    2.10
  -2   4   0   31.50    1.80
   2   4   0   29.40    1.00
   2   4   0   33.40    2.10
  -3  -4   0    1.10    1.40
   3  -4   0   -0.50    1.00
   3   4   0   -0.20    1.00
  -3   4   0   -0.50    1.00
  -3   4   0    0.80    1.10
   3   4   0   -1.00    1.10
   4  -4   0    3.20    1.80
  -4  -4   0    4.30    1.90
  -4   4   0    6.50    2.00
   4   4   0    2.40    1.50
   4   4   0    1.10    1.50
   0  -5   0   -0.30    0.60
   0  -5   0   -0.70    0.40
   0   5   0    0.00    0.50
   0   5   0    0.20    0.40
  -1  -5   0   68.29    2.40
   1  -5   0   64.09    2.60
   1  -5   0   63.59    2.30
  -1  -5   0   64.69    2.40
  -1   5   0   66.69    2.40
   1   5   0   64.99    1.90
   1   5   0   65.39    2.40
   2  -5   0    3.50    1.20
  -2  -5   0    2.50    1.10
   2  -5   0    4.10    1.10
  -2  -5   0    3.50    1.10
  -2   5   0    3.50    1.00
   2   5   0    2.80    0.50
   2   5   0    2.20    1.10
   3  -5   0   -0.40    1.00
  -3  -5   0   -2.50    1.10
   3  -5   0   -1.20    1.10
  -3  -5   0   -1.10    1.00
   3   5   0    1.00    1.20
  -3   5   0   -0.90    1.00
   4  -5   0    3.50    1.80
  -4  -5   0    0.20    1.20
  -4  -5   0    0.00    1.70
   4   5   0    0.10    1.20
  -4   5   0    1.00    1.50
   0  -6   0  154.38    3.70
   0  -6   0  157.38    3.90
   0   6   0  157.58    3.30
   0   6   0  156.18    3.60
  -1  -6   0  114.49    3.30
  -1  -6   0  112.49    3.30
   1  -6   0  114.79    3.70
   1  -6   0  109.19    3.20
   1   6   0  113.49    3.40
  -1   6   0  118.39    3.40
   1   6   0  114.59    2.80
  -2  -6   0    2.80    1.20
   2  -6   0    3.30    1.30
  -2  -6   0    3.80    1.20
   2  -6   0    4.20    1.20
  -2   6   0    3.40    1.20
   2   6   0    1.60    1.00
   2   6   0    2.00    0.60
  -3  -6   0    2.80    1.40
   3  -6   0    2.60    1.40
   3  -6   0    4.00    1.60
  -3  -6   0    2.80    1.50
   3   6   0    1.20    1.30
  -3   6   0    4.20    1.50
  -4  -6   0    0.20    1.70
   4  -6   0    1.60    1.80
  -4  -6   0    0.70    1.30
   4   6   0    0.30    1.30
  -4   6   0   -0.40    1.60
   0  -7   0   -0.50    0.60
   0  -7   0   -0.30    0.70
   0   7   0    0.00    0.60
   0   7   0    0.10    0.50
  -1  -7   0   11.40    1.60
   1  -7   0    6.10    1.30
  -1  -7   0    6.50    1.20
   1  -7   0    8.10    1.30
  -1   7   0    6.50    0.60
  -1   7   0    6.70    1.20
   1   7   0    5.20    1.00
   1   7   0    7.30    1.30
  -2  -7   0    9.10    1.60
  -2  -7   0    7.50    1.60
   2  -7   0    5.50    1.50
   2  -7   0    7.50    1.50
   2   7   0    8.80    1.00
   2   7   0    7.00    1.50
  -2   7   0    5.60    1.40
  -3  -7   0   -0.10    1.10
   3  -7   0    1.80    1.50
  -3  -7   0   -2.10    1.10
   3  -7   0    0.40    1.20
  -3   7   0    1.60    1.30
   3   7   0   -0.50    1.10
   4  -7   0   -0.60    1.60
  -4  -7   0   -0.10    1.30
  -4  -7   0   -4.00    1.40
  -4   7   0    0.70    1.50
   4   7   0   -0.20    1.30
   0  -8   0   14.00    1.70
   0  -8   0   12.70    1.70
   0   8   0   10.40    1.30
   0   8   0   11.60    1.50
  -1  -8   0    1.90    1.00
   1  -8   0    1.40    1.00
   1  -8   0    1.80    1.00
  -1  -8   0    3.40    1.20
  -1   8   0    0.30    0.90
   1   8   0    0.90    0.70
   1   8   0    1.10    0.90
  -1   8   0    1.50    0.50
  -2  -8   0    1.90    1.30
  -2  -8   0    1.50    1.30
   2  -8   0    1.20    1.10
   2  -8   0    0.10    1.10
   2   8   0   -0.50    1.00
   2   8   0    1.70    0.80
  -2   8   0    1.80    1.20
  -3  -8   0    8.00    2.00
   3  -8   0   12.00    2.20
   3  -8   0    8.70    2.30
  -3  -8   0    7.70    2.00
  -3   8   0   11.90    2.20
   3   8   0    5.70    1.70
  -4  -8   0    9.40    2.30
   4  -8   0   14.10    2.80
  -4   8   0    9.10    2.20
  -4   8   0    8.00    2.30
   4   8   0    7.70    2.20
   0  -9   0    2.00    1.00
   0  -9   0    0.20    0.90
   0   9   0    0.50    0.70
   0   9   0    1.00    0.90
   1  -9   0   10.10    1.60
   1  -9   0   11.40    1.90
  -1  -9   0   11.90    1.90
  -1  -9   0   11.70    1.70
   1   9   0    9.60    1.40
   1   9   0    7.80    1.50
  -1   9   0   12.50    1.80
  -2  -9   0    1.00    1.20
   2  -9   0   -0.40    1.00
   2  -9   0    2.00    1.30
  -2  -9   0    1.50    1.30
  -2   9   0   -0.10    1.00
   2   9   0   -1.30    0.90
  -3  -9   0   11.40    2.20
   3  -9   0   15.60    2.70
   3  -9   0   12.30    2.30
  -3  -9   0   13.30    2.40
  -3   9   0   12.90    2.30
   3   9   0   14.30    2.50
   4  -9   0   11.40    2.70
  -4  -9   0   12.10    2.60
  -4   9   0   14.50    2.80
  -4   9   0   12.60    2.60
   4   9   0   15.70    2.70
   0 -10   0    4.90    1.40
   0 -10   0    2.60    1.30
   0  10   0    3.70    1.10
   0  10   0    3.80    1.30
   1 -10   0   -0.30    1.00
  -1 -10   0    1.90    1.30
  -1 -10   0    0.10    1.10
   1 -10   0    1.30    1.20
   1  10   0    3.40    1.20
  -1  10   0    1.80    1.10
   1  10   0    0.00    0.90
   2 -10   0   -0.40    1.10
  -2 -10   0   -0.90    1.10
  -2 -10   0    0.50    1.20
   2 -10   0    0.40    1.20
   2  10   0    0.40    1.10
  -2  10   0    2.00    1.20
   3 -10   0   33.20    3.60
  -3 -10   0   24.70    3.20
   3 -10   0   31.50    3.90
  -3  10   0   32.90    3.30
   3  10   0   37.70    3.30
   0 -11   0    0.60    1.10
   0 -11   0   -1.10    1.00
   0  11   0   -0.60    0.90
   0  11   0   -0.70    0.80
  -1 -11   0    6.80    1.70
   1 -11   0    2.50    1.30
  -1 -11   0    7.70    1.80
   1 -11   0    5.70    1.70
   1  11   0    6.80    1.60
   1  11   0    4.40    1.40
  -1  11   0    6.40    1.60
   2 -11   0    9.00    2.20
  -2 -11   0   11.40    2.00
   2 -11   0   10.40    2.00
  -2 -11   0    9.80    2.10
  -2  11   0    6.30    1.70
   2  11   0    9.00    2.00
   3 -11   0    3.40    2.10
  -3 -11   0    5.90    2.10
   3 -11   0    7.20    2.10
   3  11   0    4.40    1.80
  -3  11   0    3.00    1.80
   0 -12   0   12.40    2.20
   0 -12   0   15.70    2.10
   0  12   0   16.30    2.30
  -1 -12   0   11.30    2.10
   1 -12   0   10.90    2.20
  -1 -12   0   13.50    2.20
   1 -12   0    7.50    1.70
  -1  12   0    8.10    1.80
   1  12   0   10.40    1.80
   1  12   0    9.10    1.80
  -2 -12   0   -1.20    1.20
   2 -12   0    2.80    1.50
   2 -12   0    2.80    1.60
   2  12   0    2.50    1.60
  -2  12   0    2.20    1.50
   3 -12   0   -0.30    1.80
   3 -12   0    5.40    2.20
  -3 -12   0    1.30    1.80
   3  12   0    0.50    1.50
  -3  12   0    2.20    1.80
   0 -13   0    0.10    1.10
   0 -13   0    0.90    1.20
   0  13   0   -0.60    1.00
   1 -13   0    5.20    1.60
  -1 -13   0    4.80    1.70
   1 -13   0    1.10    1.60
  -1 -13   0    4.70    1.70
   1  13   0    3.10    1.30
  -1  13   0    1.40    1.50
   1  13   0    2.20    1.40
  -2 -13   0   -0.60    1.30
   2 -13   0   -0.70    1.40
   2 -13   0    1.20    1.40
   2  13   0    1.00    1.40
  -2  13   0   -0.20    1.30
   0 -14   0    1.30    1.40
   0 -14   0    3.20    1.60
   0  14   0    2.30    1.50
  -1 -14   0   -0.80    1.20
   1 -14   0    0.00    1.50
   1 -14   0   -0.90    1.00
   1  14   0   -1.50    0.90
   1  14   0    1.30    1.20
  -1  14   0    0.50    1.30
  -2 -14   0   -1.30    1.40
   2 -14   0    0.90    1.40
   2 -14   0    0.60    1.70
   2  14   0    1.00    1.50
  -2  14   0    0.70    1.50
   0 -15   0    0.20    1.40
   0 -15   0    0.70    1.30
   0  15   0   -0.90    1.20
  -1 -15   0   -1.00    1.40
   1 -15   0    1.10    1.50
   1  15   0    0.80    1.30
  -1  15   0    2.10    1.60
  -5   0   1    2.30    2.20
   5   0  -1   -1.60    1.80
   4   0  -1   -0.40    1.20
  -4   0   1   -0.50    1.40
   4   0  -1    1.70    1.50
   3   0  -1    0.20    0.90
   3   0  -1   -1.60    0.90
  -3   0   1    0.80    1.10
  -2   0   1    0.10    0.70
  -2   0   1   -0.50    0.30
   2   0  -1   -0.30    0.70
   2   0  -1    0.50    0.60
   1   0  -1    0.30    0.50
   1   0  -1   -0.50    0.40
  -1   0   1    0.40    0.50
  -1   0   1   -0.20    0.30
   0   0  -1   -1.30    0.10
   0   0   1   -1.40    0.10
   1   0   1   -1.00    0.40
   1   0   1   -0.70    0.60
   1   0   1   -1.60    0.60
   1   0   1   -2.00    0.50
   2   0   1   -0.20    0.60
  -2   0  -1    0.00    0.70
   2   0   1    0.80    0.80
  -3   0  -1   -1.60    0.90
  -3   0  -1    0.50    0.70
   3   0   1    0.60    0.90
   3   0   1    2.00    1.20
  -4   0  -1   -1.30    1.30
   4   0   1    0.60    1.30
   4   0   1    1.10    1.30
   5  -1  -1   -1.50    1.80
  -5  -1   1    3.20    2.30
  -5   1   1    0.10    1.70
   5   1  -1    1.00    2.00
  -4  -1   1    2.70    1.60
   4  -1  -1    1.30    1.50
   4  -1  -1    0.80    1.20
  -4   1   1    2.80    1.70
   4   1  -1    0.40    1.20
   4   1  -1    4.20    1.60
   3  -1  -1    6.30    1.20
  -3  -1   1    6.10    1.50
   3  -1  -1    2.60    1.30
  -3   1   1    4.40    1.50
   3   1  -1    6.60    1.50
   3   1  -1    6.20    1.40
  -3   1   1    6.80    1.00
  -2  -1   1   17.20    1.70
   2  -1  -1   15.60    1.20
   2  -1  -1   17.60    1.70
   2   1  -1   16.10    1.50
  -2   1   1   16.40    1.70
  -2   1   1   12.40    1.00
   2   1  -1   16.20    1.70
   1  -1  -1    7.70    0.70
  -1  -1   1    9.40    1.00
   1  -1  -1    8.10    0.90
   1   1  -1    7.80    0.90
  -1   1   1    8.00    0.70
   1   1  -1    6.80    0.80
  -1   1   1    7.90    1.00
   0  -1   1  230.78    2.90
   0  -1  -1  231.18    3.10
   0  -1   1  227.68    3.20
   0   1   1  223.18    2.80
   0   1  -1  225.38    2.90
   0   1   1  224.28    2.90
   1  -1   1  983.40   12.80
  -1  -1  -1  985.00   12.40
   1  -1   1  997.20   11.40
   1  -1   1  987.80   11.20
   1  -1   1  975.00   12.00
   1   1   1  979.40   12.20
   1   1   1  973.70   10.70
   1   1   1  968.40   11.90
   2  -1   1   25.10    1.80
  -2  -1  -1   22.50    1.80
   2  -1   1   24.80    1.50
   2   1   1   23.40    1.60
  -2   1  -1   25.50    1.30
  -2   1  -1   24.50    1.80
   2   1   1   23.80    1.80
   2   1   1   24.80    1.10
   3  -1   1    0.30    0.90
   3  -1   1    0.90    1.20
  -3  -1  -1    1.20    1.30
   3   1   1    0.40    1.10
  -3   1  -1   -0.10    0.70
  -3   1  -1    1.10    1.20
   3   1   1   -0.20    1.00
  -4  -1  -1    1.60    1.40
   4  -1   1    0.70    1.30
   4  -1   1    0.40    1.20
   4   1   1    1.90    1.60
  -4   1  -1   -1.00    1.20
   4   1   1    1.00    1.30
   4  -2  -1    1.50    1.30
  -4  -2   1   -0.90    1.40
  -4   2   1   -0.20    1.40
   4   2  -1    1.40    1.50
   4   2  -1   -0.10    1.20
   3  -2  -1   36.60    2.70
   3  -2  -1   34.00    2.00
  -3  -2   1   37.00    2.80
  -3   2   1   39.00    2.90
   3   2  -1   39.40    2.60
   3   2  -1   38.10    2.70
  -3   2   1   35.40    1.90
   2  -2  -1   22.70    1.20
   2  -2  -1   24.00    1.80
  -2  -2   1   24.40    1.80
   2   2  -1   26.50    1.70
  -2   2   1   24.20    1.80
  -2   2   1   24.30    1.30
   2   2  -1   21.50    1.70
   1  -2  -1   21.50    0.70
   1  -2  -1   22.90    1.40
   1  -2  -1   18.70    1.20
  -1  -2   1   23.10    1.30
   1   2  -1   21.30    1.20
  -1   2   1   21.00    1.10
   1   2  -1   25.70    1.30
   0  -2  -1  203.78    3.00
   0  -2   1  204.68    3.40
   0  -2   1  207.78    2.80
   0  -2  -1  207.48    3.20
   0   2  -1  205.88    3.00
   0   2   1  204.98    3.00
   0   2  -1  205.18    2.90
   0   2   1  203.08    2.80
   1  -2   1  123.39    2.60
  -1  -2  -1  119.29    2.60
   1  -2   1  119.29    3.00
  -1  -2  -1  121.79    2.80
   1  -2   1  123.69    2.20
  -1   2  -1  122.29    2.60
   1   2   1  116.19    2.80
   1   2   1  123.19    2.10
   2  -2   1    0.20    0.60
   2  -2   1    0.10    0.70
  -2  -2  -1   -0.70    0.80
   2  -2   1    0.10    0.80
   2   2   1    0.60    0.70
   2   2   1    0.10    0.40
   2   2   1   -0.80    0.70
  -2   2  -1   -0.30    0.60
   3  -2   1   -0.10    1.10
   3  -2   1    1.30    1.00
  -3  -2  -1   -2.10    1.00
   3   2   1   -0.30    1.00
  -3   2  -1    0.40    0.90
   3   2   1    2.90    1.30
  -3   2  -1   -0.70    1.00
  -4  -2  -1    1.40    1.70
   4  -2   1    0.90    1.50
  -4   2  -1    3.50    1.60
   4   2   1   -0.10    1.30
   4   2   1    0.20    1.20
   4  -3  -1   18.40    2.80
  -4  -3   1   18.30    2.70
  -4   3   1   15.90    2.60
   4   3  -1   22.20    3.00
   4   3  -1   13.00    2.30
   3  -3  -1    0.30    0.80
   3  -3  -1    1.40    1.20
  -3  -3   1   -0.20    1.20
  -3   3   1   -0.50    1.10
   3   3  -1    0.90    1.20
  -3   3   1    0.90    1.00
   3   3  -1    0.60    1.10
   2  -3  -1    3.40    1.00
  -2  -3   1    4.20    1.10
   2  -3  -1    3.90    1.10
   2  -3  -1    2.30    0.60
   2   3  -1    3.40    1.00
   2   3  -1    1.70    0.90
  -2   3   1    3.90    0.90
  -1  -3   1  178.98    3.60
   1  -3  -1  189.48    4.00
  -1  -3   1  189.58    3.90
   1   3  -1  186.68    2.60
   1   3  -1  187.58    3.80
  -1   3   1  185.48    3.50
   0  -3   1  743.33   10.00
   0  -3  -1  744.63    9.60
   0  -3   1  761.52    9.00
   0  -3  -1  751.22    9.50
   0   3  -1  748.63    9.00
   0   3  -1  740.13    8.90
   0   3   1  739.83    9.00
   0   3   1  737.63    8.80
   1  -3   1  297.47    5.50
  -1  -3  -1  296.77    4.80
   1  -3   1  290.67    4.80
  -1  -3  -1  288.37    5.10
  -1   3  -1  291.77    4.80
   1   3   1  308.87    4.20
   1   3   1  297.07    5.10
  -1   3  -1  294.87    3.90
  -2  -3  -1    1.10    0.80
   2  -3   1    1.10    0.80
   2  -3   1    1.30    0.80
   2  -3   1    1.50    0.60
  -2   3  -1    0.10    0.60
   2   3   1    0.40    0.80
   2   3   1    1.40    0.40
   2   3   1    1.80    1.00
  -3  -3  -1   -1.80    1.10
   3  -3   1    2.90    1.00
   3  -3   1    0.00    1.00
  -3   3  -1    1.10    0.90
  -3   3  -1    1.70    1.20
   3   3   1   -1.30    1.00
   3   3   1   -0.20    1.20
  -4  -3  -1    0.90    1.50
   4  -3   1   -0.60    1.30
   4   3   1    1.20    1.50
   4   3   1   -1.00    1.20
  -4   3  -1   -0.40    1.20
  -4  -4   1    3.40    1.90
   4  -4  -1    5.20    2.00
  -4   4   1    1.80    1.60
   4   4  -1    3.30    1.60
   4   4  -1    3.70    1.90
   3  -4  -1   24.30    2.60
  -3  -4   1   19.40    2.40
  -3   4   1   24.10    2.20
   3   4  -1   22.50    2.60
   3   4  -1   24.10    2.50
  -3   4   1   25.00    2.70
   2  -4  -1    0.50    0.80
  -2  -4   1    0.60    0.90
   2  -4  -1   -0.30    0.70
   2  -4  -1    0.70    0.40
   2   4  -1    0.80    0.80
   2   4  -1    0.70    0.80
  -2   4   1    0.40    0.70
  -1  -4   1  106.39    2.90
  -1  -4   1  102.69    2.70
   1  -4  -1  105.59    3.10
   1  -4  -1  101.59    2.80
   1   4  -1  105.49    2.90
   1   4  -1  109.59    2.10
  -1   4   1  104.09    2.80
   0  -4  -1    3.20    0.60
   0  -4  -1    4.40    0.80
   0  -4   1    3.60    0.80
   0  -4   1    5.10    0.80
   0   4  -1    3.50    0.70
   0   4   1    3.80    0.60
   0   4  -1    4.10    0.70
   0   4   1    4.20    0.80
   1  -4   1   28.20    1.70
   1  -4   1   25.70    1.40
  -1  -4  -1   30.00    1.60
  -1  -4  -1   27.50    1.40
  -1   4  -1   28.60    0.90
  -1   4  -1   28.60    1.50
   1   4   1   28.20    1.60
   1   4   1   30.40    1.20
  -2  -4  -1   30.30    2.10
   2  -4   1   33.80    1.30
   2  -4   1   33.50    2.10
  -2  -4  -1   32.30    2.00
   2  -4   1   32.60    2.20
   2   4   1   32.20    2.20
  -2   4  -1   31.70    1.90
   2   4   1   32.20    1.20
  -3  -4  -1    4.10    1.50
   3  -4   1    6.10    1.50
   3  -4   1    6.20    1.60
  -3  -4  -1    3.50    1.50
   3   4   1    4.40    1.40
  -3   4  -1    3.40    1.20
   4  -4   1   -0.20    1.40
  -4  -4  -1    1.20    1.30
  -4  -4  -1    1.90    1.70
   4   4   1   -0.40    1.30
  -4   4  -1    1.00    1.50
  -4  -5   1    0.50    1.70
   4  -5  -1    0.00    1.60
  -4  -5   1   -0.60    1.00
  -4   5   1   -0.90    1.40
   4   5  -1   -0.60    1.20
   3  -5  -1    7.60    1.80
  -3  -5   1    7.20    1.90
  -3  -5   1    7.40    1.70
   3   5  -1    6.20    1.60
  -3   5   1    9.50    1.80
  -3   5   1    9.90    1.70
   2  -5  -1   75.29    3.40
   2  -5  -1   71.89    3.10
  -2  -5   1   75.79    3.10
  -2  -5   1   73.59    3.10
   2   5  -1   75.99    3.20
   2   5  -1   76.39    1.60
  -2   5   1   72.39    2.90
  -1  -5   1  241.18    4.70
  -1  -5   1  234.38    4.90
   1  -5  -1  241.38    4.90
   1  -5  -1  242.48    5.20
   1   5  -1  241.68    4.00
  -1   5   1  237.38    4.80
   1   5  -1  243.18    4.90
   0  -5  -1  216.48    4.30
   0  -5   1  216.28    4.50
   0  -5   1  218.38    4.00
   0  -5  -1  216.98    4.20
   0   5   1  214.08    4.10
   0   5  -1  213.18    4.10
   0   5  -1  217.48    3.80
   0   5   1  216.88    3.70
  -1  -5  -1  313.27    5.40
   1  -5   1  304.17    6.20
  -1  -5  -1  304.37    5.70
   1  -5   1  308.07    5.40
   1   5   1  311.67    4.90
   1   5   1  298.97    5.60
  -1   5  -1  294.77    4.10
  -1   5  -1  307.07    5.60
   2  -5   1  136.19    4.00
  -2  -5  -1  135.09    3.90
  -2  -5  -1  136.69    4.20
   2  -5   1  134.89    4.60
  -2   5  -1  132.19    2.50
  -2   5  -1  135.69    3.90
   2   5   1  138.39    2.80
   2   5   1  138.29    4.30
  -3  -5  -1    6.20    1.70
  -3  -5  -1    8.70    1.80
   3  -5   1    9.50    1.90
   3  -5   1    4.50    1.70
  -3   5  -1    5.90    1.50
   3   5   1    8.70    1.80
   4  -5   1    0.30    1.60
  -4  -5  -1    0.10    1.20
  -4  -5  -1   -1.50    1.60
   4   5   1    1.00    1.40
  -4   5  -1   -0.40    1.40
  -4  -6   1   -0.90    1.10
   4  -6  -1    1.80    1.70
  -4  -6   1    0.20    1.70
  -4   6   1   -1.10    1.30
   4   6  -1   -0.60    1.10
   3  -6  -1    1.30    1.40
   3  -6  -1    1.30    1.30
  -3  -6   1    1.90    1.20
  -3  -6   1    2.80    1.50
   3   6  -1    2.10    1.20
  -3   6   1    3.90    1.40
  -2  -6   1   32.20    2.40
   2  -6  -1   35.80    2.60
   2  -6  -1   34.40    2.30
  -2  -6   1   33.00    2.30
   2   6  -1   30.60    2.30
   2   6  -1   32.90    1.30
  -2   6   1   34.10    2.30
  -1  -6   1  382.36    7.10
   1  -6  -1  391.86    7.50
   1  -6  -1  382.86    6.90
  -1  -6   1  392.56    6.70
  -1   6   1  388.06    6.80
   1   6  -1  387.86    6.90
   1   6  -1  386.06    5.90
   0  -6  -1  449.66    7.50
   0  -6   1  466.85    7.10
   0  -6  -1  452.35    7.50
   0  -6   1  462.15    7.90
   0   6   1  452.25    6.60
   0   6  -1  472.85    6.90
   0   6  -1  457.55    7.20
   0   6   1  457.35    7.20
   1  -6   1  102.19    3.00
  -1  -6  -1  108.49    3.00
   1  -6   1  107.59    3.60
  -1  -6  -1  105.99    3.30
   1   6   1  102.89    2.70
  -1   6  -1  104.19    3.30
   1   6   1  109.89    3.30
  -1   6  -1  100.69    2.00
  -2  -6  -1   46.40    2.60
   2  -6   1   51.79    3.10
   2  -6   1   48.30    2.60
  -2  -6  -1   49.30    2.80
   2   6   1   47.80    1.70
   2   6   1   48.30    2.80
  -2   6  -1   45.20    2.60
   3  -6   1    7.80    1.80
  -3  -6  -1    7.20    1.80
  -3  -6  -1    8.70    1.90
   3  -6   1    6.80    1.80
  -3   6  -1   10.50    1.80
   3   6   1   10.90    2.00
  -4  -6  -1    3.90    1.90
   4  -6   1    0.60    1.60
  -4  -6  -1    1.20    1.40
   4   6   1    1.00    1.40
  -4   6  -1    1.70    1.50
  -4  -7   1    1.70    1.90
  -4  -7   1    2.30    1.70
   4  -7  -1   -0.70    1.60
  -4   7   1    5.80    2.20
   4   7  -1    1.60    1.60
   3  -7  -1   -0.30    1.20
  -3  -7   1    2.60    1.60
  -3  -7   1    3.10    1.30
   3  -7  -1    2.60    1.50
  -3   7   1    5.40    1.50
   3   7  -1    3.10    1.40
  -2  -7   1   79.99    3.40
   2  -7  -1   75.09    3.40
  -2  -7   1   83.99    3.50
   2  -7  -1   79.79    3.80
   2   7  -1   73.19    3.40
  -2   7   1   77.69    3.30
   2   7  -1   77.49    2.20
   1  -7  -1   17.60    1.90
  -1  -7   1   20.30    1.70
  -1  -7   1   20.30    1.60
   1  -7  -1   18.70    1.70
  -1   7   1   21.00    1.70
   1   7  -1   17.00    1.40
   1   7  -1   22.00    1.70
   0  -7   1   -0.70    0.60
   0  -7   1    0.70    0.70
   0  -7  -1    0.20    0.60
   0  -7  -1    0.30    0.70
   0   7  -1   -0.10    0.60
   0   7   1   -0.60    0.40
   0   7   1    0.30    0.60
   0   7  -1    0.80    0.70
   1  -7   1   64.79    2.50
  -1  -7  -1   58.49    2.50
   1  -7   1   65.09    3.00
  -1  -7  -1   64.29    2.80
   1   7   1   65.09    2.30
  -1   7  -1   61.59    1.60
   1   7   1   60.69    2.60
  -1   7  -1   65.49    2.70
  -2  -7  -1    0.50    1.10
  -2  -7  -1    1.40    1.20
   2  -7   1    0.00    0.90
   2  -7   1    0.50    1.10
   2   7   1    1.00    0.70
   2   7   1    0.10    1.00
  -2   7  -1   -0.80    0.80
   3  -7   1   30.90    3.10
  -3  -7  -1   29.00    3.10
  -3  -7  -1   31.70    2.90
   3  -7   1   28.20    3.30
  -3   7  -1   30.40    2.90
   3   7   1   27.10    2.90
  -4  -7  -1   -2.10    1.00
   4  -7   1   -0.80    1.60
  -4   7  -1   -0.30    1.50
  -4   7  -1   -1.10    1.40
   4   7   1    2.30    1.60
  -4  -8   1    3.20    2.10
   4  -8  -1    2.70    2.00
  -4  -8   1    5.70    2.20
  -4   8   1    0.30    1.70
  -4   8   1    4.80    2.00
   4   8  -1    2.30    1.70
  -3  -8   1    2.50    1.60
  -3  -8   1    1.30    1.50
   3  -8  -1    2.10    1.50
   3  -8  -1    3.60    1.70
  -3   8   1    0.60    1.30
   3   8  -1    1.50    1.40
  -2  -8   1   47.20    2.90
   2  -8  -1   49.99    3.00
   2  -8  -1   39.70    3.00
  -2  -8   1   43.90    3.00
   2   8  -1   47.10    3.00
  -2   8   1   44.60    2.80
   1  -8  -1    3.90    1.20
   1  -8  -1    1.70    1.10
  -1  -8   1    1.10    1.00
  -1  -8   1    3.50    1.20
   1   8  -1    4.50    1.20
  -1   8   1    3.90    1.20
   1   8  -1    4.00    1.00
   0  -8   1   14.80    1.60
   0  -8   1   15.70    1.80
   0  -8  -1   17.40    1.90
   0  -8  -1   13.30    1.70
   0   8   1   15.20    1.30
   0   8  -1   14.70    1.30
   0   8  -1   16.70    1.80
   0   8   1   14.60    1.70
  -1  -8  -1   21.00    1.90
  -1  -8  -1   22.20    2.30
   1  -8   1   22.70    2.10
   1  -8   1   20.20    1.80
   1   8   1   19.00    2.00
  -1   8  -1   20.50    1.10
   1   8   1   20.50    1.70
  -1   8  -1   22.70    2.20
   2  -8   1    1.00    1.10
  -2  -8  -1    2.00    1.40
  -2  -8  -1    0.10    1.20
   2  -8   1    0.90    1.10
   2   8   1    1.20    0.80
  -2   8  -1    1.40    1.10
   2   8   1    1.30    1.30
   3  -8   1    0.20    1.40
  -3  -8  -1    1.10    1.50
   3  -8   1    4.20    1.60
  -3  -8  -1    2.40    1.50
  -3   8  -1    1.00    1.40
   3   8   1    1.90    1.50
   4  -8   1    3.90    1.90
  -4  -8  -1    1.20    1.70
  -4   8  -1   -0.90    1.50
   4   8   1    1.10    1.40
  -4   8  -1   -0.40    1.60
  -4  -9   1    0.50    1.60
   4  -9  -1    0.30    2.10
  -4   9   1   -0.30    1.80
  -4   9   1    1.70    1.90
   4   9  -1   -0.60    1.40
   3  -9  -1   27.60    3.50
   3  -9  -1   37.50    3.40
  -3  -9   1   39.70    3.40
  -3  -9   1   40.90    3.30
   3   9  -1   39.40    3.30
  -3   9   1   39.20    3.10
   2  -9  -1    2.50    1.40
   2  -9  -1    4.20    1.50
  -2  -9   1    5.90    1.60
  -2  -9   1    3.30    1.40
  -2   9   1    3.80    1.40
   2   9  -1    1.80    1.40
   1  -9  -1    3.80    1.30
   1  -9  -1    4.00    1.30
  -1  -9   1    4.90    1.40
  -1  -9   1    4.90    1.40
  -1   9   1    5.90    1.40
   1   9  -1    5.50    1.20
   1   9  -1    3.80    1.20
   0  -9  -1   10.30    1.60
   0  -9   1   11.70    1.60
   0  -9  -1   14.30    2.00
   0  -9   1   14.70    1.90
   0   9  -1   16.50    1.90
   0   9  -1   11.80    1.50
   0   9   1   12.30    1.80
   0   9   1   14.20    1.50
   1  -9   1    7.50    1.40
  -1  -9  -1   10.20    1.60
  -1  -9  -1   10.10    1.80
   1  -9   1    7.90    1.70
   1   9   1    7.70    1.40
  -1   9  -1    6.80    1.50
   1   9   1    6.90    1.40
  -2  -9  -1    0.80    1.10
  -2  -9  -1   -0.80    1.10
   2  -9   1    0.50    1.00
   2  -9   1   -0.20    1.10
   2   9   1   -1.50    1.00
  -2   9  -1   -0.70    1.00
   3  -9   1    3.00    1.90
  -3  -9  -1    3.10    1.70
   3  -9   1    2.90    1.60
  -3   9  -1    3.20    1.70
   3   9   1    1.30    1.50
   4  -9   1    4.90    2.30
   4  -9   1    3.10    2.40
  -4  -9  -1   -1.40    1.60
  -4   9  -1    3.00    1.90
   4   9   1    2.80    1.90
   3 -10  -1    7.30    2.20
  -3 -10   1    9.50    2.20
  -3 -10   1   10.80    2.40
   3 -10  -1    9.10    2.50
   3  10  -1   11.10    2.30
  -3  10   1    9.50    2.10
  -2 -10   1   17.00    2.40
   2 -10  -1   11.70    2.10
  -2 -10   1   13.50    2.20
   2 -10  -1   15.20    2.50
  -2  10   1   10.70    1.90
   2  10  -1   13.60    2.20
   1 -10  -1   -0.60    1.10
  -1 -10   1    0.70    1.20
   1 -10  -1    1.10    1.20
  -1 -10   1   -0.50    1.00
   1  10  -1   -0.40    0.90
   1  10  -1   -1.20    0.80
  -1  10   1   -0.10    1.00
   0 -10   1   27.20    2.80
   0 -10  -1   28.70    2.30
   0 -10  -1   25.40    2.60
   0 -10   1   24.80    2.40
   0  10   1   25.90    2.50
   0  10  -1   24.80    1.80
   0  10   1   21.90    1.80
   0  10  -1   25.00    2.40
   1 -10   1   -0.90    0.90
  -1 -10  -1    1.30    1.10
   1 -10   1    1.60    1.30
  -1 -10  -1    1.20    1.30
  -1  10  -1    0.40    0.90
   1  10   1   -1.00    0.90
   1  10   1   -0.10    0.90
  -2 -10  -1   14.10    2.10
   2 -10   1    9.70    2.10
   2 -10   1   12.10    1.90
  -2 -10  -1   12.00    2.10
  -2  10  -1   13.90    2.20
   2  10   1    8.40    1.90
   3 -10   1    0.30    1.70
  -3 -10  -1   -2.70    1.20
   3 -10   1    1.30    1.50
  -3  10  -1   -0.10    1.30
   3  10   1   -0.70    1.20
   3 -11  -1    0.90    1.70
  -3 -11   1   -0.80    1.40
   3 -11  -1    0.60    1.80
   3  11  -1    1.60    1.50
  -3  11   1   -1.40    1.10
  -2 -11   1    9.30    2.10
  -2 -11   1    8.70    2.00
   2 -11  -1   10.40    2.00
   2 -11  -1   12.70    2.40
  -2  11   1   10.90    2.20
   2  11  -1    6.70    1.80
   1 -11  -1   29.30    2.50
   1 -11  -1   27.90    3.00
  -1 -11   1   32.70    2.80
  -1 -11   1   31.70    2.60
  -1  11   1   34.80    2.80
   1  11  -1   26.40    2.50
   1  11  -1   31.20    2.40
   0 -11   1    4.20    1.40
   0 -11  -1    8.20    1.80
   0 -11   1    6.80    1.70
   0 -11  -1    7.60    1.60
   0  11   1    8.00    1.60
   0  11   1    7.30    1.30
   0  11  -1    8.50    1.60
   0  11  -1    9.80    1.50
   1 -11   1   38.70    3.10
  -1 -11  -1   41.50    2.80
   1 -11   1   44.40    2.80
  -1 -11  -1   37.70    2.90
  -1  11  -1   40.80    2.90
   1  11   1   41.30    2.80
   1  11   1   41.20    2.60
   2 -11   1    5.50    1.90
  -2 -11  -1    4.40    1.80
   2 -11   1    6.20    1.60
   2  11   1    4.10    1.60
  -2  11  -1    4.10    1.50
  -3 -11  -1    0.60    1.50
   3 -11   1    1.00    1.50
   3 -11   1    0.40    1.90
   3  11   1   -1.30    1.30
  -3  11  -1   -1.20    1.20
   3 -12  -1   -1.40    1.80
   3 -12  -1    3.70    2.10
  -3 -12   1    4.10    1.90
  -3  12   1   -2.00    1.30
   3  12  -1   -0.60    1.50
   2 -12  -1   11.60    2.00
   2 -12  -1   12.70    2.50
  -2 -12   1   14.20    2.50
  -2 -12   1   16.10    2.60
  -2  12   1   11.20    2.10
   2  12  -1   15.80    2.40
   1 -12  -1   -0.90    1.40
  -1 -12   1   -1.10    1.20
   1 -12  -1   -0.70    1.00
  -1 -12   1    0.70    1.30
   1  12  -1    1.70    1.10
   1  12  -1    1.20    1.10
  -1  12   1   -0.30    1.20
   0 -12  -1   23.10    2.70
   0 -12   1   31.40    2.50
   0 -12   1   29.10    3.10
   0 -12  -1   23.10    2.60
   0  12  -1   26.00    2.70
   0  12   1   26.40    2.80
   1 -12   1    3.40    1.40
   1 -12   1    2.20    1.50
  -1 -12  -1    3.80    1.50
  -1 -12  -1    7.10    1.90
   1  12   1    5.60    1.50
   1  12   1    5.00    1.50
  -1  12  -1    1.00    1.20
   2 -12   1    9.90    2.40
  -2 -12  -1    8.70    2.20
   2 -12   1    9.90    1.90
   2  12   1    9.30    2.00
  -2  12  -1    3.90    1.60
   3 -12   1   11.30    3.10
   3 -12   1    5.50    2.10
  -3 -12  -1    4.50    2.20
   3  12   1    3.60    1.80
  -3  12  -1    2.60    1.80
  -2 -13   1    1.00    1.40
   2 -13  -1    1.30    1.40
   2 -13  -1   -0.40    1.40
   2  13  -1   -1.60    1.20
  -2  13   1    0.30    1.40
   1 -13  -1    7.90    2.00
  -1 -13   1    5.30    1.70
   1 -13  -1    3.90    1.50
  -1 -13   1    8.20    2.00
   1  13  -1    7.50    1.70
  -1  13   1    3.50    1.70
   1  13  -1    5.00    1.60
   0 -13   1   -0.30    1.00
   0 -13  -1    0.90    1.30
   0 -13   1   -0.60    1.20
   0 -13  -1   -1.60    1.00
   0  13   1    1.00    1.40
   0  13  -1    0.10    1.20
   1 -13   1    3.50    1.40
   1 -13   1    1.10    1.40
  -1 -13  -1   -1.60    1.10
  -1  13  -1    1.90    1.40
   1  13   1    3.60    1.40
   1  13   1   -0.10    1.00
  -2 -13  -1    0.80    1.40
   2 -13   1    3.90    1.60
   2 -13   1    1.50    1.80
  -2  13  -1    1.80    1.60
   2  13   1    1.00    1.40
  -2 -14   1    5.30    2.00
   2 -14  -1    7.00    2.00
   2 -14  -1    4.30    2.10
  -2  14   1    4.00    2.00
   2  14  -1    5.10    1.80
  -1 -14   1    2.20    1.40
  -1 -14   1   -1.30    1.20
   1 -14  -1    3.70    1.50
   1 -14  -1    0.60    1.30
   1  14  -1   -1.20    1.20
   1  14  -1    1.70    1.30
  -1  14   1   -0.50    1.20
   0 -14  -1   -0.10    1.20
   0 -14   1    3.60    1.70
   0 -14  -1   -1.40    1.10
   0 -14   1   -0.80    1.10
   0  14  -1    0.10    1.10
   0  14   1   -0.90    1.10
   1 -14   1    0.70    1.50
  -1 -14  -1   -0.40    1.40
  -1  14  -1   -1.60    1.10
   1  14   1    1.00    1.20
  -2 -14  -1    0.10    1.70
   2 -14   1   -0.20    1.80
   2  14   1   -0.20    1.20
  -2  14  -1   -1.00    1.40
   1 -15  -1   -1.70    1.20
   1 -15  -1    1.50    1.40
  -1  15   1    0.10    1.30
   1  15  -1   -0.70    1.20
   0 -15   1   -0.20    1.30
   0 -15  -1    0.10    1.40
   0  15  -1    0.90    1.40
   0  15   1   -0.90    1.20
  -1 -15  -1    3.90    1.90
   1 -15   1    1.00    1.70
  -1  15  -1   -1.50    1.40
   1  15   1    1.10    1.40
  -5   0   2   -1.00    1.90
   5   0  -2   -2.20    1.60
   4   0  -2    1.40    1.20
   4   0  -2   -0.70    1.10
  -4   0   2    3.00    1.60
   3   0  -2   11.70    1.70
  -3   0   2    6.80    1.60
   3   0  -2   10.00    1.80
   2   0  -2    9.00    1.10
   2   0  -2    7.00    1.20
  -2   0   2    8.90    0.70
  -2   0   2    8.30    1.30
  -1   0   2  830.02    9.00
   1   0  -2  809.02   10.50
   1   0  -2  826.02   10.00
  -1   0   2  862.11   11.30
   0   0  -2  952.20   10.50
   0   0   2  935.01   10.30
   0   0  -2  953.90   10.60
   0   0   2  948.11   11.10
   1   0   2 9978.80  105.19
   1   0   2 9997.50  110.49
   1   0   2 9999.00  111.09
   1   0   2 9940.81  117.49
   2   0   2 1362.56   18.00
   2   0   2 1416.96   17.40
   2   0   2 1370.86   15.90
  -2   0  -2 1372.56   18.70
  -3   0  -2    1.80    1.30
  -3   0  -2    1.00    0.80
   3   0   2    1.30    1.30
   3   0   2    1.10    1.10
   4   0   2    3.50    1.80
   4   0   2    5.20    1.70
  -4   0  -2    3.10    1.80
  -5  -1   2    0.90    2.00
   5  -1  -2   -2.60    1.70
   5   1  -2   -1.80    1.90
  -5   1   2    1.20    1.90
  -4  -1   2    4.20    2.00
   4  -1  -2    3.60    1.70
   4  -1  -2    2.50    1.30
   4   1  -2    3.70    1.40
  -4   1   2    4.80    1.80
   4   1  -2    5.50    1.90
  -3  -1   2    8.90    1.80
   3  -1  -2   12.40    1.50
   3  -1  -2   12.10    1.90
  -3   1   2    9.90    1.90
   3   1  -2   11.60    1.70
  -3   1   2   11.90    1.20
   3   1  -2    9.30    1.70
  -2  -1   2    3.30    1.00
   2  -1  -2    3.60    0.80
   2  -1  -2    4.60    1.10
  -2   1   2    2.30    0.90
   2   1  -2    3.40    1.00
   2   1  -2    3.20    0.90
  -2   1   2    4.10    0.70
   1  -1  -2  166.38    3.30
   1  -1  -2  169.58    2.70
  -1  -1   2  163.68    3.40
   1   1  -2  167.38    3.20
  -1   1   2  170.18    3.50
  -1   1   2  165.78    2.70
   1   1  -2  167.48    3.20
   0  -1   2  481.15    6.40
   0  -1  -2  493.05    6.10
   0  -1   2  497.75    5.80
   0   1   2  493.35    5.90
   0   1   2  489.45    5.90
   1  -1   2 5104.79   61.29
   1  -1   2 5189.38   56.09
   1  -1   2 5108.49   53.69
   1  -1   2 5134.49   56.19
  -1  -1  -2 5058.39   59.29
   1   1   2 5128.69   55.79
   1   1   2 5058.69   58.19
   1   1   2 5056.79   53.79
   2  -1   2  649.64    8.90
   2  -1   2  665.73   10.60
   2  -1   2  644.64   10.00
  -2  -1  -2  656.33   10.20
   2  -1   2  671.53    9.40
   2   1   2  655.13    9.90
   2   1   2  643.74   10.10
   2   1   2  642.34    8.40
  -3  -1  -2   63.69    3.50
   3  -1   2   66.39    2.90
   3  -1   2   59.89    3.20
   3   1   2   60.19    3.30
  -3   1  -2   60.29    3.40
  -3   1  -2   65.09    2.50
   3   1   2   64.79    3.10
   4  -1   2   -0.40    1.30
  -4  -1  -2    1.80    1.60
   4  -1   2    0.00    1.20
   4   1   2    1.10    1.40
   4   1   2    0.30    1.30
  -4   1  -2    0.80    1.50
   4  -2  -2   -0.40    1.20
  -4  -2   2    0.00    1.40
   4   2  -2   -0.90    1.40
   4   2  -2    0.50    1.20
  -4   2   2   -0.20    1.40
   3  -2  -2    0.50    1.10
  -3  -2   2    0.00    1.10
   3  -2  -2   -1.20    0.70
   3   2  -2   -0.10    1.00
  -3   2   2    0.50    0.90
   3   2  -2   -0.50    1.10
  -3   2   2   -0.90    1.00
  -2  -2   2    2.60    1.00
   2  -2  -2    2.60    0.60
   2  -2  -2    2.20    0.90
  -2   2   2    4.80    1.20
   2   2  -2    2.30    0.90
  -2   2   2    3.20    0.70
   2   2  -2    3.30    0.90
   1  -2  -2   29.50    1.40
   1  -2  -2   28.40    1.40
   1  -2  -2   28.80    0.80
  -1  -2   2   25.80    1.50
   1   2  -2   28.30    1.40
  -1   2   2   31.20    1.30
   1   2  -2   27.70    1.30
   0  -2   2  879.51   10.00
   0  -2  -2  869.71   10.60
   0  -2  -2  876.11   10.40
   0  -2   2  883.31   11.30
   0   2  -2  891.91   10.30
   0   2   2  891.51   10.10
   0   2   2  862.11   10.10
   1  -2   2   30.30    1.40
   1  -2   2   32.60    1.60
   1  -2   2   33.70    1.40
  -1  -2  -2   32.10    1.50
  -1  -2  -2   31.20    1.20
   1  -2   2   31.00    1.20
   1   2   2   31.30    1.50
   1   2   2   31.60    1.10
   2  -2   2   79.69    3.10
   2  -2   2   77.19    2.40
   2  -2   2   80.19    2.90
  -2  -2  -2   79.19    2.80
  -2   2  -2   79.39    2.50
   2   2   2   87.99    3.10
   2   2   2   80.09    2.00
   2   2   2   84.79    3.00
  -3  -2  -2   12.90    2.00
   3  -2   2   10.30    1.60
   3  -2   2   14.20    2.10
  -3   2  -2   13.30    2.00
   3   2   2   12.00    1.90
  -3   2  -2   13.20    1.60
   3   2   2   14.10    2.00
  -4  -2  -2    1.40    1.60
   4  -2   2    2.40    1.50
   4   2   2    2.10    1.60
  -4   2  -2    2.50    1.60
   4   2   2    1.50    1.40
  -4  -3   2    3.40    1.90
   4  -3  -2    3.90    1.70
   4   3  -2    6.90    1.80
   4   3  -2    4.80    2.00
  -4   3   2    4.00    1.70
   3  -3  -2   -0.10    0.80
   3  -3  -2   -0.50    1.10
  -3  -3   2    0.30    1.20
  -3   3   2    0.80    1.20
   3   3  -2    2.20    1.20
  -3   3   2    1.50    1.00
   3   3  -2    0.60    1.20
  -2  -3   2    7.30    1.30
   2  -3  -2    8.30    1.40
   2  -3  -2    8.00    0.80
  -2   3   2    9.30    1.50
   2   3  -2    9.70    1.40
   2   3  -2    6.00    1.20
  -2   3   2    9.20    1.10
  -1  -3   2   -0.50    0.60
   1  -3  -2    0.30    0.50
   1  -3  -2   -0.10    0.50
   1   3  -2    0.20    0.30
  -1   3   2    0.30    0.50
   1   3  -2    0.50    0.60
   1   3  -2    0.40    0.50
   0  -3   2 1791.52   19.40
   0  -3  -2 1747.53   20.40
   0  -3   2 1783.42   21.60
   0  -3  -2 1733.43   20.60
   0   3  -2 1744.03   19.60
   0   3  -2 1765.52   19.30
   0   3   2 1751.92   19.40
   0   3   2 1732.03   19.40
   1  -3   2  175.08    3.30
  -1  -3  -2  179.08    3.20
  -1  -3  -2  176.58    3.80
   1  -3   2  177.88    4.00
   1   3   2  178.38    3.10
  -1   3  -2  180.78    3.60
  -1   3  -2  178.48    3.00
   1   3   2  178.58    3.80
   2  -3   2   47.50    2.30
   2  -3   2   41.00    2.40
   2  -3   2   42.90    1.70
  -2  -3  -2   46.80    2.20
  -2  -3  -2   45.60    2.40
   2   3   2   47.40    2.40
   2   3   2   46.40    1.50
  -2   3  -2   48.40    2.10
   3  -3   2    8.60    1.80
  -3  -3  -2   12.60    1.90
   3  -3   2   11.50    1.50
   3   3   2   12.60    2.10
  -3   3  -2   11.70    2.00
  -3   3  -2   18.70    1.90
   3   3   2   12.30    1.90
  -4  -3  -2   -0.60    1.40
   4  -3   2    0.80    1.60
   4   3   2    1.00    1.30
  -4   3  -2   -0.40    1.40
   4   3   2   -0.40    1.50
  -4  -4   2    2.30    1.80
   4  -4  -2    3.80    1.80
   4   4  -2    5.60    2.00
   4   4  -2    2.70    1.60
  -4   4   2    3.00    1.70
  -3  -4   2   28.30    2.90
   3  -4  -2   29.70    2.90
   3   4  -2   32.50    2.50
  -3   4   2   29.80    2.20
  -3   4   2   28.80    2.70
   3   4  -2   25.90    2.70
   2  -4  -2    8.90    1.50
  -2  -4   2    7.90    1.40
   2  -4  -2    6.20    1.30
  -2   4   2    7.70    1.20
   2   4  -2    7.90    1.40
   2   4  -2    6.90    1.30
   1  -4  -2   66.49    2.30
  -1  -4   2   68.49    2.40
  -1  -4   2   69.89    2.10
   1  -4  -2   67.89    2.40
   1   4  -2   67.89    1.60
  -1   4   2   67.79    2.20
   1   4  -2   65.99    2.30
   0  -4   2   95.79    2.10
   0  -4  -2   91.79    2.50
   0  -4   2   91.19    2.60
   0  -4  -2   92.89    2.20
   0   4  -2   92.49    2.20
   0   4   2   96.79    2.40
   0   4  -2   93.59    2.30
   0   4   2   90.49    2.00
   1  -4   2  106.99    3.20
   1  -4   2  106.99    2.60
  -1  -4  -2  105.69    2.50
  -1  -4  -2  110.19    3.10
   1   4   2  111.89    3.00
   1   4   2  103.79    2.40
  -1   4  -2  108.99    2.20
  -1   4  -2  107.59    2.90
  -2  -4  -2    0.60    0.80
  -2  -4  -2   -0.40    0.80
   2  -4   2    0.60    0.80
   2  -4   2    0.70    0.90
  -2   4  -2    1.60    0.80
   2   4   2    0.30    0.90
   2   4   2    0.90    0.50
  -3  -4  -2    2.10    1.30
  -3  -4  -2    1.00    1.20
   3  -4   2    2.10    1.40
   3  -4   2    0.10    1.20
  -3   4  -2    2.80    1.20
   3   4   2   -0.40    1.10
  -4  -4  -2    0.00    1.50
   4  -4   2    2.50    1.80
  -4  -4  -2   -0.10    1.30
   4   4   2   -0.20    1.30
  -4   4  -2    0.30    1.50
   4  -5  -2    2.00    1.70
  -4  -5   2   -0.70    1.80
   4   5  -2    1.40    1.30
  -4   5   2    0.00    1.40
  -3  -5   2    2.80    1.60
   3  -5  -2    2.30    1.30
   3   5  -2    1.80    1.30
   3   5  -2    4.50    1.50
  -3   5   2    3.10    1.20
  -3   5   2    3.10    1.40
   2  -5  -2    0.10    0.90
  -2  -5   2    0.00    0.80
   2  -5  -2   -0.30    0.80
  -2  -5   2   -0.20    1.00
   2   5  -2   -0.20    0.80
  -2   5   2   -0.20    0.80
  -1  -5   2   10.40    1.20
   1  -5  -2    8.20    1.20
  -1  -5   2    9.50    1.30
   1  -5  -2    8.90    1.20
   1   5  -2    9.90    0.90
  -1   5   2   14.10    1.50
   1   5  -2    9.20    1.30
   0  -5  -2   93.79    2.50
   0  -5   2   97.09    2.90
   0  -5   2  100.29    2.40
   0  -5  -2   96.29    2.80
   0   5  -2   94.69    2.60
   0   5  -2   98.69    2.40
   0   5   2   95.79    2.70
   0   5   2   98.29    2.30
  -1  -5  -2  280.47    5.60
   1  -5   2  283.87    5.00
  -1  -5  -2  287.07    4.90
   1  -5   2  284.07    6.00
   1   5   2  283.57    4.80
  -1   5  -2  284.47    5.40
  -1   5  -2  278.37    4.20
   1   5   2  284.57    5.50
  -2  -5  -2   67.89    3.10
   2  -5   2   63.99    2.70
  -2  -5  -2   62.19    2.60
   2  -5   2   64.89    3.20
  -2   5  -2   60.79    2.70
  -2   5  -2   59.39    1.80
   2   5   2   65.49    2.00
   2   5   2   61.89    2.90
   3  -5   2    0.70    1.20
  -3  -5  -2    2.70    1.40
  -3  -5  -2   -0.80    1.20
   3  -5   2   -0.40    1.10
   3   5   2    0.90    1.20
  -3   5  -2   -0.20    0.90
  -4  -5  -2    0.20    1.60
   4  -5   2   -1.30    1.30
  -4  -5  -2    3.80    1.60
  -4   5  -2    0.50    1.40
   4   5   2   -0.10    1.30
  -4  -6   2   -1.30    1.60
   4  -6  -2    2.30    1.90
  -4  -6   2    2.00    1.40
   4   6  -2    0.20    1.20
  -4   6   2    1.50    1.60
  -3  -6   2    6.00    1.80
   3  -6  -2    8.10    1.80
  -3  -6   2   10.00    1.90
  -3   6   2   11.80    1.90
  -3   6   2    5.90    1.60
   3   6  -2    9.30    1.80
  -2  -6   2   24.50    2.00
   2  -6  -2   20.10    2.30
  -2  -6   2   18.90    2.20
   2  -6  -2   24.40    2.10
   2   6  -2   23.30    2.30
  -2   6   2   21.80    2.10
   2   6  -2   22.30    1.10
   1  -6  -2   55.99    2.50
  -1  -6   2   59.99    2.30
   1  -6  -2   58.39    2.50
  -1  -6   2   61.89    2.60
   1   6  -2   57.69    2.50
   1   6  -2   58.39    1.90
  -1   6   2   57.49    2.50
   0  -6   2  129.89    3.80
   0  -6   2  141.49    3.10
   0  -6  -2  132.39    3.30
   0  -6  -2  131.39    3.60
   0   6   2  140.29    3.00
   0   6  -2  140.19    3.40
   0   6  -2  137.69    3.10
   0   6   2  133.19    3.40
  -1  -6  -2    6.20    1.30
   1  -6   2    6.90    1.00
   1  -6   2    7.30    1.30
  -1  -6  -2    5.90    1.00
   1   6   2    5.70    1.10
  -1   6  -2    6.60    0.80
   1   6   2    7.20    1.00
  -1   6  -2    5.60    1.10
   2  -6   2   -0.90    0.80
  -2  -6  -2    0.30    1.00
   2  -6   2    0.30    0.80
  -2  -6  -2   -0.70    1.00
   2   6   2   -0.20    0.60
  -2   6  -2    1.30    0.90
   2   6   2   -0.30    1.00
   3  -6   2    4.10    1.50
   3  -6   2    0.50    1.30
  -3  -6  -2   -0.80    1.20
  -3  -6  -2    3.10    1.40
  -3   6  -2    3.00    1.40
   3   6   2    1.50    1.30
  -4  -6  -2    1.00    1.50
   4  -6   2    0.30    1.60
  -4   6  -2    1.90    1.60
   4   6   2    1.50    1.60
  -4  -7   2    1.80    2.00
  -4  -7   2    2.20    1.60
   4  -7  -2    0.00    1.70
  -4   7   2    1.30    1.80
   4   7  -2   -0.10    1.30
  -3  -7   2   -0.20    1.30
   3  -7  -2    1.30    1.50
   3  -7  -2    0.10    1.30
  -3  -7   2    0.60    1.10
   3   7  -2    4.20    1.50
  -3   7   2    0.50    1.30
  -2  -7   2    6.30    1.60
   2  -7  -2    4.10    1.30
   2  -7  -2    1.30    1.20
  -2  -7   2    5.60    1.40
  -2   7   2    2.90    1.10
   2   7  -2    3.30    1.20
  -1  -7   2    9.40    1.30
   1  -7  -2    6.10    1.30
  -1  -7   2    5.10    1.20
   1  -7  -2    5.90    1.20
   1   7  -2    5.50    1.20
   1   7  -2    7.60    1.00
  -1   7   2    7.30    1.30
   0  -7  -2   19.30    1.90
   0  -7   2   14.80    1.30
   0  -7   2   13.50    1.70
   0  -7  -2   14.60    1.50
   0   7  -2   18.20    1.50
   0   7  -2   16.10    1.30
   0   7   2   19.00    1.60
   0   7   2   15.60    1.20
   1  -7   2   18.20    1.50
   1  -7   2   17.20    2.00
  -1  -7  -2   15.80    1.40
  -1  -7  -2   18.90    2.00
  -1   7  -2   15.10    1.00
   1   7   2   16.40    1.60
   1   7   2   17.40    1.90
  -1   7  -2   15.30    1.70
  -2  -7  -2   11.50    2.00
   2  -7   2   10.80    1.70
  -2  -7  -2   11.60    1.70
   2  -7   2    9.90    1.90
  -2   7  -2    9.00    1.70
   2   7   2   11.00    1.30
   2   7   2    9.50    1.80
  -3  -7  -2    3.00    1.60
  -3  -7  -2    3.70    1.60
   3  -7   2    5.60    1.70
   3  -7   2    5.40    1.90
  -3   7  -2    2.30    1.50
   3   7   2    3.40    1.50
  -4  -7  -2    0.60    1.50
   4  -7   2    0.00    1.70
  -4   7  -2   -0.40    1.40
  -4   7  -2   -1.00    1.40
   4   7   2   -1.20    1.30
  -4  -8   2    7.50    2.10
   4  -8  -2   13.00    3.10
  -4  -8   2    6.00    2.50
  -4   8   2    6.40    2.40
   4   8  -2   11.80    2.60
   3  -8  -2   77.79    4.20
   3  -8  -2   68.69    4.40
  -3  -8   2   67.79    4.00
  -3  -8   2   65.69    3.80
   3   8  -2   69.19    3.90
  -3   8   2   63.89    3.60
   2  -8  -2    0.40    1.10
  -2  -8   2    2.80    1.40
   2  -8  -2    1.90    1.30
  -2  -8   2   -1.20    1.00
  -2   8   2    0.70    1.20
   2   8  -2   -0.60    1.10
   1  -8  -2    0.00    0.80
   1  -8  -2    0.00    0.90
  -1  -8   2   -0.20    0.90
  -1  -8   2    0.80    1.00
   1   8  -2    1.40    1.00
   1   8  -2    1.20    0.70
  -1   8   2    1.00    0.90
   0  -8   2    6.80    1.20
   0  -8  -2    8.90    1.30
   0  -8  -2    7.10    1.50
   0  -8   2    7.20    1.50
   0   8  -2    6.90    1.20
   0   8  -2    6.60    1.10
   0   8   2    4.20    1.10
   0   8   2    6.80    1.10
   1  -8   2    2.10    1.10
   1  -8   2    2.80    1.00
  -1  -8  -2    4.60    1.30
  -1  -8  -2    4.00    1.00
   1   8   2    1.20    1.00
   1   8   2    3.40    1.10
  -1   8  -2    1.40    1.00
  -1   8  -2    1.50    0.60
   2  -8   2    0.10    1.00
   2  -8   2   -1.00    1.00
  -2  -8  -2   -0.20    1.00
  -2  -8  -2   -0.30    1.10
   2   8   2    1.70    0.80
  -2   8  -2   -1.40    0.90
   2   8   2    0.00    1.10
  -3  -8  -2    1.20    1.40
   3  -8   2   -0.60    1.30
   3  -8   2    0.90    1.20
   3   8   2   -2.90    0.90
  -3   8  -2   -2.20    1.00
  -4  -8  -2    1.50    1.80
   4  -8   2    1.90    1.70
   4  -8   2    3.90    2.00
  -4   8  -2    2.10    1.80
   4   8   2   -0.20    1.40
   4  -9  -2    8.40    2.60
  -4  -9   2    9.70    2.40
  -4  -9   2    9.60    2.70
  -4   9   2    7.40    2.40
   4   9  -2    3.80    1.80
  -4   9   2    6.80    2.20
   3  -9  -2    9.10    2.40
  -3  -9   2   12.10    2.40
   3  -9  -2    4.70    1.80
  -3  -9   2   12.10    2.40
  -3   9   2   15.70    2.50
   3   9  -2   12.70    2.20
   2  -9  -2  209.68    6.60
   2  -9  -2  203.68    6.10
  -2  -9   2  212.08    6.20
  -2  -9   2  207.08    5.80
  -2   9   2  204.28    6.00
   2   9  -2  206.68    6.10
   1  -9  -2    0.50    0.90
  -1  -9   2    1.50    1.20
   1  -9  -2   -0.30    1.00
  -1  -9   2    1.10    1.10
   1   9  -2   -0.30    0.90
   1   9  -2   -0.70    0.80
  -1   9   2    1.00    1.00
   0  -9   2    7.60    1.60
   0  -9  -2   12.20    1.90
   0  -9  -2   11.40    1.60
   0  -9   2    8.50    1.40
   0   9  -2    9.20    1.50
   0   9  -2   11.50    1.50
   0   9   2   10.20    1.30
   0   9   2   13.00    1.80
   1  -9   2    0.80    0.90
  -1  -9  -2   -0.40    0.80
   1  -9   2    0.40    1.00
  -1  -9  -2   -2.00    1.00
  -1   9  -2   -0.20    0.90
   1   9   2    0.50    0.90
   1   9   2   -0.40    0.90
  -2  -9  -2    0.70    1.10
   2  -9   2    1.80    1.10
   2  -9   2    0.70    1.20
  -2  -9  -2    1.30    1.20
   2   9   2    1.70    1.30
   2   9   2    2.10    1.00
  -2   9  -2    1.60    1.20
   3  -9   2    2.10    1.50
   3  -9   2    0.70    1.70
  -3  -9  -2   -1.40    1.30
  -3   9  -2   -0.90    1.20
   3   9   2   -1.20    1.20
   4  -9   2    0.90    2.00
   4  -9   2   -2.80    1.80
  -4  -9  -2    0.10    1.60
   4   9   2   -1.60    1.20
  -4   9  -2   -1.30    1.60
  -3 -10   2    9.00    2.10
  -3 -10   2    9.00    2.20
   3 -10  -2   11.10    2.60
   3 -10  -2    9.10    2.40
  -3  10   2    8.90    2.30
   3  10  -2    8.10    2.10
  -2 -10   2   41.50    2.90
  -2 -10   2   46.00    3.30
   2 -10  -2   43.90    3.10
   2 -10  -2   41.40    3.30
   2  10  -2   40.40    2.90
  -2  10   2   40.60    3.00
   1 -10  -2   31.80    2.60
  -1 -10   2   28.50    2.30
  -1 -10   2   29.40    2.60
   1 -10  -2   31.20    2.60
   1  10  -2   29.60    2.30
   1  10  -2   26.80    2.10
  -1  10   2   26.80    2.60
   0 -10  -2    8.60    1.60
   0 -10   2    6.90    1.50
   0 -10  -2    8.00    1.80
   0 -10   2    4.80    1.50
   0  10   2    8.80    1.70
   0  10   2    6.80    1.20
   0  10  -2    7.80    1.40
   0  10  -2    5.40    1.40
   1 -10   2    1.20    1.20
  -1 -10  -2   -0.40    0.90
  -1 -10  -2   -0.20    1.20
   1 -10   2    2.50    1.10
   1  10   2    0.90    1.00
   1  10   2    0.10    1.00
  -1  10  -2    0.10    1.00
   2 -10   2    0.40    1.10
   2 -10   2   -0.50    1.20
  -2 -10  -2   -0.30    1.20
  -2  10  -2   -0.20    1.20
   2  10   2    0.80    1.20
  -3 -10  -2    0.70    1.50
   3 -10   2    0.00    1.30
   3 -10   2    0.00    1.60
  -3  10  -2   -1.00    1.30
   3  10   2    0.30    1.40
   3 -11  -2    0.30    1.70
  -3 -11   2   -1.40    1.50
  -3 -11   2    1.90    1.50
   3 -11  -2    0.30    1.80
  -3  11   2    1.60    1.70
   3  11  -2    0.40    1.30
  -2 -11   2    0.70    1.50
  -2 -11   2    0.10    1.30
   2 -11  -2    1.60    1.40
   2 -11  -2    1.10    1.30
  -2  11   2    2.40    1.40
   2  11  -2    1.20    1.30
  -1 -11   2   30.60    2.50
   1 -11  -2   38.40    3.00
  -1 -11   2   34.30    2.80
   1 -11  -2   29.40    2.60
  -1  11   2   35.70    2.80
   1  11  -2   35.60    2.50
   1  11  -2   33.60    2.40
   0 -11   2   21.70    2.30
   0 -11  -2   18.10    2.40
   0 -11   2   22.00    2.70
   0 -11  -2   18.90    2.30
   0  11  -2   20.60    2.10
   0  11   2   17.30    1.80
   0  11   2   21.40    2.40
   0  11  -2   16.50    2.10
  -1 -11  -2    0.90    1.00
  -1 -11  -2   -0.50    1.20
   1 -11   2    0.30    1.20
   1 -11   2    0.70    1.00
   1  11   2    0.90    1.00
   1  11   2    0.50    1.00
  -1  11  -2   -1.90    0.80
   2 -11   2    1.40    1.40
   2 -11   2    0.30    1.10
  -2 -11  -2   -0.50    1.50
  -2  11  -2   -0.90    1.10
   2  11   2    0.40    1.30
   3 -11   2   -1.00    1.40
  -3 -11  -2    1.00    1.60
   3 -11   2    1.90    1.90
  -3  11  -2    0.20    1.40
   3  11   2    0.50    1.40
  -3 -12   2    1.60    1.60
   3 -12  -2    4.40    2.30
   3 -12  -2   -0.30    1.70
  -3  12   2   -2.10    1.40
   3  12  -2   -1.10    1.40
  -2 -12   2    1.90    1.50
   2 -12  -2   -0.20    1.20
  -2 -12   2    5.30    2.00
   2 -12  -2    1.20    1.60
  -2  12   2    0.20    1.40
   2  12  -2    3.30    1.50
  -1 -12   2    1.40    1.20
   1 -12  -2    1.90    1.30
   1 -12  -2    1.10    1.20
  -1 -12   2   -1.00    1.20
   1  12  -2    0.10    1.00
  -1  12   2    0.10    1.10
   1  12  -2   -0.40    1.00
   0 -12   2    1.70    1.40
   0 -12  -2    0.70    1.10
   0 -12   2    1.30    1.10
   0 -12  -2    1.40    1.30
   0  12   2    1.80    1.30
   0  12  -2    0.40    1.00
   1 -12   2    8.70    2.10
   1 -12   2    9.70    1.70
  -1 -12  -2   12.70    2.40
  -1  12  -2    8.30    1.80
   1  12   2   15.60    2.10
   1  12   2   14.00    2.10
  -2 -12  -2    9.10    2.20
   2 -12   2   10.60    2.00
   2 -12   2    7.20    2.20
  -2  12  -2    9.50    2.00
   2  12   2   12.40    2.30
   3 -12   2   -1.10    2.00
  -3 -12  -2    0.70    1.70
   3  12   2    0.20    1.40
  -3  12  -2    0.20    1.40
  -2 -13   2    2.90    1.80
   2 -13  -2   -0.30    1.50
   2 -13  -2    3.50    1.70
  -2 -13   2    1.50    1.50
   2  13  -2    2.40    1.50
  -2  13   2    1.10    1.50
   1 -13  -2    1.80    1.40
   1 -13  -2    0.50    1.30
  -1 -13   2    0.30    1.40
  -1 -13   2    0.60    1.30
  -1  13   2   -0.20    1.20
   1  13  -2   -0.30    1.00
   1  13  -2    1.50    1.20
   0 -13  -2    1.50    1.20
   0 -13  -2    3.20    1.50
   0 -13   2    2.70    1.50
   0 -13   2    2.00    1.30
   0  13   2    5.10    1.60
   0  13  -2    4.40    1.50
   1 -13   2   -1.40    1.30
  -1 -13  -2    0.00    1.30
   1  13   2    1.40    1.20
  -1  13  -2   -0.90    1.00
   1  13   2    0.70    1.20
   2 -13   2    0.40    1.80
  -2 -13  -2    0.30    1.40
  -2  13  -2   -1.40    1.20
   2  13   2    0.20    1.30
   2 -14  -2    1.20    1.80
   2 -14  -2    3.70    1.70
  -2 -14   2    1.80    1.60
  -2  14   2    2.20    1.70
   2  14  -2    0.70    1.30
   1 -14  -2   -1.50    1.20
  -1 -14   2    2.60    1.60
   1 -14  -2   -1.20    1.20
   1  14  -2    1.10    1.30
   1  14  -2   -2.40    1.00
  -1  14   2    0.20    1.20
   0 -14  -2    0.00    1.10
   0 -14   2    0.00    1.40
   0  14   2   -0.60    1.20
   0  14  -2    1.30    1.20
   1 -14   2    0.80    1.50
  -1 -14  -2    1.20    1.50
  -1  14  -2   -0.80    1.10
   1  14   2   -0.30    1.10
   2 -14   2    1.50    2.00
  -2 -14  -2    1.30    1.70
  -2  14  -2   -1.90    1.30
   2  14   2   -1.40    1.20
  -1 -15   2    8.30    2.30
   1 -15  -2    6.10    1.80
   1 -15  -2    7.80    2.40
   1  15  -2    6.80    1.90
  -1  15   2    4.80    2.00
   0 -15   2   -0.70    1.40
   0 -15  -2   -1.20    1.30
   0  15   2   -1.10    1.10
   0  15  -2    0.60    1.30
   1 -15   2    0.80    1.90
  -1 -15  -2    1.90    1.70
  -1  15  -2    0.50    1.50
   1  15   2    2.40    1.60
  -5   0   3   -0.90    1.80
   5   0  -3   -1.20    2.00
   4   0  -3    0.40    1.40
   4   0  -3    1.10    1.20
  -4   0   3   -0.30    1.40
   3   0  -3    0.80    0.90
  -3   0   3    1.90    1.20
   3   0  -3   -1.10    1.00
  -2   0   3   -0.30    0.70
   2   0  -3    0.40    0.60
   2   0  -3    0.20    0.70
  -2   0   3    0.30    0.40
  -1   0   3    0.20    0.30
   1   0  -3    0.40    0.50
   1   0  -3   -0.60    0.40
  -1   0   3    0.10    0.50
   0   0  -3    0.10    0.30
   0   0   3   -0.40    0.30
   0   0   3   -0.30    0.30
   0   0  -3    0.20    0.30
   1   0   3   -0.30    0.60
   1   0   3   -0.40    0.40
   1   0   3    0.20    0.50
   1   0   3   -0.60    0.50
   2   0   3   -0.40    0.60
   2   0   3   -0.10    0.80
   2   0   3    0.40    0.90
  -2   0  -3    0.10    0.80
  -3   0  -3   -0.90    0.70
   3   0   3    0.30    1.10
   3   0   3    0.70    1.20
  -3   0  -3    0.50    1.20
   4   0   3   -0.60    1.50
  -4   0  -3   -1.20    1.30
   4   0   3   -0.80    1.10
   5  -1  -3   -1.80    1.60
  -5  -1   3   -1.40    1.80
  -5   1   3    0.90    1.90
   5   1  -3   -0.40    2.10
  -4  -1   3    2.70    1.80
   4  -1  -3    5.40    1.70
   4   1  -3    4.20    1.80
  -4   1   3    0.90    1.50
   4   1  -3    5.70    1.60
   3  -1  -3   11.60    1.90
  -3  -1   3   10.80    2.00
   3  -1  -3   12.10    1.60
   3   1  -3    9.60    1.70
   3   1  -3   10.10    1.80
  -3   1   3    9.90    1.90
  -2  -1   3    4.40    1.10
   2  -1  -3    6.30    1.00
   2  -1  -3    4.90    1.10
  -2   1   3    3.90    1.10
  -2   1   3    5.60    0.80
   2   1  -3    4.70    1.00
   2   1  -3    4.90    1.00
  -1  -1   3  344.27    4.10
   1  -1  -3  327.57    5.30
  -1  -1   3  335.97    5.70
   1  -1  -3  341.87    4.70
   1   1  -3  341.47    5.20
   1   1  -3  346.77    5.20
  -1   1   3  341.77    4.70
  -1   1   3  335.17    5.70
   0  -1  -3    1.60    0.50
   0  -1   3    0.70    0.40
   0  -1   3    0.70    0.40
   0   1   3    0.80    0.40
   0   1   3    0.90    0.40
   0   1   3    1.70    0.30
   0   1  -3    0.80    0.40
  -1  -1  -3   29.20    1.40
  -1  -1  -3   26.10    1.10
   1  -1   3   27.30    1.30
   1  -1   3   25.80    1.30
   1  -1   3   26.30    1.30
   1  -1   3   24.40    1.30
   1   1   3   23.40    1.30
   1   1   3   29.50    1.20
   2  -1   3  213.08    4.60
  -2  -1  -3  219.38    4.80
   2  -1   3  209.98    4.30
   2  -1   3  218.68    4.90
   2  -1   3  213.38    5.10
   2   1   3  212.38    5.00
   2   1   3  218.78    4.90
   2   1   3  212.08    4.00
   3  -1   3   27.80    2.20
   3  -1   3   24.60    2.60
  -3  -1  -3   29.40    2.80
   3   1   3   32.40    2.60
   3   1   3   31.40    2.50
  -3   1  -3   27.10    2.60
  -3   1  -3   35.10    2.10
   3   1   3   30.70    1.80
   4  -1   3   -1.10    1.30
  -4  -1  -3   -0.20    1.30
   4  -1   3   -0.10    1.30
   4   1   3    0.00    1.30
  -4   1  -3    1.00    1.40
   4   1   3   -0.80    1.30
   4  -2  -3   17.50    2.70
  -4  -2   3   17.80    2.70
   4   2  -3   20.80    2.60
   4   2  -3   18.60    2.80
  -4   2   3   12.30    2.50
   3  -2  -3   31.10    1.90
   3  -2  -3   28.00    2.70
  -3  -2   3   34.70    2.90
   3   2  -3   37.70    2.70
   3   2  -3   35.10    2.40
  -3   2   3   36.30    1.90
  -3   2   3   36.10    2.90
  -2  -2   3  125.89    3.90
   2  -2  -3  126.89    2.80
   2  -2  -3  126.69    3.70
   2   2  -3  123.89    3.50
   2   2  -3  122.79    3.60
  -2   2   3  124.09    2.90
  -2   2   3  124.09    3.90
   1  -2  -3    1.70    0.40
  -1  -2   3    1.30    0.70
   1  -2  -3    1.10    0.60
  -1  -2   3    1.20    0.30
  -1   2   3    1.00    0.60
  -1   2   3    0.90    0.50
   1   2  -3    1.30    0.60
   1   2  -3    1.20    0.60
   0  -2   3   60.59    1.60
   0  -2  -3   58.29    1.80
   0  -2   3   58.09    1.80
   0   2  -3   59.99    1.70
   0   2   3   60.39    1.70
   0   2   3   55.59    1.50
   1  -2   3    0.40    0.50
  -1  -2  -3    0.80    0.70
   1  -2   3    0.40    0.50
   1  -2   3    1.10    0.60
  -1  -2  -3    0.50    0.40
   1  -2   3    0.40    0.50
   1   2   3    0.10    0.40
   1   2   3    0.80    0.60
   2  -2   3    3.20    0.90
   2  -2   3    6.30    1.20
   2  -2   3    3.50    1.10
  -2  -2  -3    3.20    1.00
   2  -2   3    4.60    1.10
   2   2   3    5.10    0.80
   2   2   3    3.30    1.10
   2   2   3    3.00    1.00
   3  -2   3    1.80    1.40
  -3  -2  -3    1.00    1.20
   3  -2   3    3.10    1.10
   3   2   3    2.30    1.30
  -3   2  -3    2.10    1.30
   3   2   3   -0.60    1.00
  -3   2  -3    1.00    1.00
   4  -2   3    1.10    1.70
  -4  -2  -3    1.00    1.70
   4   2   3    3.80    1.70
  -4   2  -3    1.10    1.50
   4   2   3    2.20    1.50
  -4  -3   3    4.50    1.80
   4  -3  -3    3.50    1.70
   4   3  -3    5.70    1.80
   4   3  -3    7.00    2.20
  -4   3   3    4.90    1.80
  -3  -3   3   72.89    3.80
   3  -3  -3   76.49    3.70
   3  -3  -3   70.29    2.40
   3   3  -3   75.29    3.60
  -3   3   3   73.89    2.70
  -3   3   3   68.49    3.70
   3   3  -3   80.49    3.60
  -2  -3   3  228.88    5.60
   2  -3  -3  233.48    3.70
   2  -3  -3  232.48    5.40
   2   3  -3  228.88    5.10
  -2   3   3  234.38    5.70
  -2   3   3  236.88    4.50
   2   3  -3  247.38    5.40
   1  -3  -3   71.89    2.30
  -1  -3   3   71.89    2.50
   1  -3  -3   70.99    1.30
   1   3  -3   68.49    1.50
   1   3  -3   72.19    2.00
  -1   3   3   73.39    2.20
   1   3  -3   72.79    2.30
   0  -3  -3  114.79    2.10
   0  -3   3  115.79    2.90
   0  -3   3  115.59    2.50
   0  -3  -3  110.79    2.70
   0   3   3  113.79    2.60
   0   3  -3  115.79    2.50
   0   3   3  113.29    2.30
  -1  -3  -3   64.39    2.30
  -1  -3  -3   64.99    1.60
   1  -3   3   62.09    2.30
   1  -3   3   65.49    1.90
   1  -3   3   62.49    2.10
   1   3   3   64.29    2.30
  -1   3  -3   64.59    1.80
   1   3   3   64.19    1.90
  -2  -3  -3    6.90    1.20
   2  -3   3    8.50    1.30
   2  -3   3    7.50    1.40
  -2  -3  -3    7.00    1.40
   2  -3   3    8.50    1.10
   2   3   3    9.20    1.00
  -2   3  -3    8.30    1.20
   2   3   3    8.10    1.40
  -3  -3  -3    7.00    1.70
   3  -3   3    8.30    1.40
   3  -3   3    8.30    1.80
   3  -3   3    8.30    1.80
  -3  -3  -3    8.50    1.70
   3   3   3    7.60    1.70
  -3   3  -3    8.90    1.50
  -4  -3  -3   -1.20    1.40
  -4  -3  -3    1.00    1.40
   4  -3   3    0.70    1.60
   4   3   3    0.70    1.40
  -4   3  -3   -0.40    1.30
  -4  -4   3    3.90    2.00
   4  -4  -3    4.90    1.90
   4   4  -3    1.80    1.80
   4   4  -3    4.00    1.70
  -4   4   3    5.00    1.80
  -3  -4   3    3.00    1.60
   3  -4  -3    2.30    1.40
   3   4  -3   -1.20    1.10
  -3   4   3    3.40    1.40
   3   4  -3    0.90    1.20
  -3   4   3   -0.60    1.00
  -2  -4   3  139.19    4.30
   2  -4  -3  143.99    4.30
  -2   4   3  144.99    3.70
   2   4  -3  138.29    3.90
  -2   4   3  139.09    4.30
   2   4  -3  141.09    4.10
  -1  -4   3    0.50    0.70
  -1  -4   3    0.10    0.50
   1  -4  -3    0.10    0.60
   1  -4  -3    0.40    0.60
   1   4  -3   -0.60    0.50
  -1   4   3    0.20    0.60
   1   4  -3    0.20    0.30
   0  -4  -3  760.62   10.50
   0  -4  -3  769.82    9.90
   0  -4   3  770.62   11.10
   0  -4   3  775.62    9.20
   0   4   3  763.62    9.60
   0   4  -3  763.82    9.80
   0   4   3  760.42   10.00
   0   4  -3  778.22    9.90
   1  -4   3   14.30    1.00
   1  -4   3   15.20    1.40
  -1  -4  -3   13.90    1.50
  -1  -4  -3   13.90    0.90
   1   4   3   13.80    1.40
  -1   4  -3   15.40    1.00
  -1   4  -3   12.70    1.30
   1   4   3   15.10    1.10
  -2  -4  -3   11.90    1.40
   2  -4   3   12.60    1.50
  -2  -4  -3   14.90    2.00
   2  -4   3    8.40    1.50
   2   4   3   11.80    1.10
  -2   4  -3   14.20    1.60
  -2   4  -3   13.00    1.10
   2   4   3   13.90    1.80
  -3  -4  -3    7.10    1.70
   3  -4   3   10.90    1.90
   3  -4   3    6.60    1.70
  -3  -4  -3    6.70    1.70
   3  -4   3    6.70    1.30
  -3   4  -3    9.10    1.60
   3   4   3    7.70    1.80
  -4  -4  -3   -1.00    1.10
   4  -4   3    1.60    1.70
  -4  -4  -3   -1.90    1.40
  -4   4  -3   -1.40    1.30
   4   4   3    1.00    1.30
   4  -5  -3   -0.10    1.60
  -4  -5   3    1.90    1.90
  -4   5   3   -1.50    1.30
   4   5  -3   -0.20    1.20
   4   5  -3    1.30    1.60
   3  -5  -3   10.30    1.90
  -3  -5   3    8.70    2.00
  -3   5   3   10.60    1.80
  -3   5   3    6.30    1.70
   3   5  -3    6.60    1.70
   3   5  -3    8.60    1.80
  -2  -5   3    9.00    1.70
   2  -5  -3    8.30    1.60
   2  -5  -3    8.50    1.50
  -2  -5   3    8.30    1.40
   2   5  -3    7.40    1.40
  -2   5   3    6.60    1.30
   1  -5  -3    2.80    0.80
  -1  -5   3    2.10    0.90
   1  -5  -3    1.40    0.80
  -1  -5   3    1.40    0.60
   1   5  -3    1.50    0.50
   1   5  -3    2.30    0.80
  -1   5   3    1.40    0.70
   0  -5   3   29.40    1.20
   0  -5   3   32.10    1.80
   0  -5  -3   27.80    1.70
   0  -5  -3   30.70    1.30
   0   5  -3   27.10    1.50
   0   5   3   28.70    1.50
   0   5  -3   29.60    1.40
   0   5   3   31.10    1.30
   1  -5   3   15.50    1.70
   1  -5   3   16.80    1.20
  -1  -5  -3   15.90    1.70
  -1  -5  -3   16.40    1.10
   1   5   3   17.80    1.20
  -1   5  -3   16.80    1.60
   1   5   3   17.30    1.60
  -1   5  -3   16.30    1.00
  -2  -5  -3  139.99    4.50
   2  -5   3  138.29    4.70
   2  -5   3  137.89    3.90
  -2  -5  -3  142.99    3.70
  -2   5  -3  132.69    3.10
   2   5   3  135.49    4.40
  -2   5  -3  137.79    4.10
   2   5   3  143.19    3.20
   3  -5   3   22.10    2.50
   3  -5   3   18.90    2.50
  -3  -5  -3   14.20    2.40
  -3  -5  -3   17.50    2.20
  -3   5  -3   16.10    2.10
   3   5   3   15.80    2.30
  -4  -5  -3   -1.60    1.30
   4  -5   3    1.40    1.70
   4   5   3    1.10    1.50
  -4   5  -3    0.10    1.40
   4  -6  -3    4.50    2.10
  -4  -6   3    2.60    2.10
  -4  -6   3    2.40    1.60
  -4   6   3    4.30    2.00
   4   6  -3    3.60    1.80
  -3  -6   3    4.70    1.80
  -3  -6   3    2.30    1.30
   3  -6  -3    3.60    1.50
  -3   6   3    1.40    1.30
  -3   6   3    2.30    1.30
   3   6  -3    2.50    1.30
   2  -6  -3    1.50    1.10
   2  -6  -3    0.30    1.00
  -2  -6   3    1.00    1.10
  -2  -6   3    2.20    1.00
  -2   6   3    3.20    1.10
   2   6  -3    0.30    1.00
  -1  -6   3  354.86    7.10
   1  -6  -3  357.96    6.90
   1  -6  -3  355.96    6.90
  -1  -6   3  366.56    6.10
   1   6  -3  360.46    5.70
  -1   6   3  356.06    6.60
   1   6  -3  364.36    6.80
   0  -6  -3  313.87    5.40
   0  -6  -3  311.87    6.10
   0  -6   3  307.97    6.40
   0  -6   3  307.17    5.00
   0   6   3  311.57    5.80
   0   6  -3  309.07    5.40
   0   6   3  312.67    5.20
   0   6  -3  315.57    5.60
  -1  -6  -3  197.18    3.90
  -1  -6  -3  196.48    4.90
   1  -6   3  194.58    5.20
   1  -6   3  196.28    4.10
  -1   6  -3  204.18    4.70
   1   6   3  198.18    4.60
   1   6   3  195.78    4.20
  -1   6  -3  194.28    3.60
  -2  -6  -3    6.40    1.30
   2  -6   3    6.30    1.50
  -2  -6  -3    5.40    1.50
   2  -6   3    6.00    1.30
  -2   6  -3    4.40    1.30
   2   6   3    4.30    1.00
   2   6   3    3.90    1.30
  -2   6  -3    5.10    0.80
  -3  -6  -3    5.30    1.70
   3  -6   3    3.00    1.60
   3  -6   3    2.30    1.30
  -3  -6  -3    1.50    1.30
  -3   6  -3    3.60    1.40
   3   6   3    1.80    1.30
  -4  -6  -3    5.60    1.90
   4  -6   3    5.00    2.10
  -4   6  -3    7.60    2.10
   4   6   3    4.10    1.80
  -4   6  -3    8.40    2.20
  -4  -7   3   12.20    2.80
  -4  -7   3   10.80    2.30
   4  -7  -3   11.10    2.70
   4   7  -3    6.00    2.00
  -4   7   3    6.70    2.20
  -3  -7   3    8.60    2.00
   3  -7  -3    7.70    1.90
  -3  -7   3    8.70    2.00
  -3   7   3    5.90    1.70
   3   7  -3    5.20    1.70
  -3   7   3   10.40    2.10
   2  -7  -3   -0.50    1.10
  -2  -7   3    0.90    1.10
  -2  -7   3    0.60    1.10
   2  -7  -3   -0.30    1.10
   2   7  -3   -0.10    0.90
  -2   7   3    1.50    1.20
   1  -7  -3    0.50    0.80
   1  -7  -3    0.60    0.90
  -1  -7   3   -0.60    0.80
  -1  -7   3    0.40    0.70
   1   7  -3   -0.50    0.50
  -1   7   3    2.00    1.00
   1   7  -3    0.70    0.80
   0  -7   3  176.78    3.80
   0  -7   3  182.68    4.90
   0  -7  -3  178.98    4.10
   0  -7  -3  174.78    4.60
   0   7  -3  176.58    4.00
   0   7   3  180.58    3.80
   0   7   3  179.68    4.40
   0   7  -3  181.38    4.30
   1  -7   3   52.99    2.80
  -1  -7  -3   53.89    2.80
  -1  -7  -3   51.49    2.00
   1  -7   3   50.19    2.10
   1   7   3   51.89    2.30
  -1   7  -3   51.19    1.80
   1   7   3   54.49    2.50
  -1   7  -3   49.99    2.50
  -2  -7  -3   39.00    2.90
   2  -7   3   41.30    2.40
  -2  -7  -3   42.30    2.40
   2  -7   3   34.20    2.80
  -2   7  -3   39.40    2.60
   2   7   3   42.20    2.70
   2   7   3   41.00    2.00
   3  -7   3   -0.90    1.00
  -3  -7  -3    0.80    1.40
   3  -7   3    2.70    1.50
   3   7   3   -0.60    1.20
  -3   7  -3    0.80    1.20
  -4  -7  -3    1.10    1.70
   4  -7   3    1.30    1.80
   4  -7   3    2.30    1.90
   4   7   3    0.50    1.40
  -4   7  -3    1.30    1.70
   4  -8  -3    3.10    2.00
  -4  -8   3   -0.20    2.00
  -4  -8   3   -0.60    1.30
   4   8  -3   -0.50    1.30
  -4   8   3   -2.50    1.50
  -3  -8   3   -0.70    1.40
  -3  -8   3   -1.70    1.00
   3  -8  -3   -0.20    1.30
   3  -8  -3   -0.80    1.20
  -3   8   3    1.50    1.40
   3   8  -3   -0.80    1.20
  -2  -8   3   39.90    3.00
   2  -8  -3   38.10    3.00
  -2  -8   3   42.60    2.70
   2  -8  -3   46.10    3.10
  -2   8   3   33.30    2.70
   2   8  -3   38.90    2.80
  -1  -8   3  137.69    4.50
   1  -8  -3  134.69    4.30
  -1  -8   3  128.59    3.70
   1  -8  -3  133.29    4.40
   1   8  -3  136.69    3.60
   1   8  -3  135.39    4.20
  -1   8   3  138.89    4.30
   0  -8  -3    1.40    1.10
   0  -8   3    0.70    0.80
   0  -8   3    1.60    1.00
   0  -8  -3    1.70    0.80
   0   8  -3    1.40    0.80
   0   8   3    1.00    0.70
   0   8   3    1.00    0.90
   0   8  -3   -0.70    0.70
   1  -8   3    0.20    0.80
   1  -8   3   -0.90    0.80
  -1  -8  -3   -0.30    0.70
  -1  -8  -3    0.40    1.10
  -1   8  -3    0.80    0.60
   1   8   3    0.30    0.80
  -1   8  -3   -1.20    0.60
   1   8   3    0.00    0.80
   2  -8   3    0.20    1.10
   2  -8   3    0.00    0.90
  -2  -8  -3    0.90    1.30
  -2  -8  -3    2.20    1.10
   2   8   3   -0.70    1.00
   2   8   3    1.70    0.90
  -2   8  -3    0.90    1.10
   3  -8   3    0.70    1.50
  -3  -8  -3   -1.60    1.30
   3  -8   3   -0.30    1.10
  -3   8  -3   -0.80    1.20
   3   8   3   -0.90    1.20
   4  -8   3   -1.80    1.60
   4  -8   3   -0.40    1.90
  -4  -8  -3    0.60    1.70
  -4   8  -3   -1.50    1.50
   4   8   3   -0.90    1.30
  -4  -9   3    0.80    2.00
  -4  -9   3   -0.20    1.60
   4  -9  -3   -1.40    2.10
  -4   9   3    1.00    1.80
  -4   9   3    1.70    2.00
   4   9  -3    0.80    1.50
  -3  -9   3    0.40    1.30
   3  -9  -3   -0.30    1.50
  -3  -9   3    1.30    1.70
   3  -9  -3   -1.00    1.40
  -3   9   3   -1.50    1.30
   3   9  -3   -1.00    1.20
  -2  -9   3   71.59    3.50
  -2  -9   3   74.49    3.90
   2  -9  -3   74.59    3.80
   2  -9  -3   70.09    3.90
  -2   9   3   65.89    3.50
   2   9  -3   66.69    3.50
   1  -9  -3   37.50    2.60
   1  -9  -3   32.60    2.60
  -1  -9   3   35.30    2.30
  -1  -9   3   36.00    2.70
  -1   9   3   36.30    2.50
   1   9  -3   34.00    2.10
   1   9  -3   31.00    2.40
   0  -9  -3   -1.10    1.00
   0  -9   3    0.70    0.90
   0  -9   3   -0.90    0.90
   0  -9  -3    0.70    0.80
   0   9  -3    1.20    0.90
   0   9  -3    0.90    0.80
   0   9   3    0.00    0.70
   0   9   3    0.10    0.90
   1  -9   3    1.70    0.90
   1  -9   3    3.10    1.40
  -1  -9  -3    4.80    1.60
  -1  -9  -3    2.30    1.00
  -1   9  -3    0.10    0.90
  -1   9  -3    3.10    0.90
   1   9   3    2.40    1.10
   1   9   3    2.50    1.10
  -2  -9  -3    1.40    1.30
   2  -9   3   -1.10    1.00
   2  -9   3    1.50    1.00
   2   9   3    0.30    0.70
   2   9   3   -1.20    0.90
  -2   9  -3    0.00    1.10
   3  -9   3    2.30    1.70
   3  -9   3    1.30    1.40
  -3  -9  -3    0.00    1.50
  -3   9  -3    4.80    1.80
   3   9   3    0.10    1.30
  -3 -10   3    0.60    1.50
   3 -10  -3    2.40    1.90
  -3 -10   3    6.70    2.20
   3 -10  -3    2.40    1.80
   3  10  -3    3.20    1.60
  -3  10   3    2.80    1.60
  -2 -10   3    2.20    1.60
   2 -10  -3    0.80    1.30
  -2 -10   3    4.40    1.50
   2 -10  -3    2.90    1.30
  -2  10   3    2.10    1.30
   2  10  -3    2.90    1.50
   1 -10  -3  103.19    4.20
  -1 -10   3   93.99    4.30
  -1 -10   3   93.99    3.60
   1 -10  -3  100.89    4.20
   1  10  -3   93.29    3.80
  -1  10   3   98.59    4.10
   1  10  -3   99.29    3.50
   0 -10   3    0.50    0.90
   0 -10  -3   -0.70    1.10
   0 -10   3    0.90    1.30
   0 -10  -3    1.50    1.00
   0  10   3   -0.70    0.80
   0  10  -3   -0.40    0.90
   0  10   3    0.60    1.10
   0  10  -3    0.20    0.90
   1 -10   3   16.40    2.40
  -1 -10  -3   14.20    2.30
   1 -10   3   18.40    1.90
  -1 -10  -3   18.30    1.90
   1  10   3   16.80    2.10
  -1  10  -3   18.70    2.40
   1  10   3   17.60    2.10
   2 -10   3    1.90    1.50
  -2 -10  -3    2.80    1.60
   2 -10   3    3.20    1.30
   2  10   3    6.20    1.80
  -2  10  -3    5.00    1.50
   3 -10   3    5.20    2.10
   3 -10   3    5.80    1.90
  -3 -10  -3    3.50    1.90
   3  10   3    1.60    1.60
  -3  10  -3    2.20    1.60
   3 -11  -3    0.30    1.90
  -3 -11   3    3.50    2.10
  -3 -11   3    0.10    1.50
   3 -11  -3    1.00    1.40
  -3  11   3    0.60    1.70
   3  11  -3    0.40    1.30
  -2 -11   3    0.00    1.40
   2 -11  -3    1.30    1.40
  -2 -11   3    2.50    1.40
   2 -11  -3    2.50    1.30
   2  11  -3    1.10    1.20
  -2  11   3   -0.20    1.20
   1 -11  -3   15.00    2.30
  -1 -11   3   18.10    2.20
   1 -11  -3   10.70    2.10
  -1 -11   3   16.60    2.50
   1  11  -3   14.40    1.90
   1  11  -3   12.80    2.00
  -1  11   3   13.20    2.10
   0 -11   3    1.60    1.00
   0 -11  -3    1.00    1.30
   0 -11   3    2.70    1.40
   0 -11  -3    1.40    1.10
   0  11   3    2.60    1.10
   0  11  -3    3.40    1.20
   0  11  -3    3.70    1.20
   0  11   3    1.00    1.10
  -1 -11  -3    4.90    1.60
   1 -11   3    5.60    1.30
   1 -11   3    6.50    1.80
  -1  11  -3    4.00    1.50
   1  11   3    2.70    1.30
   1  11   3    6.10    1.60
   2 -11   3   16.20    2.70
   2 -11   3   12.30    2.10
  -2 -11  -3   11.30    2.40
  -2  11  -3    8.40    1.90
   2  11   3   11.20    2.20
   3 -11   3   -0.50    2.00
  -3 -11  -3    4.70    2.10
   3  11   3    1.40    1.60
  -3  11  -3    3.00    1.80
  -3 -12   3    5.00    2.10
   3 -12  -3   -0.10    1.40
   3 -12  -3   -2.00    1.50
  -3 -12   3    3.10    1.80
   3  12  -3    3.30    1.80
  -3  12   3    0.80    1.80
  -2 -12   3   10.80    2.20
   2 -12  -3    7.30    2.00
  -2 -12   3    5.00    1.90
   2 -12  -3   11.00    2.20
   2  12  -3    9.20    2.10
  -2  12   3    6.60    1.90
  -1 -12   3    5.80    1.60
  -1 -12   3    8.40    2.10
   1 -12  -3    2.90    1.40
   1 -12  -3   10.90    2.10
   1  12  -3    6.70    1.50
  -1  12   3    6.50    1.80
   1  12  -3   10.00    1.90
   0 -12   3   33.00    2.40
   0 -12   3   41.00    3.30
   0 -12  -3   34.90    2.70
   0 -12  -3   31.00    3.10
   0  12  -3   34.10    2.70
   0  12   3   36.70    2.80
   1 -12   3    4.70    1.70
  -1 -12  -3    5.30    1.80
   1  12   3    4.00    1.40
  -1  12  -3    3.40    1.50
   1  12   3    6.40    1.60
  -2 -12  -3   -0.20    1.50
   2 -12   3    0.90    1.60
   2  12   3    1.40    1.40
  -2  12  -3    4.60    1.70
  -3 -12  -3    6.60    2.40
   3 -12   3    4.00    2.50
  -3  12  -3    0.20    1.50
   3  12   3    2.20    1.70
   2 -13  -3    3.30    1.70
  -2 -13   3    0.10    1.30
  -2 -13   3    3.70    1.80
   2 -13  -3    4.80    2.00
   2  13  -3    0.60    1.30
  -2  13   3    1.80    1.70
  -1 -13   3    1.20    1.40
   1 -13  -3   -0.30    1.30
   1 -13  -3    0.20    1.20
  -1  13   3    0.10    1.20
   1  13  -3    0.50    1.10
   1  13  -3    0.80    1.10
   0 -13  -3    2.10    1.50
   0 -13   3    0.40    1.20
   0  13   3    1.80    1.30
   0  13  -3    3.90    1.40
  -1 -13  -3    1.30    1.60
   1 -13   3    2.30    1.60
   1  13   3    0.30    1.30
  -1  13  -3    1.00    1.20
   1  13   3    0.60    1.20
  -2 -13  -3   -2.40    1.30
   2 -13   3   -1.80    1.40
   2  13   3    1.30    1.50
  -2  13  -3    2.40    1.50
  -2 -14   3    1.50    1.70
   2 -14  -3    1.30    1.40
   2 -14  -3   -0.60    1.60
  -2  14   3   -1.60    1.70
   2  14  -3    1.60    1.40
   1 -14  -3   22.50    3.00
  -1 -14   3   20.00    3.00
   1 -14  -3   21.70    3.00
   1  14  -3   23.50    2.80
  -1  14   3   20.40    3.00
   1  14  -3   20.60    2.60
   0 -14  -3    4.90    1.90
   0 -14   3    3.10    1.70
   0  14   3    4.00    1.60
   0  14  -3    2.90    1.50
   1 -14   3   -0.10    1.50
  -1 -14  -3    0.10    1.50
  -1  14  -3   -0.10    1.10
   1  14   3   -2.00    0.90
  -2 -14  -3   -1.60    1.50
   2 -14   3   -0.60    1.90
  -2  14  -3    0.80    1.50
   2  14   3   -0.20    1.30
  -1 -15   3    4.30    2.10
   1 -15  -3    0.40    1.40
  -1  15   3    0.40    1.40
   1  15  -3    0.30    1.30
   0 -15  -3    2.50    1.60
   0 -15   3    7.10    2.20
   0  15  -3    3.30    1.60
   0  15   3    3.80    1.70
   1 -15   3    0.00    1.70
  -1 -15  -3    0.90    1.60
   1  15   3   -0.30    1.40
  -1  15  -3   -0.50    1.30
  -5   0   4   -3.80    1.50
   5   0  -4   -3.20    1.90
   4   0  -4    7.20    1.70
   4   0  -4    4.00    1.80
  -4   0   4    2.70    1.70
   3   0  -4    2.00    1.10
   3   0  -4    0.90    1.20
  -3   0   4    0.90    1.20
   2   0  -4    7.90    1.30
  -2   0   4    8.40    0.70
   2   0  -4    8.00    1.10
  -2   0   4    7.30    1.30
   1   0  -4  159.68    3.20
   1   0  -4  157.68    3.10
  -1   0   4  158.38    2.70
  -1   0   4  153.48    3.50
   0   0  -4  939.91   10.70
   0   0   4  909.61   11.40
   0   0  -4  922.21   11.20
   0   0   4  914.11   10.80
   1   0   4  311.07    5.00
   1   0   4  318.07    5.30
   1   0   4  317.77    5.10
   2   0   4    1.80    0.90
   2   0   4    1.90    0.90
   2   0   4    2.10    0.80
   2   0   4    0.40    1.00
   3   0   4  492.25    8.10
   3   0   4  513.95    9.60
   3   0   4  497.05    9.80
  -3   0  -4  512.85   10.00
   4   0   4   21.10    2.70
   4   0   4   19.90    2.90
  -4   0  -4   26.50    3.10
  -5  -1   4   -3.20    1.70
  -5   1   4    1.60    2.10
   4  -1  -4   -1.00    1.30
  -4  -1   4   -2.40    1.20
   4   1  -4   -0.60    1.00
   4   1  -4    1.20    1.50
  -4   1   4    1.10    1.50
   3  -1  -4    2.70    1.10
  -3  -1   4    2.20    1.30
   3  -1  -4    2.50    1.30
  -3   1   4    2.50    1.40
   3   1  -4    5.50    1.40
   3   1  -4    1.10    1.20
   2  -1  -4   80.69    2.40
  -2  -1   4   80.29    3.10
   2  -1  -4   78.49    2.90
   2   1  -4   75.19    2.70
   2   1  -4   82.69    2.90
  -2   1   4   76.89    3.10
  -2   1   4   77.09    2.10
   1  -1  -4    7.30    0.90
   1  -1  -4    6.40    0.80
  -1  -1   4    5.50    0.90
  -1  -1   4    6.30    0.60
  -1   1   4    7.20    0.80
  -1   1   4    7.20    1.00
   1   1  -4    6.70    0.90
   1   1  -4    7.10    0.80
   0  -1  -4    8.80    0.90
   0  -1   4    6.70    0.80
   0  -1  -4    6.70    0.80
   0  -1   4    4.80    0.70
   0   1   4    6.80    0.60
   0   1   4    6.40    0.80
   0   1  -4    6.30    0.80
   1  -1   4   11.50    1.10
  -1  -1  -4   12.60    1.20
   1  -1   4   10.20    1.00
   1  -1   4    8.60    1.00
   1  -1   4   12.80    1.10
   1   1   4   11.60    0.90
   1   1   4   10.20    0.80
   1   1   4   10.50    1.10
   2  -1   4 1113.79   14.10
  -2  -1  -4 1104.59   15.30
   2  -1   4 1108.69   14.70
   2  -1   4 1109.69   15.10
   2  -1   4 1111.29   15.90
   2   1   4 1114.19   15.20
   2   1   4 1100.09   15.40
   2   1   4 1110.89   13.80
  -3  -1  -4    0.80    1.30
   3  -1   4    1.30    1.30
   3  -1   4    1.80    1.20
   3   1   4    3.20    1.00
   3   1   4    0.90    1.20
   3   1   4    1.50    1.40
  -3   1  -4    2.10    1.10
  -3   1  -4    0.60    1.20
   4  -1   4   10.40    2.30
   4  -1   4   13.00    2.20
  -4  -1  -4   14.20    2.40
   4   1   4   13.10    2.50
   4   1   4   11.80    2.30
  -4   1  -4   17.70    2.70
   4  -2  -4    3.20    1.80
  -4  -2   4    4.90    1.80
   4   2  -4    2.90    1.50
  -4   2   4    0.30    1.40
   4   2  -4   -0.70    1.50
  -3  -2   4    1.00    1.20
   3  -2  -4    4.00    1.40
   3  -2  -4    1.60    1.00
   3   2  -4    0.60    1.10
   3   2  -4    3.10    1.40
  -3   2   4   -0.50    1.20
  -3   2   4    0.70    0.90
   2  -2  -4   67.29    2.80
   2  -2  -4   63.29    2.00
  -2  -2   4   66.89    2.90
   2   2  -4   64.29    2.60
  -2   2   4   61.99    2.10
  -2   2   4   65.59    2.90
   2   2  -4   60.59    2.50
   1  -2  -4   25.00    1.00
  -1  -2   4   24.80    1.60
   1  -2  -4   23.10    1.40
  -1  -2   4   23.50    0.90
   1   2  -4   24.90    1.20
  -1   2   4   25.50    1.40
  -1   2   4   25.80    1.30
   1   2  -4   22.30    1.30
   0  -2   4  198.08    3.50
   0  -2   4  196.08    3.80
   0  -2  -4  198.58    3.70
   0   2  -4  198.58    3.60
   0   2   4  200.28    2.80
   0   2   4  198.98    3.50
   0   2   4  201.78    3.50
   1  -2   4   36.10    1.70
  -1  -2  -4   37.00    1.10
   1  -2   4   34.90    1.60
   1  -2   4   35.90    1.40
  -1  -2  -4   36.00    1.70
   1   2   4   41.90    1.80
   1   2   4   35.80    1.50
  -1   2  -4   35.50    1.50
   2  -2   4  114.39    3.30
   2  -2   4  112.99    3.30
   2  -2   4  118.59    3.80
  -2  -2  -4  120.59    3.30
   2  -2   4  114.89    3.40
  -2  -2  -4  120.39    3.70
   2   2   4  113.39    2.90
   2   2   4  114.99    3.70
   3  -2   4    4.80    1.40
   3  -2   4    4.80    1.50
  -3  -2  -4    4.30    1.50
  -3   2  -4    6.40    1.40
  -3   2  -4    6.30    1.50
   3   2   4    4.50    1.50
   3   2   4    3.80    1.50
  -4  -2  -4    3.00    1.80
   4  -2   4    4.40    2.00
  -4  -2  -4    1.80    1.50
   4   2   4    0.70    1.30
  -4   2  -4    3.00    1.60
  -4  -3   4    1.30    1.80
   4  -3  -4    2.10    1.70
  -4   3   4    3.00    1.70
   4   3  -4   -2.20    1.30
   4   3  -4    3.10    1.50
   3  -3  -4   38.00    2.90
  -3  -3   4   42.40    3.20
   3   3  -4   36.60    2.60
  -3   3   4   41.10    3.10
   3   3  -4   43.20    2.90
  -3   3   4   39.20    2.20
  -2  -3   4   22.00    2.10
   2  -3  -4   22.40    2.20
   2  -3  -4   20.20    1.10
   2   3  -4   22.40    1.80
  -2   3   4   18.00    1.50
   2   3  -4   20.90    1.70
  -2   3   4   18.30    1.90
  -1  -3   4   21.70    0.90
  -1  -3   4   16.40    1.50
   1  -3  -4   22.80    1.50
   1  -3  -4   23.30    0.90
  -1   3   4   21.80    1.40
   1   3  -4   21.20    1.40
  -1   3   4   21.60    1.30
   1   3  -4   22.10    1.20
   0  -3   4    0.50    0.60
   0  -3  -4    0.90    0.60
   0  -3  -4    0.90    0.30
   0  -3   4    0.10    0.50
   0   3   4    0.50    0.50
   0   3   4    1.00    0.50
   0   3  -4    0.60    0.60
   1  -3   4  387.76    6.30
  -1  -3  -4  377.86    5.20
  -1  -3  -4  382.76    6.50
   1  -3   4  387.66    5.60
   1  -3   4  374.26    6.80
   1   3   4  391.16    5.90
   1   3   4  387.56    6.50
  -1   3  -4  385.06    5.90
   2  -3   4   12.20    1.60
  -2  -3  -4   12.30    1.70
   2  -3   4   14.50    1.60
  -2  -3  -4   10.90    1.30
   2  -3   4   10.50    1.60
   2  -3   4   12.30    1.40
   2   3   4   12.70    1.30
   2   3   4   11.20    1.60
  -3  -3  -4   13.50    2.00
  -3  -3  -4   13.70    2.20
   3  -3   4   17.20    2.00
   3  -3   4   13.30    2.10
   3  -3   4   13.40    2.00
  -3   3  -4   13.70    1.80
   3   3   4   13.60    2.10
   4  -3   4   -1.80    1.30
  -4  -3  -4    1.60    1.50
  -4   3  -4   -0.70    1.30
   4   3   4    0.50    1.30
  -4  -4   4    5.70    2.20
   4  -4  -4    3.20    1.90
   4   4  -4    2.80    1.90
   4   4  -4    5.60    1.80
  -4   4   4    3.40    1.90
   3  -4  -4    2.40    1.40
  -3  -4   4   -0.70    1.40
   3   4  -4    1.80    1.30
  -3   4   4    0.50    1.20
   3   4  -4    0.80    1.10
  -3   4   4    2.10    1.20
  -2  -4   4   91.79    3.60
   2  -4  -4   98.99    3.50
   2  -4  -4   93.29    1.90
   2   4  -4   76.89    3.20
  -2   4   4   91.49    3.00
  -2   4   4   96.89    3.60
   2   4  -4   92.79    3.20
  -1  -4   4   78.39    2.10
   1  -4  -4   77.39    2.70
   1  -4  -4   80.69    1.60
  -1  -4   4   76.89    2.80
   1  -4  -4   81.39    2.60
   1   4  -4   78.29    2.60
   1   4  -4   78.99    1.90
  -1   4   4   80.89    2.60
   0  -4   4    4.60    0.90
   0  -4  -4    5.60    0.60
   0  -4   4    3.30    0.80
   0  -4  -4    6.80    1.10
   0   4   4    6.60    0.80
   0   4  -4    4.80    0.80
   0   4   4    5.20    0.90
   1  -4   4   84.59    3.00
   1  -4   4   83.09    2.70
  -1  -4  -4   82.39    1.80
  -1  -4  -4   80.89    2.80
   1  -4   4   86.39    2.20
  -1   4  -4   86.29    2.30
   1   4   4   84.19    2.40
  -1   4  -4   83.09    2.70
   1   4   4   77.69    2.70
  -2  -4  -4   14.70    1.90
  -2  -4  -4   16.20    1.50
   2  -4   4   16.50    1.70
   2  -4   4   16.10    2.00
  -2   4  -4   17.70    1.90
   2   4   4   15.20    1.40
  -2   4  -4   15.80    1.50
   2   4   4   17.10    2.00
  -3  -4  -4   13.40    2.20
   3  -4   4   12.60    2.00
   3  -4   4   15.20    1.80
   3  -4   4   18.80    2.50
  -3  -4  -4   13.20    1.90
   3   4   4   11.50    2.00
  -3   4  -4   16.70    2.00
   4  -4   4    0.50    1.50
  -4  -4  -4    1.20    1.40
   4   4   4   -1.50    1.30
  -4   4  -4    0.70    1.50
   4  -5  -4    0.10    1.60
  -4  -5   4   -1.20    1.60
   4   5  -4    0.00    1.20
   4   5  -4    0.00    1.60
  -4   5   4    2.60    1.70
   3  -5  -4    0.80    1.20
  -3  -5   4   -1.10    1.20
  -3   5   4   -0.60    1.10
  -3   5   4    0.60    1.20
   3   5  -4   -0.20    1.00
   3   5  -4   -0.40    1.00
   2  -5  -4    9.90    1.70
  -2  -5   4   11.00    1.80
   2   5  -4   12.40    1.70
  -2   5   4    7.90    1.50
   2   5  -4    9.90    1.60
  -2   5   4   10.40    1.50
   1  -5  -4   15.50    0.70
  -1  -5   4   14.40    1.10
   1  -5  -4   14.90    1.70
   1  -5  -4   13.60    1.40
  -1  -5   4   18.10    1.70
   1   5  -4   17.10    1.70
   1   5  -4   14.80    1.00
  -1   5   4   17.70    1.70
   0  -5   4   67.29    1.60
   0  -5   4   64.89    2.60
   0  -5  -4   65.39    1.80
   0  -5  -4   69.39    2.60
   0   5  -4   67.89    2.30
   0   5  -4   66.09    2.20
   0   5   4   69.59    2.10
   0   5   4   64.49    2.40
  -1  -5  -4  101.49    3.30
   1  -5   4  101.09    2.50
  -1  -5  -4   97.79    2.20
   1  -5   4  100.79    3.50
  -1   5  -4  101.99    3.20
  -1   5  -4  104.89    2.60
   1   5   4  103.29    3.20
   1   5   4  104.39    2.90
   2  -5   4   65.99    3.30
  -2  -5  -4   69.49    2.60
   2  -5   4   67.09    2.70
  -2  -5  -4   74.49    3.50
  -2   5  -4   75.49    2.50
  -2   5  -4   75.39    3.10
   2   5   4   69.69    2.40
   2   5   4   70.79    3.30
   3  -5   4   -1.60    1.00
   3  -5   4    1.50    1.30
  -3  -5  -4   -0.30    1.10
  -3  -5  -4   -1.40    1.00
  -3   5  -4   -1.00    1.00
   3   5   4   -2.40    1.00
   4  -5   4   -0.50    1.40
  -4  -5  -4    4.30    1.80
  -4   5  -4    0.40    1.40
   4   5   4    2.60    1.60
  -4  -6   4    0.20    1.30
  -4  -6   4    1.10    1.80
   4  -6  -4   -0.50    1.60
  -4   6   4   -0.80    1.50
   4   6  -4    3.10    1.50
  -3  -6   4    5.00    1.80
  -3  -6   4    6.10    1.50
   3  -6  -4    3.40    1.50
   3   6  -4    3.30    1.40
  -3   6   4    4.90    1.50
  -3   6   4    4.50    1.70
   2  -6  -4   19.60    2.30
   2  -6  -4   16.90    2.10
  -2  -6   4   18.50    1.90
  -2  -6   4   19.10    2.30
  -2   6   4   19.30    2.00
   2   6  -4   20.20    2.20
   1  -6  -4   78.79    3.10
  -1  -6   4   75.79    3.10
  -1  -6   4   76.59    2.40
   1  -6  -4   76.99    2.80
   1   6  -4   80.39    3.00
  -1   6   4   75.29    2.90
   1   6  -4   72.69    2.20
   0  -6  -4    0.10    0.80
   0  -6  -4   -0.30    0.40
   0  -6   4   -0.40    0.60
   0  -6   4    0.80    0.50
   0   6  -4    0.20    0.60
   0   6   4    1.50    0.80
   0   6  -4   -0.10    0.60
   0   6   4    0.30    0.60
   1  -6   4    0.00    0.70
  -1  -6  -4    0.70    1.00
   1  -6   4    0.00    0.60
  -1  -6  -4    0.70    0.50
  -1   6  -4    1.10    0.60
   1   6   4    0.50    0.70
  -1   6  -4    0.40    0.70
   1   6   4    0.10    0.60
  -2  -6  -4   28.20    2.80
  -2  -6  -4   25.90    1.80
   2  -6   4   20.50    2.40
   2  -6   4   24.40    1.90
   2   6   4   25.10    1.70
   2   6   4   23.40    2.50
  -2   6  -4   25.80    2.20
  -2   6  -4   23.80    1.50
   3  -6   4    4.30    1.40
   3  -6   4    4.60    1.80
  -3  -6  -4    7.50    2.00
   3   6   4    2.50    1.50
  -3   6  -4    5.80    1.60
  -4  -6  -4   -1.50    1.40
   4  -6   4    1.10    1.70
   4  -6   4    0.90    1.80
   4   6   4    0.10    1.40
  -4   6  -4    1.00    1.40
  -4   6  -4   -1.60    1.40
   4  -7  -4    0.90    1.80
  -4  -7   4    1.60    1.50
  -4  -7   4    2.30    2.20
  -4   7   4    0.80    1.80
   4   7  -4    2.40    1.60
   3  -7  -4   20.10    2.80
  -3  -7   4   22.40    3.00
  -3  -7   4   23.80    2.70
   3   7  -4   21.60    2.60
  -3   7   4   22.90    2.90
  -3   7   4   22.40    2.50
   2  -7  -4   10.60    1.90
   2  -7  -4   11.50    1.90
  -2  -7   4   10.10    1.60
  -2  -7   4   11.80    2.00
   2   7  -4    9.30    1.80
  -2   7   4    9.10    1.70
   1  -7  -4    7.30    1.50
   1  -7  -4    8.50    1.30
  -1  -7   4   10.60    1.60
  -1  -7   4   11.20    1.30
   1   7  -4    9.30    1.50
   1   7  -4   10.80    1.30
  -1   7   4    7.40    1.40
   0  -7   4   63.39    2.90
   0  -7   4   60.69    2.00
   0  -7  -4   60.09    2.20
   0  -7  -4   56.59    2.80
   0   7   4   61.19    2.60
   0   7   4   60.59    2.20
   0   7  -4   63.49    2.50
   0   7  -4   61.69    2.40
   1  -7   4   23.90    2.20
  -1  -7  -4   20.80    1.30
   1  -7   4   24.20    1.50
  -1  -7  -4   24.30    2.40
   1   7   4   19.90    1.70
   1   7   4   24.30    1.90
  -1   7  -4   25.20    2.00
  -1   7  -4   22.80    1.50
   2  -7   4    2.50    1.10
   2  -7   4    1.10    1.10
  -2  -7  -4    2.90    1.50
   2   7   4    2.90    1.40
   2   7   4    1.70    0.80
  -2   7  -4    1.60    1.10
   3  -7   4   -1.10    1.00
   3  -7   4    1.10    1.40
  -3  -7  -4    0.20    1.40
  -3   7  -4   -0.60    1.20
   3   7   4    0.10    1.30
   4  -7   4   -0.50    1.80
  -4  -7  -4   -0.20    1.60
   4  -7   4   -2.40    1.40
  -4   7  -4   -0.20    1.60
   4   7   4    0.60    1.50
   4  -8  -4   18.70    3.40
  -4  -8   4   16.20    2.80
  -4  -8   4   15.20    3.10
  -4   8   4   18.90    3.50
   4   8  -4   20.40    3.00
  -3  -8   4    0.00    1.10
   3  -8  -4   -0.60    1.30
  -3  -8   4    0.10    1.40
   3   8  -4    0.80    1.20
  -3   8   4   -1.50    1.20
  -3   8   4    0.10    1.20
   2  -8  -4  111.09    4.60
  -2  -8   4  103.39    3.80
  -2  -8   4  104.09    4.50
   2  -8  -4  107.59    4.40
  -2   8   4  110.99    4.20
   2   8  -4  108.99    4.30
   1  -8  -4  133.29    4.20
  -1  -8   4  132.79    4.60
  -1  -8   4  132.89    3.60
   1  -8  -4  127.79    4.40
  -1   8   4  127.79    4.30
   1   8  -4  138.09    4.30
   1   8  -4  133.99    3.60
   0  -8  -4    2.80    1.40
   0  -8  -4    5.60    1.10
   0  -8   4    5.00    1.00
   0  -8   4    5.60    1.40
   0   8  -4    4.90    1.20
   0   8  -4    5.00    1.10
   0   8   4    3.80    0.90
   0   8   4    3.40    1.10
  -1  -8  -4    1.90    1.30
   1  -8   4    1.80    1.20
  -1  -8  -4    1.40    0.80
   1  -8   4    3.30    0.90
   1   8   4    1.20    1.00
  -1   8  -4    1.30    1.00
  -1   8  -4    2.40    0.90
   1   8   4    2.80    1.10
   2  -8   4    0.90    1.20
  -2  -8  -4    0.90    1.30
   2  -8   4    1.70    1.00
   2   8   4    0.40    1.20
  -2   8  -4    0.00    1.00
   2   8   4    1.10    0.90
  -3  -8  -4   -1.80    1.10
   3  -8   4   -0.20    1.30
   3  -8   4   -0.30    1.00
  -3   8  -4   -0.40    1.20
   3   8   4    0.20    1.30
   4  -8   4    2.00    1.70
   4  -8   4   -2.30    1.90
  -4  -8  -4   -0.70    1.60
  -4   8  -4   -1.10    1.60
   4   8   4   -1.20    1.40
  -4  -9   4   -0.60    1.40
  -4  -9   4   -1.10    1.90
   4  -9  -4   -1.30    1.90
   4   9  -4    1.90    1.60
  -4   9   4    1.10    2.00
   3  -9  -4   58.79    4.10
  -3  -9   4   59.09    3.70
   3  -9  -4   51.49    3.70
  -3  -9   4   59.79    4.20
  -3   9   4   55.99    3.70
   3   9  -4   51.69    3.60
  -3   9   4   64.99    4.10
  -2  -9   4   19.30    2.60
  -2  -9   4   19.90    2.40
   2  -9  -4   20.80    2.60
   2  -9  -4   19.40    2.50
   2   9  -4   21.20    2.60
  -2   9   4   21.60    2.60
  -1  -9   4  378.26    8.60
   1  -9  -4  364.26    8.20
  -1  -9   4  369.96    6.90
   1  -9  -4  369.56    8.00
  -1   9   4  378.46    8.10
   1   9  -4  387.46    8.00
   1   9  -4  379.16    7.00
   0  -9  -4   57.89    3.20
   0  -9  -4   53.19    2.50
   0  -9   4   55.99    3.30
   0  -9   4   53.19    2.30
   0   9   4   59.49    3.00
   0   9  -4   52.99    2.50
   0   9  -4   57.49    2.80
   0   9   4   56.19    2.40
  -1  -9  -4    0.50    0.80
   1  -9   4   -0.10    1.10
   1  -9   4    0.00    0.80
  -1  -9  -4    0.60    1.30
   1   9   4   -0.60    0.90
  -1   9  -4   -1.80    0.70
   1   9   4   -0.40    0.90
  -1   9  -4   -0.90    0.70
   2  -9   4    0.20    1.20
   2  -9   4    0.20    1.00
  -2  -9  -4   -0.80    1.20
   2   9   4    0.10    1.10
   2   9   4    0.80    0.80
  -2   9  -4    0.00    1.00
   3  -9   4    0.40    1.60
  -3  -9  -4    3.50    1.90
   3  -9   4    2.20    1.20
   3   9   4   -1.60    1.30
  -3   9  -4   -0.30    1.20
   3 -10  -4    0.40    1.50
  -3 -10   4    1.60    1.70
  -3 -10   4    1.20    1.60
   3 -10  -4    2.60    1.70
  -3  10   4    1.30    1.80
   3  10  -4    4.40    1.70
   2 -10  -4   39.90    3.10
  -2 -10   4   45.90    3.40
   2 -10  -4   39.50    3.20
  -2 -10   4   41.00    2.80
   2  10  -4   35.30    2.90
  -2  10   4   37.20    3.10
   1 -10  -4    5.20    1.70
  -1 -10   4    5.50    1.40
   1 -10  -4    5.70    1.50
  -1 -10   4    7.10    1.80
   1  10  -4    5.50    1.30
   1  10  -4    6.60    1.60
  -1  10   4    3.90    1.50
   0 -10   4   74.09    2.90
   0 -10  -4   81.19    3.90
   0 -10  -4   83.19    3.30
   0 -10   4   81.09    3.90
   0  10  -4   79.29    3.20
   0  10  -4   83.39    3.60
   0  10   4   82.29    3.00
   0  10   4   86.59    3.70
   1 -10   4   19.20    2.60
   1 -10   4   16.30    1.80
  -1 -10  -4   16.40    2.30
   1  10   4   15.50    2.00
   1  10   4   17.00    2.10
  -1  10  -4   15.20    2.20
  -2 -10  -4    0.60    1.30
   2 -10   4    1.00    1.40
   2  10   4   -0.10    0.90
  -2  10  -4    0.20    1.10
   2  10   4   -1.20    1.10
  -3 -10  -4   -0.60    1.30
   3 -10   4   -1.10    1.50
  -3  10  -4    0.50    1.50
   3  10   4   -1.90    1.20
   3 -11  -4    3.90    2.00
   3 -11  -4    2.10    1.60
  -3 -11   4    1.90    1.60
  -3 -11   4    1.00    1.70
   3  11  -4    0.70    1.40
  -3  11   4    0.90    2.00
   2 -11  -4    0.40    1.30
  -2 -11   4   -0.40    1.40
  -2 -11   4    0.30    1.20
   2 -11  -4    2.10    1.40
   2  11  -4   -0.20    1.10
  -2  11   4    0.50    1.40
  -1 -11   4   24.00    2.40
  -1 -11   4   22.80    2.80
   1 -11  -4   26.90    3.00
   1 -11  -4   24.00    2.70
   1  11  -4   24.60    2.60
  -1  11   4   17.70    2.50
   1  11  -4   24.70    2.30
   0 -11  -4   21.90    2.10
   0 -11   4   23.60    2.90
   0 -11  -4   20.60    2.60
   0  11   4   21.90    2.40
   0  11  -4   22.10    2.30
   0  11  -4   20.70    2.40
   1 -11   4   25.00    3.10
  -1 -11  -4   19.50    2.70
  -1  11  -4   20.70    2.60
   1  11   4   26.70    2.70
   1  11   4   21.60    2.40
  -2 -11  -4    1.60    1.50
   2 -11   4    0.90    1.50
  -2  11  -4    2.00    1.30
   2  11   4    3.20    1.60
  -3 -11  -4   -0.20    1.50
   3 -11   4    1.60    2.10
  -3  11  -4   -0.50    1.60
   3  11   4   -0.90    1.40
  -3 -12   4   -0.20    1.40
  -3 -12   4   -0.10    1.60
   3 -12  -4   -1.70    1.40
   3 -12  -4   -2.80    1.50
  -3  12   4   -1.90    1.80
   3  12  -4   -0.40    1.20
  -2 -12   4    5.40    1.80
   2 -12  -4    6.10    2.00
  -2 -12   4    5.20    1.60
   2 -12  -4    2.30    1.50
   2  12  -4    3.10    1.60
  -2  12   4    2.10    1.80
  -1 -12   4    0.70    1.40
   1 -12  -4   -2.10    1.10
   1 -12  -4    1.90    1.40
   1  12  -4    0.00    1.00
  -1  12   4   -1.60    1.00
   1  12  -4   -1.50    0.80
   0 -12   4    0.40    1.20
   0 -12  -4    0.50    1.30
   0  12  -4    0.90    1.00
   0  12  -4    3.80    1.40
   0  12   4    0.30    1.10
  -1 -12  -4    1.70    1.50
   1 -12   4    1.60    1.40
   1  12   4   -0.60    1.00
   1  12   4   -0.70    1.00
  -1  12  -4   -1.00    1.00
   2 -12   4    1.00    1.70
  -2 -12  -4    4.40    1.80
  -2  12  -4    1.80    1.50
   2  12   4    3.40    1.60
   3 -12   4    3.40    2.40
  -3 -12  -4    6.50    2.30
   3  12   4    0.00    1.60
  -3  12  -4    3.00    2.00
   2 -13  -4    0.00    1.40
   2 -13  -4    2.50    1.60
  -2 -13   4   -1.10    1.40
  -2  13   4    2.20    1.90
   2  13  -4   -0.80    1.10
   1 -13  -4    3.60    1.70
  -1 -13   4    0.80    1.50
   1 -13  -4    1.00    1.30
   1  13  -4    0.70    1.20
  -1  13   4    3.90    1.60
   1  13  -4    1.40    1.10
   0 -13  -4   -1.70    1.30
   0 -13   4    1.70    1.60
   0  13  -4    1.10    1.20
   0  13   4    0.00    1.30
  -1 -13  -4   -0.10    1.50
   1 -13   4    2.90    1.60
   1  13   4    1.10    1.30
  -1  13  -4   -0.60    1.10
   1  13   4    0.80    1.20
  -2 -13  -4   -0.30    1.60
   2 -13   4    0.60    1.70
   2  13   4    2.70    1.60
  -2  13  -4    0.60    1.50
  -2 -14   4    0.50    1.80
   2 -14  -4    1.00    1.70
   2 -14  -4    1.70    1.60
   2  14  -4    2.10    1.60
  -2  14   4   -0.70    1.80
   1 -14  -4   -0.60    1.30
  -1 -14   4   -0.50    1.50
   1  14  -4    0.30    1.20
  -1  14   4    0.50    1.40
   1  14  -4    1.30    1.30
   0 -14  -4    1.00    1.50
   0 -14   4    1.80    1.60
   0  14  -4   -1.20    1.10
   0  14   4    0.70    1.30
   1 -14   4    1.60    1.90
  -1 -14  -4    0.40    1.50
   1  14   4   -1.10    1.10
  -1  14  -4    0.20    1.30
  -2 -14  -4    0.50    1.80
   2 -14   4   -0.40    2.00
  -2  14  -4    1.40    1.50
   2  14   4    1.10    1.50
   1 -15  -4   -0.60    1.40
  -1 -15   4   -0.50    1.60
  -1  15   4    0.30    1.60
   0 -15   4    3.80    2.10
   0 -15  -4    1.60    1.50
   0  15  -4   -0.10    1.40
   0  15   4    4.10    1.80
   1 -15   4   10.40    2.90
  -1 -15  -4    3.70    1.90
   1  15   4    4.40    1.70
  -1  15  -4    7.50    2.00
  -4   0   5    1.30    1.60
   4   0  -5   -2.00    1.00
   4   0  -5   -0.50    1.30
   3   0  -5    0.00    1.00
   3   0  -5   -0.40    1.00
  -3   0   5    0.20    1.20
   2   0  -5    0.10    0.70
   2   0  -5   -0.60    0.60
  -2   0   5    0.30    0.40
  -2   0   5    0.40    0.90
   1   0  -5   -0.20    0.50
   1   0  -5   -0.50    0.50
  -1   0   5   -0.70    0.40
  -1   0   5   -0.20    0.50
   0   0   5   -0.20    0.40
   0   0  -5    0.20    0.40
   0   0  -5    0.20    0.50
   0   0   5   -0.70    0.40
  -1   0  -5    0.30    0.50
   1   0   5    0.20    0.60
   1   0   5   -0.60    0.40
   1   0   5    0.10    0.40
   2   0   5   -0.10    0.90
   2   0   5   -1.10    0.60
   2   0   5    0.30    0.80
   2   0   5    0.20    0.70
  -3   0  -5    0.80    1.20
   3   0   5    1.00    1.00
   3   0   5    2.00    1.40
   3   0   5   -0.20    1.20
   4   0   5    2.90    1.70
   4   0   5    1.70    1.60
  -4   0  -5   -3.40    1.30
  -4  -1   5    1.20    1.60
   4  -1  -5    1.60    1.70
   4   1  -5    3.70    1.40
  -4   1   5   -1.30    1.40
   4   1  -5   -0.50    1.30
  -3  -1   5   17.40    2.40
   3  -1  -5   16.90    2.30
   3  -1  -5   18.30    1.90
   3   1  -5   19.40    2.50
  -3   1   5   14.80    2.20
   3   1  -5   17.20    2.00
  -2  -1   5    1.90    1.00
   2  -1  -5    3.50    1.00
  -2  -1   5    2.40    0.40
   2  -1  -5    3.20    0.80
  -2   1   5    1.50    0.60
   2   1  -5    2.00    0.90
  -2   1   5    2.40    1.00
   2   1  -5    1.40    0.80
   1  -1  -5  115.49    2.90
  -1  -1   5  119.39    2.30
   1  -1  -5  115.09    2.60
  -1  -1   5  115.19    3.20
  -1   1   5  115.29    2.50
  -1   1   5  115.59    3.00
   1   1  -5  114.99    2.60
   1   1  -5  115.59    2.90
   0  -1  -5  280.37    4.70
   0  -1  -5  282.37    4.50
   0  -1   5  280.87    4.50
   0  -1   5  287.07    4.80
   0   1   5  281.27    4.10
   0   1   5  286.07    4.60
   0   1  -5  288.77    4.80
   1  -1   5   32.60    1.50
   1  -1   5   30.30    1.40
   1  -1   5   34.20    1.60
  -1  -1  -5   32.00    1.60
   1  -1   5   30.20    1.60
   1   1   5   35.10    1.70
   1   1   5   33.00    1.20
   1   1   5   34.50    1.50
   2  -1   5   11.70    1.40
   2  -1   5   10.90    1.50
   2  -1   5   11.50    1.50
  -2  -1  -5   11.00    1.40
   2  -1   5   11.00    1.50
  -2  -1  -5   12.40    1.60
   2   1   5    8.00    1.40
   2   1   5   13.10    1.40
  -3  -1  -5    9.10    1.70
   3  -1   5    8.40    1.80
   3  -1   5    8.50    1.70
   3  -1   5    6.30    1.40
   3   1   5    8.40    1.40
  -3   1  -5    9.30    1.80
   3   1   5    7.70    1.80
   3   1   5   10.80    1.90
   4  -1   5   13.00    2.70
  -4  -1  -5    8.30    2.10
   4  -1   5   13.90    2.40
   4   1   5   10.20    2.20
   4   1   5   10.30    2.40
  -4   1  -5   10.10    2.30
  -4  -2   5   -1.30    1.40
   4  -2  -5   -0.30    1.40
   4   2  -5    2.10    1.60
   4   2  -5    1.80    1.30
  -4   2   5    0.30    1.40
  -3  -2   5    2.10    1.40
   3  -2  -5    2.00    1.00
   3  -2  -5    1.70    1.30
   3   2  -5    2.00    1.30
   3   2  -5    1.90    1.20
  -3   2   5    1.70    1.00
  -3   2   5    2.50    1.50
  -2  -2   5  357.36    7.40
   2  -2  -5  345.07    5.60
   2  -2  -5  347.27    6.90
  -2   2   5  345.67    7.20
   2   2  -5  354.36    6.70
  -2   2   5  342.47    5.70
   2   2  -5  337.87    6.50
  -1  -2   5   44.30    1.40
   1  -2  -5   48.60    1.90
  -1  -2   5   45.60    2.10
   1  -2  -5   44.20    1.50
  -1   2   5   42.10    1.70
   1   2  -5   42.60    1.50
  -1   2   5   43.60    1.90
   1   2  -5   46.50    1.90
   0  -2  -5  279.47    4.80
   0  -2   5  274.37    4.60
   0  -2   5  274.97    5.00
   0   2  -5  278.67    4.80
   0   2   5  280.67    4.60
   0   2   5  275.67    4.70
   0   2   5  287.57    3.90
   1  -2   5    0.10    0.50
  -1  -2  -5    0.90    0.40
   1  -2   5    0.70    0.60
  -1  -2  -5    1.50    0.70
   1  -2   5    1.90    0.70
  -1   2  -5    1.70    0.60
   1   2   5    0.60    0.60
   1   2   5    1.40    0.60
  -2  -2  -5    9.30    1.50
   2  -2   5    9.60    1.50
   2  -2   5   10.70    1.40
   2  -2   5    9.70    1.40
   2  -2   5   11.20    1.50
  -2  -2  -5    9.80    1.20
   2   2   5    7.00    1.40
   2   2   5   10.10    1.20
   3  -2   5   14.20    2.00
   3  -2   5   13.90    2.10
   3  -2   5   14.40    2.10
  -3  -2  -5   12.80    2.10
  -3  -2  -5   18.00    2.20
   3   2   5   15.80    1.60
   3   2   5   16.20    2.20
  -3   2  -5   14.20    1.90
   4  -2   5    0.90    1.70
  -4  -2  -5    0.10    1.40
   4   2   5   -0.90    1.40
  -4   2  -5   -0.40    1.40
  -4  -3   5    1.20    1.80
   4  -3  -5    2.10    1.70
  -4   3   5    1.10    1.50
   4   3  -5    0.60    1.70
   4   3  -5    1.20    1.30
   3  -3  -5   88.79    4.10
  -3  -3   5   91.49    4.40
   3   3  -5   90.49    3.80
  -3   3   5   91.19    4.30
  -3   3   5   88.59    3.10
   3   3  -5   85.09    3.80
   2  -3  -5   28.40    1.40
   2  -3  -5   30.70    2.10
  -2  -3   5   26.90    2.20
   2   3  -5   29.10    1.90
  -2   3   5   32.40    2.20
  -2   3   5   31.50    1.80
   2   3  -5   32.20    2.10
   1  -3  -5 1210.38   16.10
  -1  -3   5 1278.57   14.20
  -1  -3   5 1248.48   17.10
   1  -3  -5 1253.97   14.50
  -1   3   5 1233.48   16.40
  -1   3   5 1234.38   15.10
   1   3  -5 1220.18   15.80
   1   3  -5 1280.47   14.90
   0  -3   5    6.40    0.90
   0  -3  -5    4.80    1.00
   0  -3   5    5.10    0.90
   0   3   5    6.30    0.90
   0   3  -5    4.90    0.90
   0   3   5    5.30    0.90
   0   3   5    5.80    0.50
   1  -3   5    0.30    0.60
   1  -3   5   -0.20    0.50
  -1  -3  -5    0.50    0.80
   1  -3   5   -0.10    0.60
   1   3   5    0.50    0.70
   1   3   5    0.70    0.60
  -1   3  -5    0.50    0.50
   2  -3   5    0.90    0.90
   2  -3   5    0.50    0.90
   2  -3   5    1.20    0.90
   2  -3   5   -0.30    0.70
  -2  -3  -5   -0.10    0.90
  -2  -3  -5    0.90    0.70
   2   3   5    0.40    0.60
   2   3   5    0.60    1.00
  -3  -3  -5    0.30    1.10
   3  -3   5    0.50    1.10
   3  -3   5   -0.70    1.00
   3  -3   5    0.50    1.00
  -3  -3  -5   -0.60    1.10
   3   3   5   -0.90    1.00
  -3   3  -5    0.50    1.00
  -4  -3  -5   -1.20    1.10
   4  -3   5    0.90    1.50
   4   3   5    1.50    1.60
  -4   3  -5    1.00    1.50
   4  -4  -5   -1.30    1.20
  -4  -4   5   -0.20    1.90
   4   4  -5    1.30    1.40
  -4   4   5   -0.60    1.40
   4   4  -5   -1.20    1.60
   3  -4  -5    1.40    1.20
  -3  -4   5    1.60    1.40
  -3   4   5    0.60    1.10
   3   4  -5    1.50    1.20
  -3   4   5    1.10    1.30
   3   4  -5    1.00    1.20
   2  -4  -5   41.20    2.50
  -2  -4   5   38.20    2.60
   2  -4  -5   39.30    1.40
  -2   4   5   42.60    2.60
   2   4  -5   39.20    2.10
   2   4  -5   39.00    2.40
  -2   4   5   43.10    2.20
  -1  -4   5   93.19    3.20
   1  -4  -5   96.89    3.10
   1  -4  -5   97.79    2.10
  -1  -4   5   99.79    2.30
  -1   4   5   91.29    2.80
   1   4  -5   95.19    3.00
  -1   4   5   95.69    2.90
   1   4  -5   96.79    2.40
   0  -4   5  147.49    3.90
   0  -4  -5  151.08    3.80
   0  -4   5  149.59    3.40
   0   4   5  149.09    3.50
   0   4   5  149.49    3.30
   0   4  -5  148.09    3.50
   1  -4   5  128.89    3.50
   1  -4   5  130.59    3.80
  -1  -4  -5  126.79    3.60
   1  -4   5  127.19    2.60
   1   4   5  127.29    3.30
   1   4   5  125.79    3.60
  -1   4  -5  122.69    3.10
  -2  -4  -5    0.20    0.70
   2  -4   5   -0.80    0.70
  -2  -4  -5    0.50    1.10
   2  -4   5   -0.70    0.70
   2   4   5    0.80    1.10
   2   4   5    0.00    0.70
  -2   4  -5    0.30    0.70
  -2   4  -5   -1.00    0.80
   3  -4   5   -0.10    1.10
  -3  -4  -5   -1.00    1.10
   3  -4   5   -0.30    1.20
  -3   4  -5   -0.40    0.90
   3   4   5   -0.30    1.10
   4  -4   5   -0.70    1.30
  -4  -4  -5   -0.10    1.40
  -4   4  -5    1.90    1.60
   4   4   5    0.40    1.30
  -4  -5   5    0.50    1.90
   4  -5  -5    0.20    1.60
   4   5  -5    0.20    1.60
  -4   5   5   -0.20    1.50
   4   5  -5    0.90    1.30
   3  -5  -5    1.00    1.30
  -3  -5   5    0.80    1.40
   3   5  -5   -0.10    1.10
  -3   5   5   -0.30    1.00
   3   5  -5    1.90    1.20
  -3   5   5   -0.20    1.10
  -2  -5   5   59.99    3.20
   2  -5  -5   58.89    3.00
  -2   5   5   59.39    2.70
   2   5  -5   60.79    3.00
  -2   5   5   58.49    3.00
   2   5  -5   58.19    2.60
  -1  -5   5   29.60    2.00
   1  -5  -5   30.70    1.80
   1  -5  -5   32.40    2.00
  -1  -5   5   30.20    1.40
   1  -5  -5   31.20    1.20
   1   5  -5   31.50    1.40
  -1   5   5   32.50    1.90
   1   5  -5   34.00    2.00
   0  -5  -5  261.17    5.60
   0  -5  -5  264.77    4.30
   0  -5   5  269.87    5.90
   0   5   5  265.47    4.80
   0   5  -5  270.57    5.10
   0   5  -5  268.97    5.10
   0   5   5  262.17    5.20
   1  -5   5  160.18    3.20
  -1  -5  -5  157.08    4.30
   1  -5   5  159.88    4.60
   1   5   5  160.28    4.20
  -1   5  -5  158.08    3.60
   1   5   5  159.78    3.80
  -1   5  -5  162.88    4.20
  -2  -5  -5    0.10    0.80
   2  -5   5    0.20    0.80
   2  -5   5   -0.10    1.00
  -2  -5  -5    1.60    1.30
   2   5   5    0.70    0.80
  -2   5  -5    0.60    1.00
  -2   5  -5   -1.10    0.70
   2   5   5   -1.60    0.90
   3  -5   5   19.90    2.40
  -3  -5  -5   17.10    2.60
   3  -5   5   21.90    2.80
   3   5   5   17.00    2.50
  -3   5  -5   18.70    2.40
   4  -5   5    0.40    1.50
  -4  -5  -5    1.10    1.50
  -4   5  -5    0.20    1.40
   4   5   5    3.20    1.80
  -4  -6   5    2.20    2.20
   4  -6  -5    4.80    2.10
  -4   6   5    2.50    1.80
   4   6  -5    2.80    1.60
  -3  -6   5   -1.50    1.30
   3  -6  -5   -0.20    1.20
  -3   6   5   -0.60    1.10
  -3   6   5    0.70    1.10
   3   6  -5   -0.50    1.00
  -2  -6   5   18.70    2.40
   2  -6  -5   14.40    2.00
  -2  -6   5   17.10    1.90
  -2   6   5   17.70    2.10
   2   6  -5   15.80    2.10
  -2   6   5   15.60    2.00
  -1  -6   5    3.70    1.20
   1  -6  -5    3.10    0.60
   1  -6  -5    2.20    1.10
   1  -6  -5    2.20    0.80
  -1  -6   5    2.10    0.70
  -1   6   5    2.20    1.00
   1   6  -5    3.10    1.00
   1   6  -5    3.40    0.70
   0  -6  -5  112.49    2.70
   0  -6  -5  110.19    3.70
   0  -6   5  113.89    3.80
   0   6   5  117.19    3.50
   0   6  -5  109.49    3.20
   0   6  -5  119.09    3.30
   0   6   5  114.59    3.00
  -1  -6  -5    2.90    1.20
   1  -6   5    2.60    0.70
   1  -6   5    2.40    1.10
  -1  -6  -5    2.50    0.50
   1   6   5    1.10    0.80
  -1   6  -5    3.40    0.90
   1   6   5    3.20    1.00
  -1   6  -5    1.90    0.90
   2  -6   5   17.20    1.80
   2  -6   5   14.40    2.10
  -2  -6  -5   19.10    2.50
  -2   6  -5   13.50    1.90
   2   6   5   13.70    2.00
  -2   6  -5   11.90    1.40
   2   6   5   17.20    1.70
   3  -6   5   25.90    2.70
  -3  -6  -5   22.20    2.90
   3  -6   5   35.50    3.30
   3   6   5   20.20    2.70
  -3   6  -5   24.10    2.60
  -4  -6  -5   -1.10    1.60
   4  -6   5    0.80    1.80
   4  -6   5    1.10    1.50
  -4   6  -5   -1.70    1.30
   4   6   5    0.00    1.40
  -4  -7   5    3.40    1.60
  -4  -7   5    3.20    2.10
   4  -7  -5    0.40    1.90
  -4   7   5   -0.20    1.80
   4   7  -5    1.00    1.50
   3  -7  -5   29.00    3.30
  -3  -7   5   29.80    3.40
  -3  -7   5   30.70    2.50
  -3   7   5   34.40    3.10
   3   7  -5   31.30    2.70
  -3   7   5   30.60    3.40
   2  -7  -5    6.90    1.70
   2  -7  -5    9.60    1.90
  -2  -7   5    9.90    1.90
  -2  -7   5    8.20    1.50
  -2   7   5    9.30    1.80
   2   7  -5    9.90    1.90
  -1  -7   5   32.00    1.70
   1  -7  -5   30.80    2.10
   1  -7  -5   33.10    2.40
  -1  -7   5   32.40    2.40
   1  -7  -5   33.40    1.20
   1   7  -5   31.20    2.20
   1   7  -5   34.10    1.80
  -1   7   5   32.70    2.20
   0  -7   5   85.79    3.50
   0  -7  -5   88.59    3.40
   0  -7   5   84.99    2.20
   0  -7  -5   82.09    2.50
   0   7  -5   79.89    2.90
   0   7   5   82.09    2.70
   0   7  -5   85.69    2.90
   1  -7   5  103.49    2.80
  -1  -7  -5   95.59    3.80
  -1  -7  -5  100.29    2.40
   1  -7   5   98.89    4.00
   1   7   5  100.49    3.60
  -1   7  -5   97.89    2.90
   1   7   5   97.99    3.30
  -1   7  -5   99.39    3.60
  -2  -7  -5   32.70    2.80
   2  -7   5   30.50    2.80
   2  -7   5   31.50    2.10
   2   7   5   25.60    2.70
  -2   7  -5   28.10    2.80
   2   7   5   27.00    2.00
  -3  -7  -5    3.80    1.70
   3  -7   5    0.90    1.50
   3  -7   5    0.20    1.10
  -3   7  -5    0.80    1.20
   3   7   5    5.30    1.70
   4  -7   5   -2.00    1.70
   4  -7   5    0.00    1.70
  -4  -7  -5    0.70    1.80
  -4   7  -5    1.00    1.60
   4   7   5   -1.60    1.40
  -4  -8   5    0.60    2.00
  -4  -8   5    1.80    1.60
   4  -8  -5    2.30    2.20
  -4   8   5    1.40    2.00
   4   8  -5    0.00    1.50
  -3  -8   5   42.60    3.00
  -3  -8   5   43.20    3.60
   3  -8  -5   28.00    3.20
   3   8  -5   39.30    3.10
  -3   8   5   42.60    3.50
  -3   8   5   39.60    3.30
  -2  -8   5    7.40    1.90
  -2  -8   5    7.30    1.50
   2  -8  -5    7.30    1.70
   2  -8  -5    8.20    1.80
   2   8  -5    7.40    1.80
  -2   8   5    5.40    1.70
  -1  -8   5   30.20    2.60
   1  -8  -5   27.10    2.10
   1  -8  -5   28.20    2.50
  -1  -8   5   26.20    1.80
   1   8  -5   29.10    1.80
   1   8  -5   26.90    2.20
  -1   8   5   25.20    2.50
   0  -8   5    5.70    1.00
   0  -8  -5    4.80    1.00
   0  -8   5    3.50    1.30
   0  -8  -5    5.30    1.50
   0   8  -5    6.00    1.20
   0   8   5    4.20    1.30
   0   8   5    4.40    1.00
   0   8  -5    5.10    1.20
  -1  -8  -5    5.90    1.70
   1  -8   5    8.30    1.10
   1  -8   5    3.30    1.40
  -1   8  -5    4.80    1.30
  -1   8  -5    6.10    1.20
   1   8   5    6.00    1.40
   1   8   5    6.00    1.30
  -2  -8  -5    6.60    1.80
   2  -8   5    1.10    1.10
   2  -8   5    3.10    1.20
   2   8   5    3.00    1.40
   2   8   5    3.90    1.10
  -2   8  -5    1.40    1.10
  -3  -8  -5    2.10    1.60
   3  -8   5    0.00    1.20
   3  -8   5    0.20    1.60
   3   8   5   -0.30    1.30
  -3   8  -5   -0.10    1.30
  -4  -8  -5   -0.60    1.50
   4  -8   5   -0.70    2.00
  -4   8  -5   -0.70    1.70
   4   8   5   -0.50    1.50
   4  -9  -5   10.50    2.90
  -4  -9   5    4.20    1.90
  -4  -9   5    5.90    2.50
   4   9  -5    3.40    1.70
  -4   9   5    4.50    2.40
  -3  -9   5    0.90    1.80
  -3  -9   5    0.40    1.20
   3  -9  -5    2.90    1.70
  -3   9   5   -0.10    1.50
  -3   9   5    2.10    1.90
   3   9  -5    3.70    1.60
   2  -9  -5    4.10    1.50
  -2  -9   5   -0.60    1.10
   2  -9  -5    0.30    1.20
  -2  -9   5    0.30    1.30
  -2   9   5    0.50    1.30
   2   9  -5   -0.20    1.10
   1  -9  -5    4.30    1.40
  -1  -9   5    7.20    1.30
  -1  -9   5   10.20    2.00
   1  -9  -5    7.30    1.80
   1   9  -5    9.10    1.40
  -1   9   5    8.10    1.70
   1   9  -5    9.20    1.70
   0  -9   5  203.68    6.10
   0  -9  -5  202.48    4.80
   0  -9  -5  193.58    5.80
   0  -9   5  199.48    4.30
   0   9  -5  201.98    5.30
   0   9   5  202.78    4.70
   0   9  -5  208.28    5.10
   0   9   5  195.08    5.50
   1  -9   5    1.10    1.20
   1  -9   5   -0.30    0.70
  -1  -9  -5   -0.90    1.20
  -1   9  -5   -0.80    0.70
  -1   9  -5   -1.60    0.90
   1   9   5   -0.60    0.90
   1   9   5   -1.00    0.90
  -2  -9  -5    0.70    1.30
   2  -9   5   -1.30    1.00
  -2   9  -5   -1.60    0.90
   2   9   5   -0.20    0.90
   2   9   5   -0.40    1.00
   3  -9   5   -1.60    1.30
  -3  -9  -5   -0.20    1.40
  -3   9  -5   -0.40    1.30
   3   9   5   -0.40    1.30
  -3 -10   5   -1.20    1.50
  -3 -10   5    0.50    1.40
   3 -10  -5   -0.60    1.30
   3  10  -5    1.40    1.40
  -3  10   5   -3.40    1.50
  -3  10   5    0.70    1.50
  -2 -10   5   -0.10    1.10
   2 -10  -5    1.90    1.30
  -2 -10   5   -1.80    1.10
   2 -10  -5    2.40    1.30
  -2  10   5    2.50    1.50
   2  10  -5   -1.50    0.90
  -1 -10   5   45.10    3.30
  -1 -10   5   41.10    2.40
   1 -10  -5   47.90    3.20
   1 -10  -5   43.20    2.80
   1  10  -5   48.00    2.60
   1  10  -5   41.00    2.80
  -1  10   5   39.90    2.90
   0 -10   5   46.00    3.30
   0 -10  -5   45.20    2.50
   0 -10  -5   50.99    3.30
   0  10   5   46.80    2.40
   0  10  -5   46.70    2.80
   0  10   5   48.30    3.00
   0  10  -5   46.10    2.60
   1 -10   5    6.20    1.80
  -1 -10  -5   11.80    2.20
   1  10   5    4.40    1.40
   1  10   5    5.80    1.50
  -1  10  -5    6.30    1.50
   2 -10   5    4.40    1.80
  -2 -10  -5    7.10    2.00
  -2  10  -5    4.80    1.70
   2  10   5    4.20    1.30
   2  10   5    1.20    1.40
   3 -10   5    1.40    1.80
  -3 -10  -5    1.70    1.60
   3  10   5    2.30    1.70
  -3  10  -5    5.20    1.90
   3 -11  -5   -0.10    1.50
  -3 -11   5   -0.30    1.30
  -3 -11   5    1.00    1.80
  -3  11   5   -2.80    1.60
   3  11  -5    0.40    1.50
  -3  11   5    1.80    1.70
  -2 -11   5    1.90    1.70
  -2 -11   5    2.10    1.40
   2 -11  -5    1.40    1.40
   2 -11  -5   -1.50    1.20
   2  11  -5    3.60    1.50
  -2  11   5   -0.60    1.30
   1 -11  -5    4.30    1.50
   1 -11  -5    3.90    1.60
  -1 -11   5    4.80    1.70
  -1  11   5    2.50    1.40
   1  11  -5    3.60    1.40
   1  11  -5    3.50    1.20
   0 -11   5    1.00    1.20
   0 -11  -5   -0.80    1.10
   0  11   5    0.10    1.00
   0  11  -5    0.60    1.00
   0  11  -5    0.30    1.00
   1 -11   5    7.30    2.00
  -1 -11  -5   11.30    2.40
   1  11   5    6.10    1.60
  -1  11  -5    5.10    1.60
   1  11   5    7.10    1.70
   2 -11   5    4.50    2.00
  -2 -11  -5    5.40    2.00
   2  11   5    3.90    1.60
  -2  11  -5    5.30    1.70
   3 -11   5    2.80    2.10
  -3 -11  -5   -1.00    1.70
  -3  11  -5   -2.00    1.30
   3  11   5    1.90    1.70
   3 -12  -5    2.90    1.90
   3 -12  -5    1.00    1.70
  -3 -12   5   -0.20    1.70
  -3  12   5   -0.60    1.80
   3  12  -5   -2.00    1.40
  -3  12   5    2.80    1.90
  -2 -12   5    9.50    2.50
   2 -12  -5    5.00    1.70
   2 -12  -5    5.60    1.90
  -2  12   5    8.60    2.30
   2  12  -5    9.00    2.10
  -1 -12   5    8.30    2.10
   1 -12  -5    6.50    1.90
   1 -12  -5   10.50    2.00
  -1  12   5    9.00    1.90
   1  12  -5    6.90    1.50
   1  12  -5    7.20    1.70
   0 -12  -5    0.60    1.40
   0 -12   5    2.50    1.50
   0  12   5    0.40    1.10
   0  12  -5    3.30    1.30
   0  12  -5   -0.40    0.90
  -1 -12  -5   25.60    3.10
   1 -12   5   29.10    3.60
   1  12   5   26.40    2.90
  -1  12  -5   22.50    2.80
   1  12   5   23.30    2.60
  -2 -12  -5    3.90    1.80
   2 -12   5    2.20    1.90
  -2  12  -5    0.00    1.30
   2  12   5    0.50    1.40
   2 -13  -5    0.20    1.30
  -2 -13   5    3.90    2.10
   2 -13  -5    1.10    1.60
   2  13  -5   -0.20    1.20
  -2  13   5   -1.40    1.50
  -1 -13   5    1.70    1.50
   1 -13  -5    0.90    1.40
  -1  13   5    2.90    1.50
   1  13  -5    3.30    1.50
   1  13  -5    1.50    1.20
   0 -13  -5    0.70    1.50
   0 -13   5    4.80    1.90
   0  13  -5    2.90    1.40
   0  13   5    0.50    1.30
   1 -13   5    1.50    1.60
  -1 -13  -5   -2.10    1.30
  -1  13  -5   -0.40    1.20
   1  13   5   -0.40    1.00
   1  13   5    1.80    1.30
   2 -13   5    2.00    2.00
  -2 -13  -5    1.60    1.80
   2  13   5   -0.40    1.30
  -2  13  -5    1.00    1.50
  -2 -14   5   -0.30    1.70
   2 -14  -5   -0.50    1.30
   2 -14  -5   -0.30    1.50
   2  14  -5    1.40    1.60
  -2  14   5   -0.50    1.60
  -1 -14   5    4.00    2.00
   1 -14  -5    1.70    1.60
   1  14  -5    3.90    1.50
  -1  14   5    2.00    1.60
   1  14  -5    0.40    1.40
   0 -14  -5   14.00    2.60
   0 -14   5   13.80    2.80
   0  14   5   12.90    2.40
   0  14  -5   13.90    2.30
   1 -14   5    9.00    2.50
  -1 -14  -5    2.50    1.80
  -1  14  -5    5.80    1.90
   1  14   5    8.00    2.00
   1 -15  -5    2.60    1.70
  -1 -15   5    3.70    2.10
  -1  15   5    4.30    1.90
   0 -15  -5    0.30    1.30
   0 -15   5    2.10    1.90
   0  15  -5   -0.10    1.30
   0  15   5    1.10    1.50
  -1 -15  -5    1.50    1.80
   1 -15   5    3.90    2.30
   1  15   5    2.40    1.60
  -1  15  -5    0.20    1.30
   4   0  -6    3.30    1.40
   4   0  -6    5.00    1.90
  -4   0   6    4.50    1.90
  -3   0   6   13.60    2.20
   3   0  -6   17.30    2.00
   3   0  -6   16.60    2.30
  -2   0   6   46.80    1.60
  -2   0   6   46.40    2.60
   2   0  -6   46.60    2.30
   2   0  -6   43.60    2.10
   1   0  -6   43.00    1.80
  -1   0   6   46.50    2.00
   1   0  -6   46.90    1.70
  -1   0   6   46.70    1.60
   0   0  -6  227.18    4.40
   0   0  -6  228.58    3.70
   0   0   6  222.98    4.20
   0   0   6  231.58    4.00
   1   0   6  156.48    3.80
   1   0   6  152.48    3.60
   1   0   6  157.98    3.30
  -1   0  -6  164.18    3.40
   2   0   6   11.90    1.70
  -2   0  -6   13.30    1.60
   2   0   6   13.00    1.50
   2   0   6   14.50    1.60
   3   0   6  103.09    3.70
   3   0   6  104.89    4.20
  -3   0  -6  109.99    4.20
   3   0   6  109.69    4.40
   4   0   6   39.50    3.40
   4   0   6   42.30    3.80
  -4   0  -6   40.40    3.60
   4  -1  -6    2.30    1.70
  -4  -1   6    1.20    1.70
   4   1  -6    0.70    1.60
  -4   1   6    0.70    1.60
   4   1  -6    2.50    1.40
   3  -1  -6   10.30    1.60
   3  -1  -6    9.40    1.90
  -3  -1   6   11.60    2.20
   3   1  -6   11.90    1.80
   3   1  -6    8.60    1.80
  -3   1   6   11.50    2.10
   2  -1  -6    1.80    0.70
  -2  -1   6    2.50    1.10
  -2  -1   6    2.40    0.50
   2  -1  -6    1.60    1.00
  -2   1   6    2.70    0.70
   2   1  -6    2.60    0.90
   2   1  -6    2.20    0.90
  -2   1   6    2.60    1.10
  -1  -1   6    1.70    0.50
  -1  -1   6    0.90    0.70
   1  -1  -6    0.80    0.60
   1  -1  -6    1.20    0.60
   1   1  -6    1.10    0.50
  -1   1   6    0.80    0.50
  -1   1   6    1.40    0.60
   1   1  -6    0.90    0.70
   0  -1  -6   80.29    2.30
   0  -1   6   82.99    2.30
   0  -1   6   78.09    2.30
   0  -1  -6   80.39    2.20
   0   1   6   76.09    2.30
   0   1   6   77.49    1.80
   0   1  -6   78.79    2.40
   1  -1   6   67.59    2.40
   1  -1   6   69.49    2.40
  -1  -1  -6   67.49    2.30
   1  -1   6   68.69    2.20
  -1   1  -6   69.19    2.00
  -1   1  -6   67.99    2.30
   1   1   6   69.19    1.80
   1   1   6   68.99    2.50
   1   1   6   65.39    2.30
   2  -1   6    0.40    0.90
  -2  -1  -6    2.40    1.00
   2  -1   6    1.60    0.90
   2  -1   6    1.00    1.00
   2  -1   6    0.20    0.80
  -2  -1  -6    1.50    0.80
   2   1   6   -0.60    0.70
   2   1   6   -0.80    0.80
   3  -1   6   37.10    2.50
  -3  -1  -6   33.20    2.80
   3  -1   6   41.10    2.80
   3  -1   6   40.10    2.80
  -3  -1  -6   30.80    2.50
  -3   1  -6   41.00    2.80
   3   1   6   28.40    2.10
   3   1   6   37.90    2.90
  -4  -1  -6   14.60    2.50
   4  -1   6   21.70    2.80
   4  -1   6   14.60    2.70
   4   1   6   21.30    2.90
  -4   1  -6   22.50    3.00
  -4  -2   6    1.10    1.80
   4  -2  -6    1.30    1.70
  -4   2   6   -0.20    1.40
   4   2  -6   -1.30    1.50
   4   2  -6   -0.30    1.10
   3  -2  -6    5.20    1.10
  -3  -2   6    5.70    1.80
   3  -2  -6    3.90    1.50
   3   2  -6    5.50    1.50
   3   2  -6    4.50    1.50
  -3   2   6    5.30    1.10
  -3   2   6    5.90    1.70
   2  -2  -6    0.00    0.80
   2  -2  -6    0.80    0.70
  -2  -2   6    1.30    0.40
  -2  -2   6    2.00    1.20
  -2   2   6    1.90    1.00
   2   2  -6    1.70    0.90
   2   2  -6    0.90    0.80
  -2   2   6    1.10    0.70
   1  -2  -6  239.98    4.30
  -1  -2   6  240.88    4.00
  -1  -2   6  241.48    5.20
   1  -2  -6  243.38    4.80
  -1   2   6  244.78    4.80
   1   2  -6  245.18    4.90
  -1   2   6  246.38    4.50
   1   2  -6  246.98    4.10
   0  -2  -6    0.00    0.50
   0  -2   6   -0.90    0.40
   0  -2  -6    0.70    0.70
   0  -2   6    0.40    0.50
   0   2   6   -0.20    0.30
   0   2  -6    0.20    0.50
   0   2   6   -0.60    0.40
   1  -2   6   71.29    2.50
  -1  -2  -6   69.09    1.50
   1  -2   6   67.19    2.40
  -1  -2  -6   66.59    2.40
   1   2   6   68.09    2.30
  -1   2  -6   69.09    2.40
   1   2   6   71.99    2.60
   2  -2   6   23.60    2.00
   2  -2   6   23.90    1.90
  -2  -2  -6   25.80    2.10
   2  -2   6   25.80    1.90
   2  -2   6   22.10    1.80
  -2  -2  -6   25.70    1.60
   2   2   6   28.00    2.10
   2   2   6   26.90    1.70
  -3  -2  -6   36.70    2.90
   3  -2   6   38.00    2.90
  -3  -2  -6   33.10    2.60
   3  -2   6   38.60    2.70
   3  -2   6   38.80    2.60
   3  -2   6   40.30    2.80
   3   2   6   38.40    2.90
   3   2   6   40.30    2.30
   4  -2   6    5.10    1.80
  -4  -2  -6    3.00    1.70
   4  -2   6    3.50    1.90
   4   2   6    0.60    1.60
  -4   2  -6   -0.40    1.50
   4  -3  -6    5.50    1.90
  -4  -3   6    2.60    2.10
  -4   3   6    4.10    1.80
   4   3  -6    4.90    2.10
   4   3  -6    7.40    2.00
  -3  -3   6   -0.10    1.40
   3  -3  -6    1.60    1.30
   3   3  -6    0.10    1.20
  -3   3   6   -0.30    1.00
  -3   3   6    0.90    1.30
   3   3  -6    0.40    1.10
   2  -3  -6   29.90    2.10
  -2  -3   6   32.30    2.50
   2  -3  -6   34.60    1.60
  -2   3   6   33.20    2.30
   2   3  -6   28.40    2.10
  -2   3   6   33.90    1.80
   2   3  -6   33.30    2.00
   1  -3  -6  340.57    5.30
  -1  -3   6  343.37    6.80
   1  -3  -6  350.86    6.40
  -1  -3   6  350.36    5.20
   1   3  -6  353.16    6.40
  -1   3   6  338.37    6.10
   1   3  -6  346.77    5.20
  -1   3   6  342.27    5.90
   0  -3  -6    6.80    1.10
   0  -3   6    5.60    1.00
   0  -3   6    5.10    0.90
   0   3   6    6.50    1.00
   0   3   6    6.30    0.60
   0   3  -6    6.50    1.10
   0   3   6    5.60    1.00
   1  -3   6   17.70    1.70
   1  -3   6   16.00    1.40
   1  -3   6   16.90    1.10
  -1  -3  -6   17.10    1.70
  -1   3  -6   18.70    1.40
   1   3   6   16.30    1.60
   1   3   6   15.00    1.30
   2  -3   6   -0.50    0.80
   2  -3   6    2.50    1.10
  -2  -3  -6    1.00    1.10
  -2  -3  -6    0.40    0.70
   2  -3   6    0.20    0.80
   2   3   6    0.70    1.00
  -2   3  -6    0.70    0.80
   2   3   6    0.60    0.70
   3  -3   6    6.60    1.70
   3  -3   6    8.70    1.70
  -3  -3  -6    7.60    1.80
   3  -3   6    3.30    1.40
  -3   3  -6    4.50    1.40
   3   3   6    3.50    1.50
  -4  -3  -6   -1.70    1.20
   4  -3   6    1.30    1.70
   4   3   6   -1.30    1.30
  -4   3  -6   -0.80    1.50
   4  -4  -6    1.80    1.70
  -4  -4   6   -0.50    1.70
   4   4  -6   -1.30    1.50
   4   4  -6    0.70    1.40
  -4   4   6   -2.10    1.50
  -3  -4   6    0.20    1.40
   3  -4  -6    1.10    1.30
   3   4  -6    0.90    1.10
  -3   4   6    0.20    1.20
   3   4  -6    0.30    1.00
  -3   4   6   -1.40    0.90
  -2  -4   6   53.89    3.10
   2  -4  -6   50.59    2.80
   2  -4  -6   52.19    1.70
   2   4  -6   52.59    1.30
  -2   4   6   56.09    2.60
   2   4  -6   54.39    2.40
  -2   4   6   53.39    2.80
   2   4  -6   49.60    2.70
  -1  -4   6   37.70    2.20
  -1  -4   6   34.60    1.50
   1  -4  -6   37.90    2.10
   1  -4  -6   36.00    1.40
   1   4  -6   39.40    2.00
  -1   4   6   35.70    1.80
  -1   4   6   34.10    1.90
   1   4  -6   35.50    1.40
   0  -4   6  178.58    3.90
   0  -4   6  173.78    4.40
   0  -4  -6  175.58    4.30
   0   4   6  173.58    4.00
   0   4   6  177.28    3.80
   0   4  -6  175.78    4.00
   0   4   6  179.08    2.90
   1  -4   6    0.60    0.70
  -1  -4  -6   -0.20    0.80
   1  -4   6   -0.80    0.60
   1   4   6    0.60    0.80
  -1   4  -6   -0.10    0.60
   1   4   6    0.20    0.60
   2  -4   6   43.50    2.20
   2  -4   6   42.70    2.70
  -2  -4  -6   44.30    2.80
  -2  -4  -6   38.80    1.80
   2  -4   6   40.60    2.50
   2   4   6   41.40    2.10
   2   4   6   38.30    2.60
  -2   4  -6   37.50    2.10
   3  -4   6   11.30    1.90
   3  -4   6   10.30    2.00
  -3  -4  -6    9.30    2.10
   3   4   6    9.40    2.00
  -3   4  -6   11.50    1.90
  -3   4  -6   13.30    1.90
   4  -4   6    0.80    1.50
  -4  -4  -6    2.40    1.80
  -4   4  -6    2.70    1.70
   4   4   6    2.10    1.70
   4  -5  -6   -0.80    1.30
  -4  -5   6   -0.50    1.70
   4   5  -6    0.70    1.70
  -4   5   6   -0.60    1.50
   4   5  -6    0.10    1.30
   3  -5  -6   11.10    2.20
  -3  -5   6   11.40    2.20
  -3   5   6   10.60    1.70
  -3   5   6   10.20    2.00
   3   5  -6    9.60    1.90
   3   5  -6   10.70    1.90
  -2  -5   6    3.40    1.40
   2  -5  -6    4.00    1.40
  -2   5   6    3.40    1.20
   2   5  -6    3.20    1.00
   2   5  -6    3.20    1.20
  -2   5   6    3.80    1.30
   1  -5  -6   10.70    1.00
   1  -5  -6    9.80    1.50
  -1  -5   6    8.60    1.50
  -1  -5   6   11.40    1.10
  -1   5   6    9.40    1.20
  -1   5   6   10.80    1.50
   1   5  -6   10.60    1.10
   1   5  -6    8.10    1.40
   0  -5   6   32.00    1.80
   0  -5   6   32.50    2.10
   0  -5  -6   33.90    2.10
   0   5   6   31.90    1.70
   0   5   6   31.50    1.80
   0   5  -6   28.20    1.70
   1  -5   6   -0.60    0.70
  -1  -5  -6    1.30    1.00
   1  -5   6    0.90    0.50
   1  -5   6   -0.10    0.70
   1   5   6    0.30    0.70
  -1   5  -6   -1.30    0.50
   1   5   6   -0.20    0.70
   2  -5   6    2.70    1.30
   2  -5   6    2.80    1.00
  -2  -5  -6    0.00    1.10
  -2   5  -6    0.80    0.90
  -2   5  -6    1.10    1.00
   2   5   6    0.90    1.10
   2   5   6    1.80    0.90
  -3  -5  -6    0.60    1.40
   3  -5   6    0.90    1.30
   3  -5   6   -1.80    0.80
  -3   5  -6    1.30    1.30
   3   5   6    1.50    1.30
  -4  -5  -6    0.70    1.60
   4  -5   6    4.90    1.80
  -4   5  -6    3.30    1.70
   4   5   6    0.60    1.40
  -4   5  -6    2.40    1.70
   4  -6  -6    0.10    1.60
  -4  -6   6    0.90    2.00
   4   6  -6    0.50    1.40
   4   6  -6   -2.20    1.60
  -4   6   6   -1.90    1.50
   3  -6  -6    0.80    1.20
  -3  -6   6   -0.40    1.30
   3   6  -6    1.10    1.20
  -3   6   6    3.70    1.50
  -3   6   6    1.30    1.30
   3   6  -6    1.00    1.20
   2  -6  -6    3.40    1.50
  -2  -6   6    3.20    1.10
  -2  -6   6    2.50    1.40
  -2   6   6    1.80    1.20
   2   6  -6    3.10    1.30
  -2   6   6    5.80    1.40
  -1  -6   6    2.90    1.20
   1  -6  -6    3.20    1.30
   1  -6  -6    2.20    0.90
  -1  -6   6    2.50    0.70
   1  -6  -6    2.70    0.70
   1   6  -6    4.10    1.20
  -1   6   6    3.20    1.10
   1   6  -6    3.50    0.80
   0  -6   6   32.50    2.20
   0  -6  -6   32.40    1.30
   0  -6  -6   30.90    2.20
   0   6  -6   29.20    1.80
   0   6   6   34.50    1.80
   0   6  -6   25.90    1.80
   0   6   6   35.00    2.10
   1  -6   6   62.39    3.10
   1  -6   6   60.69    1.90
  -1  -6  -6   59.29    3.00
   1   6   6   55.39    2.70
  -1   6  -6   61.29    2.40
   1   6   6   57.39    2.50
  -1   6  -6   57.49    2.80
  -2  -6  -6    4.20    1.60
   2  -6   6    4.20    1.20
   2  -6   6    6.00    1.50
   2   6   6    1.90    1.30
   2   6   6    3.10    1.10
  -2   6  -6    4.90    1.20
  -2   6  -6    4.90    1.40
  -3  -6  -6    8.90    2.10
   3  -6   6    9.60    2.20
   3  -6   6    7.40    1.70
   3   6   6    9.00    2.00
  -3   6  -6    9.10    1.90
   4  -6   6    0.10    1.70
   4  -6   6   -0.90    1.70
  -4  -6  -6    1.30    1.90
   4   6   6    1.30    1.60
  -4   6  -6    1.50    1.70
  -4  -7   6   -1.20    1.00
  -4  -7   6   -1.60    1.80
   4  -7  -6   -1.50    1.50
  -4   7   6   -1.10    1.70
   4   7  -6    1.20    1.50
  -3  -7   6   -0.90    0.90
  -3  -7   6   -2.70    1.20
   3  -7  -6    0.00    1.20
   3   7  -6    0.40    1.10
  -3   7   6   -0.90    1.20
  -3   7   6    0.60    1.40
  -2  -7   6   57.99    2.70
   2  -7  -6   60.89    3.40
  -2  -7   6   58.09    3.50
  -2   7   6   55.89    3.20
   2   7  -6   60.69    3.40
  -2   7   6   55.99    3.10
   1  -7  -6   22.50    1.20
   1  -7  -6   20.00    2.30
  -1  -7   6   23.60    2.40
   1  -7  -6   19.80    1.80
  -1  -7   6   22.40    1.40
   1   7  -6   23.20    2.00
  -1   7   6   25.70    2.40
   1   7  -6   21.30    1.50
   0  -7  -6   -0.90    0.90
   0  -7  -6    0.50    0.50
   0  -7   6   -0.10    0.80
   0   7  -6   -0.40    0.70
   0   7   6    0.40    0.70
   0   7  -6    0.00    0.80
   0   7   6   -0.50    0.80
  -1  -7  -6    7.00    1.60
   1  -7   6    7.30    1.50
  -1   7  -6    5.50    1.20
   1   7   6    3.70    1.10
  -1   7  -6    6.50    1.40
   1   7   6    5.30    1.40
   2  -7   6   -1.50    0.70
   2  -7   6    0.60    1.10
  -2  -7  -6   -1.30    1.10
  -2   7  -6   -0.70    1.00
   2   7   6    1.00    1.20
   2   7   6    1.80    1.00
  -2   7  -6   -0.50    0.90
   3  -7   6   -0.80    1.00
  -3  -7  -6    0.50    1.40
   3  -7   6   -1.20    1.30
   3   7   6   -2.30    1.10
  -3   7  -6   -0.10    1.20
  -4  -7  -6   -0.90    1.60
   4  -7   6   -0.30    2.00
   4   7   6    2.20    1.60
  -4   7  -6    1.50    1.80
   4  -8  -6    6.20    2.40
  -4  -8   6    0.10    1.80
  -4  -8   6    4.30    1.80
   4   8  -6    1.50    1.60
  -4   8   6    1.60    2.00
   3  -8  -6   24.30    3.10
  -3  -8   6   29.00    2.50
  -3  -8   6   23.30    3.10
   3   8  -6   24.70    2.90
  -3   8   6   26.50    3.00
  -3   8   6   29.20    3.50
   2  -8  -6   68.29    3.80
  -2  -8   6   69.59    3.10
  -2  -8   6   67.59    3.90
   2  -8  -6   74.59    3.70
  -2   8   6   73.79    3.60
  -2   8   6   71.89    3.60
   2   8  -6   71.09    3.80
   1  -8  -6   20.70    2.00
   1  -8  -6   18.90    2.40
  -1  -8   6   18.90    1.50
  -1  -8   6   18.50    2.40
  -1   8   6   16.10    2.10
   1   8  -6   20.70    1.70
   1   8  -6   23.10    2.40
   0  -8  -6  346.77    7.80
   0  -8   6  369.36    8.40
   0  -8  -6  359.76    6.30
   0   8   6  360.86    6.70
   0   8   6  361.16    7.50
   0   8  -6  368.96    7.20
   0   8  -6  370.76    7.20
  -1  -8  -6   -0.50    1.10
   1  -8   6   -0.20    1.00
   1   8   6   -0.40    0.90
  -1   8  -6    0.70    1.00
  -1   8  -6    1.70    1.00
   1   8   6   -0.10    1.00
   2  -8   6    2.40    1.50
  -2  -8  -6    0.30    1.20
   2   8   6    1.20    1.20
   2   8   6   -0.50    0.90
  -2   8  -6    0.10    1.00
   3  -8   6   -0.30    1.50
  -3  -8  -6    0.60    1.60
   3   8   6   -1.10    1.30
  -3   8  -6    0.00    1.20
   4  -9  -6    2.80    2.30
  -4  -9   6   -0.60    1.90
  -4  -9   6   -1.30    1.40
   4   9  -6    3.20    1.70
  -4   9   6   -1.20    2.00
  -3  -9   6   13.80    2.70
   3  -9  -6   11.90    2.40
  -3  -9   6   16.70    2.50
  -3   9   6   20.00    2.80
  -3   9   6   19.70    3.10
   3   9  -6   14.30    2.40
   2  -9  -6   63.79    3.70
  -2  -9   6   57.19    3.80
  -2  -9   6   59.49    3.00
   2  -9  -6   59.59    3.60
  -2   9   6   60.19    3.50
   2   9  -6   65.69    3.70
   1  -9  -6  150.88    4.70
  -1  -9   6  156.48    3.90
  -1  -9   6  157.38    5.60
   1  -9  -6  160.18    5.30
  -1   9   6  150.78    5.10
   1   9  -6  148.89    4.90
   1   9  -6  149.79    4.20
   0  -9   6   40.40    3.00
   0  -9  -6   45.60    3.20
   0  -9  -6   45.20    2.20
   0   9  -6   44.10    2.60
   0   9  -6   40.20    2.50
   0   9   6   44.70    2.40
   0   9   6   44.10    2.90
   1  -9   6  127.99    5.10
  -1  -9  -6  131.69    5.10
   1   9   6  132.09    4.60
  -1   9  -6  129.59    3.80
   1   9   6  131.89    4.40
  -1   9  -6  125.69    4.50
  -2  -9  -6    3.50    1.60
   2  -9   6    4.10    1.60
   2   9   6    5.80    1.80
  -2   9  -6    6.70    1.70
   2   9   6    7.00    1.50
   3  -9   6   -1.50    1.40
  -3  -9  -6    1.80    1.60
   3   9   6   -0.70    1.40
  -3   9  -6    1.60    1.50
  -3 -10   6   -0.10    1.30
   3 -10  -6    0.50    1.40
  -3 -10   6   -1.30    1.60
  -3  10   6   -0.80    1.40
   3  10  -6   -0.60    1.20
  -3  10   6   -0.10    1.60
   2 -10  -6    4.70    1.60
  -2 -10   6    2.70    1.40
  -2 -10   6    3.00    1.60
   2 -10  -6    0.10    1.20
  -2  10   6    3.10    1.60
   2  10  -6    4.10    1.60
   1 -10  -6   29.60    2.40
   1 -10  -6   24.60    2.80
  -1 -10   6   30.30    3.30
   1  10  -6   23.20    2.00
  -1  10   6   25.30    2.80
   1  10  -6   27.70    2.80
   0 -10  -6  127.59    5.00
   0 -10   6  121.29    5.10
   0  10  -6  128.49    4.40
   0  10  -6  124.29    4.10
   0  10   6  127.49    3.90
   0  10   6  120.99    4.60
  -1 -10  -6   33.50    3.50
   1 -10   6   32.00    3.00
  -1  10  -6   32.10    2.70
   1  10   6   36.40    2.60
   1  10   6   29.80    2.50
  -2 -10  -6   13.30    2.40
   2 -10   6   13.50    2.60
   2  10   6   20.20    2.30
   2  10   6   10.50    2.20
  -2  10  -6   15.50    2.50
   3 -10   6   -0.40    1.90
  -3 -10  -6   -0.30    1.50
   3  10   6   -0.40    1.50
  -3  10  -6   -0.50    1.30
   3 -11  -6    1.60    1.60
  -3 -11   6    1.00    1.80
   3  11  -6   -1.20    1.20
  -3  11   6    0.20    1.60
  -3  11   6   -0.60    1.70
   2 -11  -6    7.60    2.00
  -2 -11   6    8.80    2.20
   2 -11  -6    9.60    2.20
  -2  11   6    7.50    2.00
   2  11  -6    8.30    2.00
  -1 -11   6    1.80    1.40
   1 -11  -6    0.60    1.00
   1 -11  -6    1.60    1.40
   1  11  -6    0.40    1.20
   1  11  -6    0.40    0.90
  -1  11   6    0.40    1.10
   0 -11   6   12.70    2.30
   0 -11  -6   11.30    2.30
   0  11   6   11.90    2.00
   0  11  -6   14.30    2.10
   0  11  -6   12.40    1.90
  -1 -11  -6    0.30    1.50
   1 -11   6    1.90    1.60
   1  11   6    2.50    1.20
  -1  11  -6   -0.80    1.00
   1  11   6   -0.30    1.20
   2 -11   6    8.00    2.30
  -2 -11  -6   11.10    2.40
  -2  11  -6    9.20    2.10
   2  11   6   10.20    2.20
  -3 -11  -6    6.40    2.30
   3 -11   6    3.30    2.30
  -3  11  -6    1.90    1.80
   3  11   6    4.10    2.10
  -3 -12   6    6.70    2.40
   3 -12  -6   -0.10    1.50
   3  12  -6   -0.70    1.20
  -3  12   6    2.00    1.90
  -3  12   6    1.50    2.10
   2 -12  -6    0.00    1.30
  -2 -12   6    2.20    1.70
   2 -12  -6    4.20    1.80
  -2  12   6    0.00    1.50
   2  12  -6    1.30    1.30
  -1 -12   6    5.60    1.80
   1 -12  -6    4.50    1.80
  -1  12   6    6.50    1.80
   1  12  -6    3.00    1.40
   1  12  -6    4.00    1.40
   0 -12   6    1.30    1.40
   0 -12  -6   -0.30    1.20
   0  12  -6   -0.90    1.00
   0  12  -6   -0.60    0.90
   0  12   6   -0.50    1.10
  -1 -12  -6    1.60    1.70
   1 -12   6    2.20    1.60
   1  12   6    4.70    1.40
  -1  12  -6    3.20    1.50
   1  12   6    6.20    1.80
  -2 -12  -6    0.60    1.60
   2 -12   6    2.20    2.00
   2  12   6    0.60    1.40
  -2  12  -6    1.60    1.40
   2 -13  -6    1.10    1.50
  -2 -13   6   -1.00    1.60
   2 -13  -6    1.70    1.50
  -2  13   6    2.20    1.90
   2  13  -6    1.70    1.40
   1 -13  -6    1.90    1.60
  -1 -13   6    3.50    1.90
   1  13  -6    3.80    1.30
   1  13  -6    2.30    1.40
  -1  13   6    0.90    1.50
   0 -13  -6    0.20    1.40
   0 -13   6   -1.00    1.30
   0  13  -6    1.30    1.30
   0  13   6   -0.70    1.20
  -1 -13  -6   -0.50    1.40
   1 -13   6    0.80    1.70
   1  13   6    0.00    1.10
  -1  13  -6    2.60    1.50
   1  13   6   -0.20    1.00
  -2 -13  -6    0.80    1.90
   2 -13   6    0.20    2.00
   2  13   6   -0.90    1.30
  -2  13  -6   -0.50    1.30
  -2 -14   6    1.40    1.90
   2 -14  -6    1.50    1.60
   2  14  -6   -0.80    1.20
  -2  14   6   -1.90    1.70
  -1 -14   6    1.90    1.80
   1 -14  -6    0.00    1.60
  -1  14   6    3.30    1.80
   1  14  -6    5.40    1.60
   1  14  -6    3.70    1.50
   0 -14   6   -0.30    1.60
   0 -14  -6   -0.80    1.40
   0  14  -6   -1.50    1.00
   0  14   6   -0.60    1.20
  -1 -14  -6    2.30    1.80
   1 -14   6   -1.60    1.60
   1  14   6    1.50    1.30
  -1  14  -6   -1.00    1.20
   0 -15   6   -0.40    1.90
   0 -15  -6    0.50    1.70
   0  15  -6   -0.90    1.20
   0  15   6    0.30    1.40
   4   0  -7   -0.70    1.40
   4   0  -7    1.30    1.80
  -4   0   7   -1.60    1.40
   3   0  -7   -2.30    0.90
   3   0  -7    1.00    1.10
  -3   0   7   -1.40    1.20
  -2   0   7   -0.60    0.50
   2   0  -7   -1.30    0.60
  -2   0   7    0.60    0.90
   2   0  -7   -0.60    0.60
   1   0  -7   -0.40    0.60
  -1   0   7   -0.10    0.50
  -1   0   7   -0.90    0.50
   1   0  -7   -0.60    0.40
   0   0   7    0.00    0.50
   0   0  -7   -0.50    0.50
   0   0   7    0.40    0.50
   0   0  -7    0.40    0.50
  -1   0  -7    0.20    0.60
   1   0   7    0.40    0.70
   1   0   7    0.60    0.50
   1   0   7    0.40    0.60
  -2   0  -7   -0.70    0.80
   2   0   7    0.30    0.70
   2   0   7   -1.20    0.70
   2   0   7    0.30    0.90
  -3   0  -7   -0.20    1.10
   3   0   7    0.30    1.20
   3   0   7    1.00    1.00
  -3   0  -7   -1.40    1.10
   4   0   7    1.80    1.70
  -4   0  -7    0.10    1.50
  -4  -1   7    1.90    1.70
   4  -1  -7   -0.40    1.30
  -4   1   7   -3.10    1.30
   4   1  -7   -0.60    1.60
   4   1  -7   -1.50    1.20
   3  -1  -7    0.60    1.00
  -3  -1   7    3.60    1.50
   3  -1  -7   -0.20    1.10
   3   1  -7    0.60    1.10
  -3   1   7    0.10    1.30
   3   1  -7   -0.60    1.10
  -2  -1   7   20.00    2.20
  -2  -1   7   20.00    1.20
   2  -1  -7   21.20    1.80
   2  -1  -7   20.20    1.60
  -2   1   7   20.90    1.40
   2   1  -7   21.60    2.00
  -2   1   7   15.10    1.90
   2   1  -7   19.80    1.70
  -1  -1   7   36.30    1.50
   1  -1  -7   38.00    1.70
   1  -1  -7   35.00    1.70
  -1  -1   7   34.60    1.90
  -1   1   7   34.10    1.60
   1   1  -7   37.50    1.50
   1   1  -7   37.50    1.90
  -1   1   7   36.20    1.80
   0  -1   7   77.09    2.30
   0  -1  -7   74.89    2.50
   0  -1  -7   74.49    2.20
   0  -1   7   76.49    2.40
   0   1  -7   73.39    1.70
   0   1   7   77.99    2.00
   0   1   7   76.79    2.40
   1  -1   7    3.10    0.90
  -1  -1  -7    3.20    0.90
   1  -1   7    2.60    0.70
   1   1   7    2.10    0.50
  -1   1  -7    1.40    0.70
   1   1   7    3.60    1.00
  -1   1  -7    4.00    0.80
   1   1   7    1.70    0.70
  -2  -1  -7    8.70    1.20
   2  -1   7    9.60    1.40
   2  -1   7    9.20    1.60
  -2  -1  -7   10.20    1.60
   2  -1   7   10.80    1.50
   2   1   7    9.80    1.40
  -2   1  -7   12.60    1.70
   2   1   7   11.60    1.80
   3  -1   7    0.80    1.20
  -3  -1  -7   -0.30    1.20
   3  -1   7    0.80    1.10
   3  -1   7    0.60    1.20
  -3  -1  -7    0.40    1.10
   3   1   7    0.20    1.00
  -3   1  -7    0.00    1.00
   3   1   7    0.40    1.20
  -4  -1  -7   -0.10    1.40
   4  -1   7   -0.90    1.60
   4  -1   7    1.50    1.60
  -4   1  -7   -1.00    1.50
   4   1   7    0.50    1.70
   4  -2  -7    1.70    1.60
  -4  -2   7   -0.70    1.90
   4   2  -7    1.70    1.40
   4   2  -7    1.30    1.70
  -4   2   7    3.40    1.80
   3  -2  -7    2.10    1.00
  -3  -2   7    2.10    1.60
   3  -2  -7   -1.10    1.10
   3   2  -7    1.80    1.40
  -3   2   7    1.80    1.30
   3   2  -7    0.60    1.20
  -2  -2   7   67.19    1.80
   2  -2  -7   63.79    2.40
   2  -2  -7   67.99    3.00
  -2  -2   7   62.19    3.30
   2   2  -7   69.99    2.70
  -2   2   7   70.49    3.10
  -2   2   7   62.89    2.40
   2   2  -7   70.29    2.90
   1  -2  -7  439.86    6.80
   1  -2  -7  430.26    7.20
  -1  -2   7  433.16    6.40
  -1  -2   7  435.46    7.90
  -1   2   7  440.26    7.30
  -1   2   7  430.96    6.90
   1   2  -7  429.66    6.20
   1   2  -7  438.46    7.40
   0  -2   7  655.83    9.90
   0  -2  -7  642.94    9.40
   0  -2  -7  639.44    9.30
   0  -2   7  644.94    9.10
   0   2   7  650.33    8.40
   0   2   7  658.03    9.40
   0   2  -7  646.74    9.50
   1  -2   7  149.79    3.90
   1  -2   7  146.09    3.80
  -1  -2  -7  144.69    3.70
   1   2   7  149.29    4.00
  -1   2  -7  142.79    2.90
   1   2   7  144.19    3.70
  -1   2  -7  144.59    3.80
   2  -2   7    5.10    1.30
  -2  -2  -7    6.40    1.10
   2  -2   7    5.30    1.30
   2  -2   7    7.80    1.50
  -2  -2  -7    9.40    1.70
   2  -2   7    8.80    1.50
   2   2   7    6.90    1.20
   2   2   7    4.50    1.30
   3  -2   7    1.80    1.30
   3  -2   7    1.70    1.40
  -3  -2  -7    3.50    1.60
   3  -2   7    0.70    1.20
   3  -2   7    3.40    1.40
   3   2   7    3.60    1.20
   3   2   7    1.90    1.30
   4  -2   7    4.10    1.70
  -4  -2  -7    3.50    1.70
   4  -2   7    2.80    1.90
  -4   2  -7    2.80    1.60
   4   2   7    1.00    1.70
   4  -3  -7   -1.90    1.20
  -4  -3   7    0.50    1.90
   4   3  -7   -0.40    1.30
   4   3  -7   -1.30    1.60
  -4   3   7   -1.10    1.40
  -3  -3   7    1.80    1.50
   3  -3  -7    0.90    1.30
   3   3  -7    0.80    1.10
   3   3  -7   -0.30    1.10
  -3   3   7    0.70    1.20
  -3   3   7   -1.30    0.80
  -2  -3   7  137.49    4.70
   2  -3  -7  140.99    4.40
  -2  -3   7  131.89    2.60
   2  -3  -7  134.59    3.20
   2   3  -7  124.49    4.10
   2   3  -7  133.09    3.70
  -2   3   7  139.29    3.70
  -2   3   7  103.89    4.10
  -1  -3   7  170.08    4.60
   1  -3  -7  175.08    4.30
  -1  -3   7  167.28    3.50
   1  -3  -7  174.38    3.60
  -1   3   7  165.88    4.00
  -1   3   7  174.38    4.00
   1   3  -7  173.28    4.30
   1   3  -7  176.78    3.30
   0  -3   7  431.26    7.70
   0  -3   7  429.96    7.00
   0  -3  -7  432.36    7.30
   0   3  -7  430.46    7.30
   0   3   7  434.16    5.80
   0   3   7  427.46    7.00
   0   3   7  430.16    7.00
   1  -3   7  113.59    3.50
   1  -3   7  114.29    3.50
  -1  -3  -7  111.69    3.40
   1   3   7  112.09    3.60
   1   3   7  112.79    3.30
  -1   3  -7  109.79    3.30
   2  -3   7    1.90    1.10
  -2  -3  -7    2.00    1.30
   2  -3   7    2.80    1.20
  -2  -3  -7    4.20    0.80
   2  -3   7    5.60    1.30
   2   3   7    2.60    1.00
   2   3   7    2.90    1.20
  -2   3  -7    3.50    1.20
  -3  -3  -7   -0.20    1.20
   3  -3   7    0.70    1.20
   3  -3   7    0.10    1.00
   3  -3   7   -1.80    1.00
   3  -3   7    1.40    1.20
   3   3   7    1.20    1.00
   3   3   7    0.30    1.20
  -4  -3  -7   -1.40    1.40
   4  -3   7   -1.10    1.40
   4   3   7    0.10    1.40
  -4   3  -7    0.00    1.40
  -4  -4   7    1.20    1.90
   4  -4  -7    0.90    1.60
  -4   4   7    3.20    1.90
   4   4  -7    1.60    1.50
   4   4  -7    0.20    1.60
   3  -4  -7    5.30    1.70
  -3  -4   7    3.20    1.70
   3   4  -7    4.60    1.50
   3   4  -7    1.20    1.20
  -3   4   7    4.20    1.30
  -3   4   7    3.30    1.50
   2  -4  -7   17.50    2.10
  -2  -4   7   15.80    1.00
  -2  -4   7   17.60    2.20
   2  -4  -7   17.10    1.30
  -2   4   7   15.80    1.70
   2   4  -7   22.70    2.30
   2   4  -7   17.90    1.80
  -2   4   7   19.30    2.20
   1  -4  -7  165.48    4.40
  -1  -4   7  165.98    3.50
   1  -4  -7  163.78    3.50
  -1  -4   7  165.78    4.70
   1   4  -7  169.88    4.40
  -1   4   7  165.48    4.10
   1   4  -7  165.88    3.10
  -1   4   7  167.98    4.00
   0  -4  -7   39.20    2.20
   0  -4   7   34.50    1.90
   0  -4   7   39.80    2.20
   0   4  -7   37.40    1.90
   0   4   7   38.20    1.90
   0   4   7   42.50    2.10
   1  -4   7  177.98    4.90
   1  -4   7  176.68    4.60
  -1  -4  -7  180.78    4.60
   1   4   7  177.78    4.60
   1   4   7  170.08    4.30
  -1   4  -7  182.68    4.30
  -2  -4  -7    2.30    1.30
   2  -4   7    1.90    1.10
   2  -4   7    2.70    1.00
   2  -4   7    3.30    1.20
   2   4   7    2.70    1.00
   2   4   7    2.40    1.20
  -2   4  -7    3.70    1.20
   3  -4   7    2.40    1.50
  -3  -4  -7   -1.80    1.30
   3  -4   7   -1.10    1.10
  -3   4  -7    1.10    1.10
   3   4   7   -0.10    1.20
  -3   4  -7   -1.00    1.10
   4  -4   7    1.00    1.50
  -4  -4  -7    1.00    1.70
   4   4   7    3.20    1.70
  -4   4  -7    3.00    1.70
   4  -5  -7    0.20    1.60
  -4  -5   7   -2.10    1.70
  -4   5   7    0.60    1.80
   4   5  -7    0.00    1.40
   4   5  -7    0.40    1.80
   3  -5  -7    1.90    1.40
  -3  -5   7    5.20    1.90
   3   5  -7    2.10    1.30
   3   5  -7    1.40    1.20
  -3   5   7   -1.50    1.00
  -3   5   7    1.10    1.20
  -2  -5   7    3.00    1.30
   2  -5  -7    5.10    1.50
  -2   5   7    6.10    1.40
   2   5  -7    3.50    1.10
  -2   5   7    6.80    1.50
   2   5  -7    6.70    1.50
   1  -5  -7   50.39    2.60
  -1  -5   7   43.80    2.60
  -1  -5   7   52.49    1.60
   1  -5  -7   57.09    1.90
  -1  -5   7   53.09    2.00
  -1   5   7   55.79    2.50
   1   5  -7   57.39    2.70
  -1   5   7   54.89    2.30
   0  -5   7   94.39    3.50
   0  -5   7   92.79    3.00
   0  -5  -7   94.29    3.40
   0   5   7   93.69    2.00
   0   5  -7   93.69    3.10
   0   5   7   92.19    2.90
   0   5   7   93.79    3.20
   1  -5   7   50.29    2.80
  -1  -5  -7   56.19    2.90
   1  -5   7   60.99    2.80
   1   5   7   54.99    2.70
  -1   5  -7   58.49    2.50
   1   5   7   57.19    2.60
   2  -5   7    9.20    1.40
   2  -5   7    8.40    1.70
  -2  -5  -7   14.00    2.20
   2  -5   7    8.40    1.70
  -2   5  -7   11.40    1.90
   2   5   7   12.90    2.00
   2   5   7   11.10    1.60
  -2   5  -7    9.70    1.60
   3  -5   7    2.50    1.30
   3  -5   7    0.50    1.40
  -3  -5  -7    0.70    1.50
  -3   5  -7    1.60    1.30
   3   5   7   -0.50    1.20
   4  -5   7    1.10    1.80
   4  -5   7   -1.10    1.40
  -4  -5  -7    0.10    1.50
   4   5   7   -2.50    1.20
  -4   5  -7    1.20    1.60
   4  -6  -7    1.00    1.60
  -4  -6   7    1.00    2.00
  -4   6   7   -1.00    1.60
   4   6  -7    0.90    1.40
   4   6  -7    0.00    1.60
   3  -6  -7   25.30    3.00
  -3  -6   7   29.10    3.50
   3   6  -7   28.60    2.90
  -3   6   7   24.00    3.10
  -3   6   7   25.80    2.70
   3   6  -7   18.10    2.50
  -2  -6   7   15.40    1.80
   2  -6  -7   13.10    2.10
  -2  -6   7   15.20    2.20
  -2   6   7   12.30    1.90
  -2   6   7   14.00    2.00
   2   6  -7   13.30    2.10
   1  -6  -7   15.40    1.30
   1  -6  -7   12.50    1.90
  -1  -6   7   11.30    1.80
  -1  -6   7   11.50    1.00
   1   6  -7   15.40    1.90
  -1   6   7   11.30    1.60
   1   6  -7   13.70    1.40
  -1   6   7   12.70    1.50
   0  -6   7   23.40    1.80
   0  -6   7   23.50    2.40
   0  -6  -7   24.70    2.40
   0   6   7   23.30    1.70
   0   6   7   22.90    2.20
   0   6  -7   21.70    2.10
   0   6   7   23.00    1.10
  -1  -6  -7    4.50    1.40
   1  -6   7    3.80    1.40
   1   6   7    5.90    1.20
  -1   6  -7    3.00    1.00
  -1   6  -7    2.50    1.00
   1   6   7    1.50    1.00
  -2  -6  -7   31.10    3.10
   2  -6   7   30.40    1.90
   2  -6   7   36.20    3.00
  -2   6  -7   28.70    2.50
   2   6   7   32.00    2.60
  -2   6  -7   32.10    2.20
   2   6   7   32.60    2.20
  -3  -6  -7   -0.30    1.30
   3  -6   7    1.00    1.20
   3  -6   7    0.10    1.40
   3   6   7    1.00    1.20
  -3   6  -7   -0.20    1.20
  -4  -6  -7   -0.50    1.70
   4  -6   7    2.20    2.10
  -4   6  -7    2.70    1.60
   4   6   7    4.50    2.10
  -4  -7   7    4.20    2.30
   4  -7  -7    1.90    1.80
  -4  -7   7    1.20    1.40
   4   7  -7    3.50    1.80
  -4   7   7   -0.10    1.90
  -3  -7   7    1.70    1.20
  -3  -7   7    3.70    1.80
   3  -7  -7    1.40    1.30
  -3   7   7    3.60    1.70
  -3   7   7   -0.30    1.30
   3   7  -7    0.40    1.20
  -2  -7   7    1.30    0.90
  -2  -7   7    3.10    1.40
   2  -7  -7    1.00    1.30
  -2   7   7    1.50    1.30
   2   7  -7    1.50    1.30
  -2   7   7    0.70    1.10
  -1  -7   7  106.89    2.70
  -1  -7   7   99.69    4.10
   1  -7  -7  106.69    2.70
   1  -7  -7  105.39    4.10
  -1   7   7  113.09    4.00
   1   7  -7  102.49    3.20
   1   7  -7  112.69    4.00
  -1   7   7  103.19    3.40
   0  -7  -7    4.90    1.50
   0  -7   7    5.60    1.50
   0  -7  -7    6.30    0.80
   0   7   7    4.30    1.10
   0   7   7    6.80    1.40
   0   7  -7    6.80    1.40
   0   7  -7    6.30    1.30
  -1  -7  -7   11.60    2.00
   1  -7   7   10.60    1.90
   1   7   7   11.10    1.80
   1   7   7   11.80    1.70
  -1   7  -7   13.80    1.80
  -1   7  -7    9.40    1.60
   2  -7   7    8.90    2.00
  -2  -7  -7    5.70    1.70
  -2   7  -7    9.10    1.60
   2   7   7    7.60    1.50
   2   7   7    5.70    1.60
  -2   7  -7    4.40    1.40
   3  -7   7   -0.90    1.30
  -3  -7  -7    2.20    1.90
  -3   7  -7    2.40    1.50
   3   7   7    2.40    1.50
   4  -7   7    1.80    2.30
  -4  -7  -7    3.50    2.10
  -4   7  -7   -1.00    1.70
   4  -8  -7    2.90    2.40
  -4  -8   7    2.20    1.70
  -4  -8   7    2.20    2.10
   4   8  -7    1.10    1.60
  -4   8   7    3.10    2.20
  -3  -8   7    4.30    1.50
  -3  -8   7    4.40    1.80
   3  -8  -7    1.80    1.50
  -3   8   7    0.50    1.50
  -3   8   7    2.10    1.70
   3   8  -7    3.20    1.40
  -2  -8   7  104.89    3.70
  -2  -8   7  143.19    5.50
  -2   8   7  144.99    5.00
   2   8  -7  136.69    5.10
  -2   8   7  138.09    4.90
   1  -8  -7   11.10    2.00
  -1  -8   7   13.20    2.20
   1  -8  -7   10.20    1.60
  -1   8   7   11.10    1.90
   1   8  -7   10.70    1.40
   1   8  -7   12.30    1.90
   0  -8   7    1.70    1.20
   0  -8  -7    2.00    1.50
   0   8  -7    2.40    1.10
   0   8   7    1.40    1.20
   0   8  -7    6.90    1.50
   0   8   7    2.00    1.10
   1  -8   7   37.60    2.90
  -1  -8  -7   37.30    3.00
  -1   8  -7   35.00    2.50
  -1   8  -7   33.50    2.20
   1   8   7   36.60    2.50
   1   8   7   37.50    2.70
  -2  -8  -7    3.60    1.60
   2  -8   7    2.60    1.50
  -2   8  -7    0.30    1.10
   2   8   7    1.70    1.10
   2   8   7    0.60    1.30
  -3  -8  -7    6.10    2.10
   3  -8   7    0.50    1.50
   3   8   7    0.70    1.30
  -3   8  -7    2.00    1.70
  -3  -9   7    4.90    1.50
  -3  -9   7    8.10    2.30
   3  -9  -7    7.20    2.00
  -3   9   7   10.10    2.40
   3   9  -7    9.10    2.10
  -3   9   7   14.80    2.70
   2  -9  -7   38.40    3.10
  -2  -9   7   39.20    3.40
  -2   9   7   36.00    3.40
  -2   9   7   39.40    2.90
   2   9  -7   32.70    2.90
   1  -9  -7    4.10    1.30
  -1  -9   7    1.00    1.30
   1  -9  -7    2.20    1.30
   1   9  -7    3.90    1.40
   1   9  -7    4.80    1.20
  -1   9   7    5.90    1.70
   0  -9   7    8.80    1.90
   0  -9  -7    9.80    2.20
   0   9  -7    9.40    1.70
   0   9   7    5.30    1.30
   0   9  -7    8.40    1.70
   0   9   7    9.00    1.80
  -1  -9  -7   74.79    4.00
   1  -9   7   81.79    4.20
  -1   9  -7   80.99    3.80
   1   9   7   71.59    3.40
  -1   9  -7   80.19    3.20
   1   9   7   72.89    3.50
   2  -9   7    7.10    2.00
  -2  -9  -7    9.90    2.20
  -2   9  -7    6.40    1.80
   2   9   7    8.40    1.80
   2   9   7    8.80    2.10
   3  -9   7    0.90    2.00
  -3  -9  -7    4.20    2.00
  -3   9  -7    0.50    1.50
   3   9   7    0.90    1.50
  -3 -10   7    1.00    1.70
   3 -10  -7    5.10    1.80
  -3  10   7    3.60    2.20
   3  10  -7    3.50    1.60
  -3  10   7    2.20    2.10
  -2 -10   7   -0.80    1.20
   2 -10  -7    2.30    1.40
  -2  10   7   -2.20    1.20
   2  10  -7    1.60    1.30
  -2  10   7    2.00    1.20
  -1 -10   7   -0.50    1.20
   1 -10  -7    0.90    1.10
   1 -10  -7    1.00    1.40
  -1  10   7   -0.80    1.20
   1  10  -7   -0.10    1.10
   1  10  -7    0.40    0.90
   0 -10   7   19.50    2.80
   0 -10  -7   19.10    2.60
   0  10  -7   20.00    2.40
   0  10  -7   21.90    2.40
   0  10   7   19.10    2.30
   0  10   7   17.30    2.00
   1 -10   7    0.60    1.40
  -1 -10  -7    0.00    1.30
   1  10   7   -0.10    1.20
  -1  10  -7   -0.10    1.10
   1  10   7    0.90    1.00
   2 -10   7   12.10    2.60
  -2 -10  -7   11.30    2.40
   2  10   7    9.20    2.10
  -2  10  -7    6.60    1.90
   2  10   7    5.90    1.60
   3 -10   7    2.70    2.00
  -3 -10  -7    0.20    1.60
   3  10   7    0.30    1.50
  -3  10  -7    1.80    1.60
  -3 -11   7    2.30    2.00
   3 -11  -7    0.80    1.50
  -3  11   7    2.60    2.10
   3  11  -7    1.00    1.50
  -3  11   7   -1.70    1.80
   2 -11  -7    0.80    1.30
   2 -11  -7   -1.60    1.20
  -2 -11   7    0.50    1.40
  -2  11   7   -1.80    1.40
   2  11  -7   -0.30    1.20
  -1 -11   7    3.60    1.60
   1 -11  -7    2.50    1.50
   1  11  -7   -0.10    1.10
   1  11  -7   -0.40    0.90
  -1  11   7   -0.70    1.20
   0 -11   7   20.80    2.80
   0 -11  -7   20.20    2.80
   0  11   7   18.70    2.40
   0  11  -7   17.60    2.20
   0  11  -7   15.50    2.00
   1 -11   7    4.00    1.80
  -1 -11  -7    4.50    1.80
   1  11   7    1.80    1.20
   1  11   7    0.90    1.30
  -1  11  -7    4.30    1.60
  -2 -11  -7    4.20    1.90
   2 -11   7    2.70    2.00
   2  11   7    2.80    1.60
   2  11   7    4.80    1.50
  -2  11  -7    7.60    2.00
   3 -11   7    3.60    2.40
  -3 -11  -7    1.60    1.90
   3  11   7   -1.30    1.40
  -3  11  -7    2.60    1.70
  -3 -12   7    4.60    2.30
  -3  12   7   -0.50    2.00
  -3  12   7    2.30    2.10
  -2 -12   7    2.20    1.80
   2 -12  -7    1.70    1.50
   2 -12  -7   -0.50    1.30
   2  12  -7    1.80    1.40
  -2  12   7    2.30    1.90
  -1 -12   7    6.70    2.10
   1 -12  -7    4.50    1.80
   1  12  -7    2.30    1.20
   1  12  -7    4.40    1.60
  -1  12   7    1.90    1.50
   0 -12  -7   -2.00    1.30
   0 -12   7    2.00    1.40
   0  12  -7   -0.90    0.90
   0  12  -7    0.60    1.20
   0  12   7    0.40    1.30
  -1 -12  -7    1.20    1.60
   1 -12   7    2.50    1.70
   1  12   7    0.60    1.30
   1  12   7    0.80    1.20
  -1  12  -7    1.00    1.20
  -2 -12  -7    2.60    1.90
   2 -12   7    3.10    2.20
  -2  12  -7    2.30    1.60
   2  12   7    3.00    1.60
   2 -13  -7    1.90    1.50
  -2 -13   7    3.20    2.10
   2  13  -7    2.40    1.60
  -2  13   7    5.20    2.30
   1 -13  -7    6.00    2.20
  -1 -13   7   11.40    2.60
   1  13  -7    8.80    1.90
  -1  13   7    4.90    1.90
   1  13  -7    4.20    1.90
   0 -13   7    8.90    2.40
   0 -13  -7    2.50    1.70
   0  13   7    4.40    1.60
   0  13  -7    4.90    1.70
  -1 -13  -7    3.10    1.80
   1 -13   7    1.00    1.60
   1  13   7    1.90    1.60
  -1  13  -7    2.50    1.50
   1  13   7    1.40    1.30
   2 -13   7    1.60    2.30
  -2 -13  -7   -2.10    1.50
  -2  13  -7   -0.80    1.20
   2  13   7    1.50    1.60
  -1 -14   7   -0.40    1.60
   1 -14  -7   -2.30    1.20
   1  14  -7    0.20    1.30
  -1  14   7    0.60    1.40
   0 -14  -7    1.60    1.60
   0 -14   7    4.20    2.20
   0  14   7    2.90    1.50
   0  14  -7   -0.20    1.10
  -1 -14  -7    3.60    1.90
   1 -14   7    0.70    1.90
   1  14   7   -0.60    1.30
  -1  14  -7   -0.10    1.10
  -4   0   8   57.39    4.50
   4   0  -8   63.89    4.40
   4   0  -8   58.19    3.40
  -3   0   8   24.80    2.90
   3   0  -8   20.80    2.50
   3   0  -8   25.60    2.50
  -2   0   8    2.00    0.70
   2   0  -8    2.60    1.00
   2   0  -8    1.60    1.00
  -2   0   8    1.50    1.10
  -1   0   8   75.99    2.80
  -1   0   8   74.79    2.40
   1   0  -8   72.89    2.60
   1   0  -8   74.59    2.40
   0   0  -8   12.50    1.50
   0   0   8   10.60    1.10
   0   0   8   11.50    1.40
   0   0  -8   12.40    1.20
   1   0   8   11.00    1.40
  -1   0  -8   12.80    1.60
   1   0   8   11.00    1.10
  -1   0  -8   13.30    1.40
   2   0   8    9.40    1.50
   2   0   8    6.00    1.50
   2   0   8    7.40    1.30
  -2   0  -8    4.70    1.30
   3   0   8    3.30    1.50
  -3   0  -8    1.30    1.20
   3   0   8    4.00    1.40
  -3   0  -8    4.40    1.50
  -4   0  -8   14.60    2.60
   4   0   8   11.70    2.50
   4  -1  -8    1.50    1.50
  -4  -1   8    0.50    1.70
  -4   1   8   -0.20    1.70
   4   1  -8    2.90    1.90
   4   1  -8    2.80    1.50
   3  -1  -8    2.90    1.20
  -3  -1   8    2.50    1.50
   3  -1  -8    2.40    1.30
   3   1  -8    4.90    1.50
   3   1  -8    4.90    1.50
  -3   1   8    5.20    1.60
  -2  -1   8   70.89    3.40
   2  -1  -8   71.19    3.00
  -2  -1   8   69.79    2.10
   2  -1  -8   68.29    2.70
   2   1  -8   65.79    2.70
  -2   1   8   66.09    2.40
  -2   1   8   70.29    3.30
   2   1  -8   65.39    2.90
  -1  -1   8   23.50    1.80
   1  -1  -8   26.10    1.60
  -1  -1   8   26.50    1.50
   1  -1  -8   26.70    1.60
   1   1  -8   27.50    1.40
  -1   1   8   26.70    1.70
   1   1  -8   25.10    1.70
  -1   1   8   25.70    1.60
   0  -1   8   67.99    2.30
   0  -1  -8   67.39    2.20
   0  -1  -8   63.79    2.40
   0  -1   8   62.79    2.40
   0   1   8   63.39    1.90
   0   1  -8   66.19    1.70
   0   1  -8   63.79    2.50
   0   1   8   66.39    2.40
   1  -1   8   60.89    2.30
  -1  -1  -8   61.29    2.40
   1  -1   8   58.69    2.50
  -1   1  -8   59.29    2.00
   1   1   8   61.29    1.80
   1   1   8   64.89    2.60
  -1   1  -8   61.89    2.60
   1   1   8   63.69    2.70
   2  -1   8   34.50    2.30
   2  -1   8   33.90    2.40
  -2  -1  -8   33.30    2.40
   2  -1   8   35.30    2.20
   2   1   8   32.50    2.20
   2   1   8   30.10    1.90
  -2   1  -8   35.20    2.20
   2   1   8   34.60    2.50
   3  -1   8    3.10    1.30
   3  -1   8   -0.30    1.00
  -3  -1  -8    0.60    1.40
   3  -1   8    2.00    1.30
   3   1   8   -0.60    1.00
  -3   1  -8    0.10    1.10
   3   1   8    2.30    1.40
  -4  -1  -8   -1.50    1.40
   4  -1   8    0.10    1.50
   4   1   8   -0.40    1.40
  -4   1  -8    0.50    1.40
   4  -2  -8   42.20    3.60
  -4  -2   8   42.20    4.40
   4   2  -8   47.50    4.50
  -4   2   8   38.50    4.20
   4   2  -8   43.30    3.30
  -3  -2   8   13.10    2.30
   3  -2  -8   10.10    1.60
   3  -2  -8    9.00    2.00
   3   2  -8   13.70    2.10
  -3   2   8   17.70    2.60
   3   2  -8   14.60    2.10
   2  -2  -8    3.60    1.20
   2  -2  -8    3.20    1.00
  -2  -2   8    3.20    0.70
  -2  -2   8    4.00    1.50
  -2   2   8    2.70    1.20
  -2   2   8    2.90    1.00
   2   2  -8    4.10    1.20
   2   2  -8    4.20    1.10
   1  -2  -8    0.70    0.70
  -1  -2   8    0.40    0.80
   1  -2  -8   -0.40    0.60
  -1  -2   8    0.30    0.50
  -1   2   8    0.10    0.60
   1   2  -8    0.20    0.70
   1   2  -8    0.70    0.50
  -1   2   8   -0.40    0.60
   0  -2  -8   22.10    1.50
   0  -2   8   19.50    1.50
   0  -2   8   23.70    1.60
   0  -2  -8   21.50    1.60
   0   2   8   21.60    1.10
   0   2  -8   21.50    1.60
   0   2   8   21.30    1.50
   1  -2   8   17.30    1.80
   1  -2   8   13.60    1.50
  -1  -2  -8   18.20    1.60
  -1   2  -8   16.90    1.10
   1   2   8   16.30    1.80
  -1   2  -8   18.40    1.60
   1   2   8   18.20    1.60
  -2  -2  -8   -1.30    1.00
   2  -2   8   -0.60    0.80
   2  -2   8    0.00    0.90
  -2  -2  -8    0.50    0.70
   2   2   8   -1.70    0.70
   2   2   8    0.40    1.10
  -2   2  -8    0.80    0.90
  -2   2  -8   -1.00    0.80
   3  -2   8   -0.10    1.10
   3  -2   8   -0.40    1.00
   3  -2   8   -0.20    1.20
   3  -2   8   -2.40    1.00
  -3  -2  -8    0.80    1.40
   3   2   8   -1.80    0.90
   3   2   8    1.20    1.00
   4  -2   8    3.30    1.80
  -4  -2  -8    0.30    1.60
   4   2   8    0.40    1.70
  -4   2  -8    4.00    1.80
   4  -3  -8   13.90    2.70
  -4  -3   8   14.60    3.10
  -4   3   8   17.90    3.00
   4   3  -8   21.20    3.20
   4   3  -8   20.90    2.90
  -3  -3   8    3.30    1.80
   3  -3  -8    3.80    1.50
  -3   3   8    2.30    1.40
   3   3  -8    1.30    1.30
  -3   3   8    3.20    1.10
   3   3  -8    1.80    1.30
   2  -3  -8    8.00    1.20
   2  -3  -8    7.80    1.50
  -2  -3   8    6.20    1.60
  -2  -3   8    6.90    0.90
   2   3  -8    6.00    1.50
  -2   3   8    6.80    1.20
  -2   3   8    6.40    1.50
   2   3  -8    8.10    1.30
  -1  -3   8   -0.10    0.50
   1  -3  -8    0.20    0.60
  -1  -3   8   -1.50    0.60
   1  -3  -8    0.80    0.90
   1   3  -8    0.30    0.40
   1   3  -8    1.10    0.80
  -1   3   8   -0.70    0.50
  -1   3   8    0.20    0.70
   0  -3  -8  305.07    6.00
   0  -3   8  312.27    5.90
   0  -3   8  308.27    6.30
   0  -3  -8  310.37    5.90
   0   3  -8  311.27    6.10
   0   3   8  311.57    4.60
   0   3   8  310.77    6.00
  -1  -3  -8   62.69    2.70
   1  -3   8   62.69    2.70
   1  -3   8   61.09    2.80
   1   3   8   65.99    2.70
  -1   3  -8   65.99    2.70
   1   3   8   64.89    2.90
   2  -3   8   10.60    1.70
   2  -3   8   10.90    1.80
   2  -3   8    9.70    1.50
  -2  -3  -8   11.00    1.90
  -2   3  -8    8.40    1.60
   2   3   8    6.00    1.60
   2   3   8    7.50    1.50
   3  -3   8    2.10    1.40
   3  -3   8    2.30    1.40
   3  -3   8    0.30    1.20
  -3  -3  -8    1.20    1.50
  -3   3  -8    3.70    1.50
   3   3   8    2.80    1.50
   3   3   8    0.40    1.00
   4  -3   8    3.80    1.90
  -4  -3  -8    1.00    1.70
  -4   3  -8    3.60    1.80
   4   3   8   -0.20    1.50
  -4  -4   8    0.70    1.90
   4  -4  -8   -1.00    1.40
  -4   4   8   -1.70    1.50
   4   4  -8    0.60    1.30
   4   4  -8   -1.70    1.60
   3  -4  -8   28.30    3.10
  -3  -4   8   31.60    3.40
   3   4  -8   31.30    2.60
  -3   4   8   31.80    2.30
   3   4  -8   33.10    2.80
  -3   4   8   36.00    3.10
  -2  -4   8   17.80    1.10
   2  -4  -8   17.70    2.20
  -2  -4   8   15.50    2.20
   2  -4  -8   14.80    1.40
  -2   4   8   18.30    2.20
   2   4  -8   16.90    1.80
  -2   4   8   12.80    1.70
   2   4  -8   16.20    2.10
   1  -4  -8   17.70    1.90
  -1  -4   8   17.90    1.40
  -1  -4   8   18.70    2.10
   1  -4  -8   17.40    1.40
  -1   4   8   18.30    1.40
  -1   4   8   15.80    1.70
   1   4  -8   15.90    1.00
   1   4  -8   20.60    2.10
   0  -4  -8   41.20    2.30
   0  -4   8   44.00    2.20
   0  -4   8   45.60    2.40
   0   4   8   42.00    2.10
   0   4  -8   41.30    2.20
   0   4   8   41.30    2.20
   1  -4   8   29.30    2.10
  -1  -4  -8   29.10    2.30
   1  -4   8   29.10    2.10
   1   4   8   29.80    2.00
  -1   4  -8   27.10    2.00
   1   4   8   29.40    2.20
   2  -4   8   16.40    2.10
  -2  -4  -8   17.60    2.30
   2  -4   8   16.70    2.10
   2  -4   8   17.30    1.80
   2   4   8   10.30    1.90
   2   4   8   14.10    1.80
  -2   4  -8   18.50    2.10
   3  -4   8    1.40    1.30
   3  -4   8    0.80    1.20
  -3  -4  -8    5.60    1.90
  -3   4  -8    1.90    1.20
   3   4   8    4.30    1.60
  -3   4  -8    3.20    1.40
  -4  -4  -8    2.00    2.00
   4  -4   8    0.20    1.50
  -4   4  -8    2.50    1.70
   4   4   8    0.50    1.60
   4  -5  -8    0.70    1.70
  -4  -5   8    3.70    2.40
  -4   5   8   -0.30    1.60
   4   5  -8   -3.00    1.40
   4   5  -8   -0.60    1.30
  -3  -5   8    5.40    1.90
   3  -5  -8    1.50    1.40
  -3   5   8    3.80    1.30
   3   5  -8    3.10    1.50
   3   5  -8    3.40    1.50
  -3   5   8    3.60    1.70
  -2  -5   8   -1.30    1.00
   2  -5  -8   -0.70    1.00
   2   5  -8    0.40    0.80
  -2   5   8   -0.60    0.90
  -2   5   8    0.80    1.00
   2   5  -8    0.30    1.10
   1  -5  -8   33.30    1.70
  -1  -5   8   34.50    1.80
   1  -5  -8   34.00    2.40
  -1  -5   8   31.30    2.40
   1   5  -8   40.40    2.50
  -1   5   8   38.10    2.30
  -1   5   8   35.70    1.90
   0  -5   8    5.20    1.30
   0  -5  -8    4.20    1.30
   0  -5   8    6.10    1.20
   0   5   8    8.30    1.30
   0   5  -8    7.50    1.40
   0   5   8    5.30    1.20
   1  -5   8    0.30    0.90
  -1  -5  -8    2.40    1.20
   1  -5   8   -0.90    0.80
   1   5   8    1.50    1.00
  -1   5  -8    0.50    0.80
   1   5   8    2.30    1.00
   2  -5   8   11.10    1.90
   2  -5   8    9.60    1.80
  -2  -5  -8   12.20    2.20
   2  -5   8   11.60    1.50
  -2   5  -8   10.80    1.80
   2   5   8    9.40    1.90
   2   5   8    9.40    1.60
   3  -5   8   -1.50    1.20
  -3  -5  -8   -1.00    1.30
   3  -5   8    0.20    1.20
  -3   5  -8    0.90    1.30
   3   5   8    0.00    1.20
  -4  -5  -8    3.00    2.10
   4  -5   8   -2.50    1.60
   4   5   8   -1.50    1.30
  -4   5  -8    1.20    1.60
  -4  -6   8    8.00    2.70
   4  -6  -8    7.10    2.50
   4   6  -8   11.60    2.60
  -4   6   8    8.60    2.80
   4   6  -8   10.10    2.30
  -3  -6   8    0.10    1.30
   3  -6  -8   -0.70    1.40
  -3   6   8   -0.50    1.40
   3   6  -8   -0.40    1.00
  -3   6   8    0.40    1.20
   3   6  -8   -0.50    1.10
  -2  -6   8    5.60    1.70
  -2  -6   8    7.50    1.30
   2  -6  -8    6.50    1.80
   2   6  -8    6.30    1.60
  -2   6   8    6.00    1.60
  -2   6   8    8.70    1.70
   1  -6  -8    0.00    0.70
   1  -6  -8    0.30    1.10
  -1  -6   8   -0.40    0.70
  -1  -6   8   -0.40    1.00
  -1   6   8   -0.60    0.60
  -1   6   8    1.10    1.00
   1   6  -8    0.30    1.00
   0  -6   8    9.30    1.70
   0  -6   8   10.90    1.50
   0  -6  -8    8.40    1.60
   0   6   8   13.30    1.60
   0   6   8    8.70    1.60
   0   6  -8   10.20    1.60
  -1  -6  -8    1.20    1.30
   1  -6   8    0.50    1.00
   1  -6   8   -0.80    0.90
   1   6   8    0.50    1.00
   1   6   8    1.10    1.00
  -1   6  -8    0.40    0.90
  -2  -6  -8   13.50    2.20
   2  -6   8   14.30    2.30
   2   6   8   14.60    2.20
  -2   6  -8   18.00    2.10
   2   6   8   14.60    1.80
  -2   6  -8   15.70    2.10
   3  -6   8   -0.50    1.20
  -3  -6  -8   -2.30    1.30
  -3   6  -8   -0.30    1.10
   3   6   8   -1.50    1.00
   4  -6   8   -1.60    1.80
  -4  -6  -8   -1.90    1.60
   4   6   8    0.00    1.60
  -4   6  -8    0.10    1.60
   4  -7  -8    3.10    2.00
  -4  -7   8    0.40    1.40
  -4  -7   8   -2.60    1.80
   4   7  -8    4.50    1.70
  -4   7   8    3.70    2.30
   3  -7  -8    5.90    1.80
  -3  -7   8    9.50    2.20
  -3  -7   8   10.60    1.90
  -3   7   8    7.80    2.00
   3   7  -8    7.10    1.90
  -3   7   8    6.10    2.00
  -2  -7   8    2.50    1.40
   2  -7  -8    3.10    1.50
  -2  -7   8    4.60    1.20
  -2   7   8    2.70    1.40
   2   7  -8    5.30    1.50
  -2   7   8    3.70    1.50
  -1  -7   8   23.20    2.60
   1  -7  -8   21.50    1.50
   1  -7  -8   23.00    2.70
  -1   7   8   18.60    2.20
   1   7  -8   20.00    1.70
  -1   7   8   20.50    1.80
   1   7  -8   22.00    2.40
   0  -7   8   24.50    2.50
   0  -7  -8   27.10    2.70
   0   7  -8   29.00    2.20
   0   7   8   29.30    2.00
   0   7   8   28.70    2.30
   0   7  -8   24.90    2.10
   1  -7   8   11.80    2.00
  -1  -7  -8   15.40    2.30
  -1   7  -8   17.90    2.00
   1   7   8   16.90    2.10
  -1   7  -8   13.90    2.00
   1   7   8   16.30    2.10
   2  -7   8    2.90    1.50
  -2  -7  -8   -0.40    1.30
   2   7   8    3.30    1.20
  -2   7  -8    2.60    1.20
   2   7   8    3.40    1.50
  -2   7  -8    1.90    1.20
  -3  -7  -8    0.20    1.50
   3  -7   8   -1.00    1.40
   3   7   8   -0.80    1.30
  -3   7  -8    1.90    1.50
  -4  -8   8    1.80    1.40
   4  -8  -8    3.40    2.10
  -4  -8   8    1.20    2.20
   4   8  -8   -1.40    1.20
  -4   8   8   -3.80    1.90
  -3  -8   8    4.30    1.90
  -3  -8   8    2.80    1.30
   3  -8  -8    6.50    2.00
   3   8  -8    2.30    1.50
  -3   8   8    4.40    1.80
  -3   8   8    3.00    1.80
  -2  -8   8    6.30    1.90
   2  -8  -8    7.20    1.80
   2   8  -8    8.30    2.00
  -2   8   8    7.00    1.70
  -2   8   8    8.80    2.00
   1  -8  -8  226.48    6.40
  -1  -8   8  228.08    6.70
  -1   8   8  221.88    6.10
   1   8  -8  218.28    6.00
   1   8  -8  215.98    5.10
  -1   8   8  212.48    5.20
   0  -8  -8   22.90    2.70
   0  -8   8   23.70    2.70
   0   8  -8   22.30    2.30
   0   8   8   20.80    2.10
   0   8   8   23.60    2.50
   0   8  -8   23.80    2.50
   1  -8   8  121.19    5.00
  -1  -8  -8  118.69    4.80
  -1   8  -8  112.99    4.30
  -1   8  -8  120.69    4.00
   1   8   8  119.79    4.30
   1   8   8  113.09    4.30
   2  -8   8   23.90    3.10
  -2  -8  -8   20.90    2.90
   2   8   8   19.00    2.60
   2   8   8   20.00    2.20
  -2   8  -8   16.50    2.40
   3  -8   8   -0.40    1.60
  -3  -8  -8    1.00    1.60
   3   8   8    0.40    1.40
  -3   8  -8   -0.50    1.30
   3  -9  -8   -0.10    1.30
  -3  -9   8    1.90    1.90
   3   9  -8    0.10    1.20
  -3   9   8    2.40    1.60
  -3   9   8    1.30    1.60
   2  -9  -8   20.90    2.70
  -2  -9   8   19.90    2.90
  -2   9   8   19.70    2.60
  -2   9   8   25.20    3.10
   2   9  -8   21.30    2.70
   1  -9  -8    1.30    1.30
  -1  -9   8    0.00    1.30
   1   9  -8    0.80    0.90
   1   9  -8    1.30    1.20
  -1   9   8   -0.70    0.70
  -1   9   8   -0.20    1.20
   0  -9   8  114.29    4.90
   0  -9  -8  118.49    4.80
   0   9  -8  113.19    4.10
   0   9   8  110.49    3.80
   0   9   8  102.19    4.20
   0   9  -8  112.59    4.10
  -1  -9  -8   50.29    3.60
   1  -9   8   54.99    3.60
  -1   9  -8   52.99    2.90
  -1   9  -8   51.79    3.20
   1   9   8   48.10    3.00
   1   9   8   50.29    3.10
  -2  -9  -8   44.70    3.60
   2  -9   8   49.10    3.80
   2   9   8   48.40    3.50
   2   9   8   53.19    3.20
  -2   9  -8   44.60    3.30
  -3  -9  -8    4.70    2.00
   3  -9   8    9.10    2.60
   3   9   8    1.20    1.60
  -3   9  -8    7.50    2.20
  -3 -10   8   -1.90    1.50
   3 -10  -8   -0.10    1.40
  -3  10   8   -0.80    1.60
  -3  10   8   -0.30    1.70
   3  10  -8    0.80    1.40
   2 -10  -8    4.20    1.60
  -2 -10   8    5.30    1.90
  -2  10   8    5.60    1.50
   2  10  -8    5.30    1.60
  -2  10   8    6.30    2.00
   1 -10  -8   22.60    2.80
  -1 -10   8   23.60    3.00
  -1  10   8   18.50    2.70
   1  10  -8   24.40    2.70
   1  10  -8   24.10    2.30
   0 -10  -8    1.10    1.50
   0 -10   8    0.90    1.30
   0  10   8    0.10    1.00
   0  10   8    1.30    1.00
   0  10  -8   -0.20    1.00
   0  10  -8    2.80    1.30
   1 -10   8   70.39    4.20
  -1 -10  -8   78.99    4.50
   1  10   8   76.49    3.70
  -1  10  -8   67.19    3.60
   1  10   8   83.79    3.90
  -1  10  -8   71.09    3.30
   2 -10   8   -0.30    1.40
  -2 -10  -8    0.30    1.50
   2  10   8    0.20    1.20
   2  10   8    0.10    1.40
  -2  10  -8   -0.10    1.10
   3 -10   8    8.00    2.90
  -3 -10  -8    2.70    1.90
   3  10   8    8.10    2.30
  -3  10  -8    3.90    2.00
   3 -11  -8   -0.10    1.60
  -3 -11   8   -1.30    1.90
  -3  11   8    1.20    2.00
   3  11  -8    0.00    1.50
  -3  11   8    1.40    1.90
   2 -11  -8    2.60    1.50
  -2 -11   8   -0.30    1.50
   2  11  -8   -1.30    1.00
  -2  11   8   -1.10    1.50
  -2  11   8   -2.10    1.00
   1 -11  -8    8.20    2.00
  -1 -11   8   10.80    2.40
  -1  11   8    6.70    1.90
   1  11  -8   10.60    2.10
   1  11  -8   10.50    1.80
   0 -11   8    0.70    1.30
   0 -11  -8   -0.50    1.40
   0  11   8   -0.50    1.10
   0  11  -8   -0.90    1.00
   0  11  -8    0.20    0.90
  -1 -11  -8   -0.20    1.60
   1 -11   8    0.10    1.50
   1  11   8   -0.60    1.10
   1  11   8    1.40    1.30
  -1  11  -8   -0.30    1.00
  -2 -11  -8    4.80    1.90
   2 -11   8    3.90    2.10
  -2  11  -8    1.90    1.50
   2  11   8    4.40    1.90
   2  11   8    2.20    1.40
  -2 -12   8    1.50    1.80
   2 -12  -8    0.30    1.20
  -2  12   8   -0.10    1.70
   2  12  -8    1.60    1.40
   1 -12  -8    3.60    1.90
  -1 -12   8    1.00    1.50
   1  12  -8    2.20    1.20
   1  12  -8    2.70    1.50
  -1  12   8    0.90    1.40
   0 -12   8    0.50    1.40
   0 -12  -8   -1.10    1.40
   0  12  -8    0.80    1.10
   0  12   8   -0.70    1.00
   0  12  -8   -1.50    0.90
   1 -12   8    0.00    1.70
  -1 -12  -8   -0.60    1.50
   1  12   8   -0.30    1.00
   1  12   8   -0.70    1.20
  -1  12  -8   -1.70    0.90
   2 -12   8    0.90    2.00
  -2 -12  -8   -2.40    1.40
  -2  12  -8    0.50    1.50
   2  12   8    3.00    1.90
   2 -13  -8   15.50    2.80
  -2 -13   8   23.90    3.90
   2  13  -8   11.00    2.40
  -2  13   8    7.40    2.60
  -1 -13   8    5.60    2.10
   1 -13  -8    6.30    2.20
   1  13  -8    4.70    1.80
  -1  13   8   10.00    2.40
   1  13  -8    4.00    1.60
   0 -13  -8    7.90    2.10
   0 -13   8    8.50    2.60
   0  13   8    3.40    1.60
   0  13  -8    7.50    1.80
  -1 -13  -8   -1.50    1.40
   1 -13   8   -2.30    1.60
   1  13   8    0.70    1.30
  -1  13  -8    0.20    1.30
   1 -14  -8   -1.10    1.40
  -1 -14   8    1.50    2.00
   1  14  -8   -0.30    1.30
  -1  14   8    0.30    1.50
   0 -14   8    3.10    2.00
   0 -14  -8   -0.50    1.40
   0  14   8    3.20    1.60
   0  14  -8    0.80    1.30
   1 -14   8    1.50    2.10
  -1 -14  -8   -0.80    1.60
  -1  14  -8   -1.40    1.10
   1  14   8    1.10    1.30
  -4   0   9   -0.60    1.80
   4   0  -9    0.30    1.30
   4   0  -9    0.80    1.70
  -3   0   9    1.60    1.40
   3   0  -9    1.10    1.20
   3   0  -9   -1.20    1.00
  -2   0   9    0.80    0.70
   2   0  -9   -0.20    0.80
   2   0  -9    1.20    1.00
  -2   0   9    0.10    1.10
  -1   0   9    0.70    0.70
   1   0  -9    0.60    0.70
  -1   0   9    0.30    0.70
   1   0  -9    1.30    0.80
   0   0  -9   -0.10    0.60
   0   0  -9   -0.40    0.60
   0   0   9    0.60    0.50
   0   0   9   -0.40    0.50
   1   0   9    0.40    0.50
  -1   0  -9   -0.40    0.70
  -1   0  -9   -0.80    0.70
   1   0   9   -0.20    0.70
   2   0   9    0.10    0.80
  -2   0  -9   -1.10    0.90
   2   0   9    0.10    0.90
   2   0   9    0.40    1.10
   3   0   9    0.80    1.40
   3   0   9    0.20    1.10
  -3   0  -9    2.50    1.50
  -4   0  -9   -1.10    1.70
   4   0   9   -2.70    1.40
   4  -1  -9   26.20    3.30
  -4  -1   9   19.60    3.40
   4   1  -9   28.00    2.90
  -4   1   9   22.70    3.30
   4   1  -9   29.20    3.70
   3  -1  -9    8.30    1.70
   3  -1  -9   10.20    2.00
  -3  -1   9    6.00    1.90
   3   1  -9    8.50    1.90
  -3   1   9    8.30    2.00
   3   1  -9    6.90    1.60
   2  -1  -9    3.30    1.20
   2  -1  -9    1.60    1.00
  -2  -1   9    1.60    0.70
  -2  -1   9    3.30    1.40
  -2   1   9    1.60    0.90
   2   1  -9    1.20    1.10
   2   1  -9    2.10    1.00
  -2   1   9    1.40    1.10
  -1  -1   9    0.80    0.60
   1  -1  -9    0.50    0.80
   1  -1  -9    0.40    0.60
  -1  -1   9    0.40    0.80
   1   1  -9    0.20    0.60
  -1   1   9    0.20    0.70
  -1   1   9    0.70    0.60
   1   1  -9    0.90    0.70
   0  -1   9   49.40    2.30
   0  -1  -9   49.00    2.30
   0  -1   9   49.50    2.10
   0  -1  -9   48.90    2.00
   0   1   9   48.10    1.80
   0   1  -9   51.09    1.60
   0   1  -9   52.09    2.40
   0   1   9   53.79    2.30
  -1  -1  -9   -0.70    0.80
   1  -1   9    0.60    0.60
   1  -1   9    1.40    0.80
  -1   1  -9    1.30    0.90
  -1   1  -9    0.60    0.70
   1   1   9    1.20    0.50
   1   1   9    1.50    0.90
   1   1   9    1.30    1.00
   2  -1   9   23.40    1.90
   2  -1   9   19.50    2.10
  -2  -1  -9   27.90    2.60
   2  -1   9   17.30    2.20
  -2   1  -9   21.80    2.10
   2   1   9   18.90    1.60
   2   1   9   21.90    2.20
   2   1   9   20.00    2.40
  -3  -1  -9    4.40    1.60
   3  -1   9    2.50    1.40
   3  -1   9   -0.30    1.10
   3  -1   9    0.30    1.10
  -3   1  -9    1.60    1.40
   3   1   9   -0.10    1.20
   3   1   9    1.50    1.10
   4  -1   9    0.30    1.70
  -4  -1  -9    0.70    1.60
   4   1   9   -1.20    1.60
  -4   1  -9    0.20    1.50
  -4  -2   9    4.90    2.60
   4  -2  -9    8.30    2.10
  -4   2   9    1.00    1.80
   4   2  -9    8.70    2.40
   4   2  -9    5.10    1.90
  -3  -2   9   12.60    2.40
   3  -2  -9   15.90    1.90
   3  -2  -9   11.10    2.20
   3   2  -9   14.90    2.30
  -3   2   9   13.70    2.40
   3   2  -9   16.40    2.30
  -2  -2   9   11.50    2.00
   2  -2  -9   12.70    1.80
   2  -2  -9   14.20    1.70
  -2  -2   9   13.90    1.30
   2   2  -9   14.60    1.70
   2   2  -9   14.50    2.00
  -2   2   9   15.30    1.70
  -2   2   9    8.50    1.60
  -1  -2   9  162.78    3.80
   1  -2  -9  162.78    4.00
   1  -2  -9  161.58    4.20
  -1  -2   9  167.38    4.60
  -1   2   9  159.78    4.10
   1   2  -9  165.78    3.30
  -1   2   9  170.08    4.20
   1   2  -9  167.08    4.50
   0  -2   9   13.90    1.50
   0  -2   9   14.50    1.60
   0  -2  -9   16.30    1.70
   0  -2  -9   15.20    1.70
   0   2   9   13.70    1.00
   0   2  -9   14.60    1.70
   0   2   9   13.30    1.60
   1  -2   9  254.67    5.70
  -1  -2  -9  243.38    5.40
   1  -2   9  253.17    5.50
   1   2   9  250.27    5.80
  -1   2  -9  247.58    5.70
  -1   2  -9  245.68    4.30
  -2  -2  -9    2.30    1.30
   2  -2   9   -0.70    0.80
   2  -2   9    0.10    1.00
   2   2   9   -0.40    0.90
   2   2   9    1.10    1.10
  -2   2  -9   -0.30    0.90
  -2   2  -9    0.20    1.10
   3  -2   9    0.80    1.30
   3  -2   9    1.20    1.20
   3  -2   9    0.70    1.40
  -3  -2  -9    0.30    1.30
   3   2   9    2.80    1.50
  -3   2  -9    0.80    1.30
   3   2   9    2.40    1.30
   4  -2   9    3.20    1.90
  -4  -2  -9    3.00    2.00
   4   2   9   -0.50    1.60
  -4   2  -9    0.90    1.50
   4  -3  -9    1.40    1.50
  -4  -3   9    0.10    2.00
   4   3  -9    1.60    1.90
   4   3  -9    4.00    1.70
  -4   3   9    3.20    2.20
   3  -3  -9    2.90    1.60
  -3  -3   9    3.80    1.80
   3   3  -9    4.40    1.60
   3   3  -9    4.40    1.60
  -3   3   9    6.10    1.80
  -3   3   9    3.30    1.10
   2  -3  -9   14.10    1.60
   2  -3  -9   18.00    2.20
  -2  -3   9   15.10    2.20
  -2  -3   9   12.80    1.20
   2   3  -9   16.30    2.10
  -2   3   9   16.20    2.10
  -2   3   9   14.10    1.70
   2   3  -9   13.60    1.60
  -1  -3   9    6.70    1.30
   1  -3  -9    4.90    1.20
  -1  -3   9    4.70    0.90
   1  -3  -9    4.30    1.00
  -1   3   9    3.60    1.10
  -1   3   9    4.20    1.00
   1   3  -9    4.70    1.40
   1   3  -9    5.30    0.80
   0  -3   9  366.36    6.70
   0  -3  -9  368.16    6.80
   0  -3   9  360.76    7.20
   0  -3  -9  361.96    6.80
   0   3   9  358.06    6.90
   0   3  -9  361.36    7.00
   0   3   9  353.46    5.30
   1  -3   9    2.00    0.90
  -1  -3  -9    4.20    1.30
   1  -3   9    3.20    1.10
   1   3   9    2.50    1.00
  -1   3  -9    4.90    1.30
   1   3   9    1.20    1.00
  -2  -3  -9   67.59    3.50
   2  -3   9   68.69    3.40
   2  -3   9   68.69    3.40
  -2   3  -9   67.69    2.70
   2   3   9   69.69    3.10
   2   3   9   67.49    3.50
  -2   3  -9   68.59    3.20
  -3  -3  -9    6.20    2.00
   3  -3   9    0.40    1.30
   3  -3   9    3.50    1.40
  -3   3  -9    2.10    1.50
   3   3   9    2.80    1.50
   3   3   9    1.60    1.20
  -4  -3  -9    0.30    1.80
   4   3   9   -0.70    1.60
  -4   3  -9   -1.30    1.50
  -4   3  -9    1.80    1.70
   4  -4  -9    0.80    1.70
  -4  -4   9    0.70    2.20
   4   4  -9    3.90    2.00
  -4   4   9    2.50    2.00
   4   4  -9    3.20    1.70
  -3  -4   9    4.30    1.80
   3  -4  -9    3.80    1.80
  -3   4   9    6.10    1.50
   3   4  -9    4.30    1.50
   3   4  -9    3.80    1.50
  -3   4   9    0.90    1.40
  -2  -4   9    6.10    1.70
   2  -4  -9    3.40    1.00
  -2  -4   9    4.10    0.80
   2  -4  -9    4.80    1.60
   2   4  -9    4.00    1.40
  -2   4   9    3.80    1.30
   2   4  -9    3.20    1.00
  -2   4   9    2.80    1.20
  -1  -4   9   18.60    1.50
   1  -4  -9   20.50    2.20
   1  -4  -9   17.80    1.50
  -1  -4   9   20.00    2.20
   1   4  -9   18.60    2.10
  -1   4   9   16.70    1.60
  -1   4   9   18.00    1.90
   0  -4   9   43.30    2.30
   0  -4   9   44.10    2.50
   0  -4  -9   43.30    2.50
   0  -4  -9   41.00    2.20
   0   4  -9   43.30    2.40
   0   4   9   39.30    2.30
   1  -4   9   80.59    3.30
  -1  -4  -9   78.39    3.40
   1  -4   9   57.79    3.00
  -1   4  -9   73.79    3.10
   1   4   9   74.39    3.10
   1   4   9   78.09    3.40
   2  -4   9   18.60    2.30
  -2  -4  -9   20.30    2.50
   2  -4   9   16.40    2.20
   2   4   9   15.00    1.90
   2   4   9   15.90    2.20
  -2   4  -9   18.90    2.30
  -3  -4  -9    0.30    1.50
   3  -4   9    0.20    1.30
   3  -4   9   -2.00    1.10
   3   4   9   -0.40    0.90
   3   4   9    0.00    1.20
  -3   4  -9    0.30    1.30
  -4  -4  -9    1.20    1.90
   4   4   9    0.00    1.60
  -4   4  -9    1.80    1.70
  -4  -5   9    1.30    2.40
   4  -5  -9   -2.10    1.40
   4   5  -9   -1.80    1.50
  -4   5   9    3.90    2.20
   4   5  -9   -0.60    1.40
  -3  -5   9    0.80    1.60
   3  -5  -9   -1.40    1.20
  -3   5   9    0.40    1.20
   3   5  -9    1.40    1.30
   3   5  -9   -2.10    0.90
  -3   5   9    1.80    1.30
   2  -5  -9   34.40    2.80
  -2  -5   9   33.90    2.90
   2   5  -9   35.00    2.10
   2   5  -9   33.10    2.60
  -2   5   9   34.30    2.70
  -2   5   9   38.20    2.50
  -1  -5   9   36.90    2.70
   1  -5  -9   44.30    2.70
   1  -5  -9   39.40    2.00
  -1  -5   9   41.40    2.10
  -1   5   9   39.30    2.40
   1   5  -9   36.80    2.50
  -1   5   9   39.30    2.00
   0  -5   9    2.90    1.20
   0  -5  -9    3.70    1.30
   0  -5   9    4.10    1.10
   0   5  -9    5.50    1.40
   0   5   9    4.70    1.20
   0   5   9    5.50    1.30
  -1  -5  -9   20.40    2.30
   1  -5   9   18.00    2.30
   1  -5   9   21.00    2.30
  -1   5  -9   19.40    2.10
   1   5   9   17.30    2.10
   1   5   9   19.00    2.00
   2  -5   9    3.90    1.50
   2  -5   9    6.80    1.70
  -2  -5  -9    3.20    1.50
   2   5   9    3.10    1.40
   2   5   9    3.60    1.30
  -2   5  -9    5.50    1.50
   3  -5   9   -0.80    1.10
  -3  -5  -9   -0.20    1.50
  -3   5  -9    2.10    1.50
  -3   5  -9   -0.40    1.30
   3   5   9   -0.90    1.10
   4  -5   9   -3.20    1.80
  -4  -5  -9   -1.50    1.60
  -4   5  -9   -0.40    1.60
   4   5   9   -0.80    1.40
  -4  -6   9   12.20    3.10
   4  -6  -9   10.10    2.60
   4   6  -9    9.10    2.20
   4   6  -9   12.20    2.60
  -4   6   9    9.10    2.70
  -3  -6   9    0.90    1.40
   3  -6  -9    6.30    2.00
   3   6  -9    0.20    1.10
  -3   6   9    1.30    1.60
  -3   6   9    1.30    1.40
   3   6  -9    2.70    1.50
   2  -6  -9   16.20    2.40
  -2  -6   9   21.80    2.70
   2   6  -9   17.50    2.30
  -2   6   9   23.10    2.50
  -2   6   9   20.50    2.40
  -1  -6   9    0.40    1.20
   1  -6  -9    0.00    1.20
  -1  -6   9    2.20    0.90
   1  -6  -9    1.80    0.90
  -1   6   9    0.80    0.80
   1   6  -9    1.60    1.10
  -1   6   9    0.10    1.00
   0  -6   9   -0.10    0.80
   0  -6   9    1.70    1.10
   0  -6  -9    0.00    1.20
   0   6  -9    0.20    1.00
   0   6   9    0.00    0.90
   0   6   9   -2.70    0.70
  -1  -6  -9   33.10    2.80
   1  -6   9   27.00    2.30
   1  -6   9   34.50    2.70
   1   6   9   29.90    2.40
  -1   6  -9   31.10    2.30
   1   6   9   28.90    2.40
   2  -6   9    1.70    1.40
   2  -6   9    3.50    1.40
  -2  -6  -9    1.70    1.40
   2   6   9    5.20    1.60
  -2   6  -9    4.00    1.40
   2   6   9    2.70    1.30
  -2   6  -9    2.70    1.30
  -3  -6  -9    3.30    1.90
   3  -6   9    2.40    1.80
   3   6   9    1.30    1.40
  -3   6  -9    6.00    1.80
  -4  -7   9    1.10    1.30
   4  -7  -9    2.70    2.20
  -4  -7   9   -4.10    1.90
  -4   7   9    0.80    2.30
   4   7  -9    0.80    1.50
  -3  -7   9   10.50    1.80
  -3  -7   9   12.90    2.60
   3  -7  -9   11.30    2.40
   3   7  -9    9.40    2.10
  -3   7   9   14.20    2.30
  -3   7   9    7.70    2.10
   2  -7  -9   13.40    2.20
  -2  -7   9   11.70    2.20
  -2   7   9   12.20    2.00
  -2   7   9    8.80    1.80
   2   7  -9   10.50    2.00
   1  -7  -9  104.09    4.40
  -1  -7   9  106.09    4.50
   1  -7  -9  103.39    3.20
   1   7  -9  116.89    3.60
   1   7  -9  106.79    4.20
  -1   7   9  109.79    4.20
  -1   7   9  105.09    3.50
   0  -7   9   59.79    2.90
   0  -7  -9   50.79    3.20
   0  -7   9   55.19    3.30
   0   7   9   51.29    3.00
   0   7   9   54.99    2.80
   0   7  -9   52.59    2.90
   1  -7   9   25.40    2.80
  -1  -7  -9   25.90    2.90
  -1   7  -9   28.30    2.30
   1   7   9   25.00    2.50
  -1   7  -9   28.80    2.40
   1   7   9   25.10    2.60
  -2  -7  -9    0.00    1.30
   2  -7   9    4.80    1.60
   2   7   9    2.00    1.20
   2   7   9    0.70    1.20
  -2   7  -9    4.00    1.50
  -2   7  -9    0.30    1.10
   3  -7   9    2.80    1.70
  -3  -7  -9    3.30    1.90
   3   7   9    0.00    1.30
  -3   7  -9   -0.60    1.20
   3  -8  -9   -1.00    1.30
  -3  -8   9    1.30    1.70
  -3   8   9    2.40    1.60
  -3   8   9    3.70    1.80
   3   8  -9   -1.80    1.10
  -2  -8   9   19.50    2.80
   2  -8  -9   19.80    2.60
  -2   8   9   21.80    2.70
   2   8  -9   29.20    3.10
  -2   8   9   20.30    2.50
  -1  -8   9   28.00    3.00
   1  -8  -9   32.80    3.20
  -1   8   9   25.80    2.70
  -1   8   9   27.00    2.10
   1   8  -9   29.40    2.60
   1   8  -9   28.80    2.00
   0  -8   9  122.49    5.00
   0  -8  -9  125.49    4.90
   0   8   9  120.79    4.00
   0   8  -9  130.49    4.40
   0   8  -9  125.09    4.40
   0   8   9  125.29    4.60
   1  -8   9    5.40    1.70
  -1  -8  -9    5.10    1.80
   1   8   9    7.80    1.60
  -1   8  -9    4.40    1.40
   1   8   9    3.50    1.50
  -1   8  -9    3.30    1.40
  -2  -8  -9    9.60    2.40
   2  -8   9    5.70    1.80
  -2   8  -9    8.70    2.00
   2   8   9    8.10    1.70
   2   8   9    7.10    2.00
   3  -8   9   -0.50    1.70
  -3  -8  -9    0.20    1.60
  -3   8  -9    0.10    1.50
   3   8   9   -0.10    1.40
   3  -9  -9    0.90    1.40
  -3  -9   9    2.00    1.80
   3   9  -9   -0.60    1.20
  -3   9   9    1.20    1.70
  -3   9   9    2.00    1.70
   2  -9  -9   -0.90    1.10
  -2  -9   9    0.70    1.40
  -2   9   9   -0.10    1.30
   2   9  -9    0.60    1.30
  -2   9   9    0.40    1.10
   1  -9  -9   98.29    4.60
  -1  -9   9  100.29    4.80
   1   9  -9  100.09    3.60
  -1   9   9   98.99    4.30
   1   9  -9  100.49    4.30
   0  -9  -9    0.30    1.50
   0  -9   9    0.60    1.00
   0   9  -9    2.20    1.20
   0   9   9    2.70    1.20
   0   9   9    0.20    1.10
   0   9  -9    1.90    1.10
   1  -9   9    2.00    1.50
  -1  -9  -9    2.00    1.70
  -1   9  -9    0.90    1.20
   1   9   9    6.40    1.70
   1   9   9    3.40    1.30
  -1   9  -9    4.50    1.40
  -2  -9  -9    0.70    1.60
   2  -9   9    0.50    1.40
   2   9   9    1.10    1.20
  -2   9  -9    0.50    1.30
   2   9   9    3.40    1.70
   3  -9   9    7.00    2.50
  -3  -9  -9    1.60    1.80
  -3   9  -9    4.50    1.90
   3   9   9    4.20    1.80
  -3 -10   9    2.70    2.10
   3 -10  -9    0.20    1.30
   3  10  -9    2.40    1.60
  -3  10   9   -0.80    1.80
  -3  10   9   -2.60    1.40
  -2 -10   9    0.80    1.50
   2 -10  -9   -0.70    1.10
   2  10  -9    1.00    1.30
  -2  10   9    1.30    1.60
  -2  10   9   -0.40    1.10
   1 -10  -9   15.60    2.50
  -1 -10   9   14.30    2.50
   1  10  -9   15.80    2.00
  -1  10   9   16.00    2.30
   1  10  -9   14.80    2.30
   0 -10  -9   -1.80    1.30
   0 -10   9    0.40    1.20
   0  10  -9    0.70    1.20
   0  10   9    0.10    1.00
   0  10   9    1.40    1.10
   0  10  -9    0.30    1.00
   1 -10   9    0.40    1.40
  -1 -10  -9   -0.80    1.60
  -1  10  -9    0.30    1.20
   1  10   9   -0.10    1.10
   1  10   9    1.40    1.30
  -1  10  -9   -1.80    1.00
   2 -10   9   12.30    2.80
  -2 -10  -9    9.60    2.40
   2  10   9    7.80    2.10
  -2  10  -9    9.70    2.20
   2  10   9   12.00    2.10
  -3 -10  -9   -3.80    1.60
   3 -10   9    1.20    2.10
   3  10   9    0.90    1.60
  -3  10  -9    1.60    1.70
   3 -11  -9    2.80    1.80
  -3 -11   9   -0.10    2.10
  -3  11   9    1.90    1.90
  -3  11   9   -3.20    1.60
   3  11  -9    0.80    1.50
  -2 -11   9    5.80    2.30
   2 -11  -9    1.60    1.40
  -2  11   9    5.70    2.10
   2  11  -9    1.30    1.40
   1 -11  -9    0.90    1.60
  -1 -11   9    1.10    1.50
   1  11  -9    0.90    1.20
   1  11  -9    2.30    1.20
  -1  11   9    1.00    1.40
   0 -11  -9    7.60    2.20
   0 -11   9    4.20    1.80
   0  11  -9    5.10    1.50
   0  11   9    5.10    1.50
   0  11  -9    6.60    1.70
   1 -11   9    7.30    2.10
  -1 -11  -9    3.00    2.00
   1  11   9    1.70    1.40
  -1  11  -9    4.60    1.60
   1  11   9    6.10    1.80
  -2 -11  -9   -0.90    1.50
   2 -11   9    1.60    1.90
   2  11   9    0.60    1.30
   2  11   9    3.80    1.60
  -2  11  -9    1.10    1.30
   2 -12  -9    7.30    2.10
  -2 -12   9   13.80    3.00
  -2  12   9    8.90    2.40
   2  12  -9    9.10    2.20
   1 -12  -9    1.20    1.70
  -1 -12   9    3.20    1.80
   1  12  -9    1.70    1.50
   1  12  -9    0.20    1.10
  -1  12   9    2.20    1.50
   0 -12   9    4.20    1.90
   0 -12  -9    3.20    1.80
   0  12   9    4.10    1.50
   0  12  -9    2.10    1.30
   0  12  -9    3.40    1.50
  -1 -12  -9    4.20    2.00
   1 -12   9    7.40    2.20
   1  12   9    5.90    1.80
  -1  12  -9    4.60    1.80
   1  12   9    2.50    1.50
  -2 -12  -9   -1.60    1.50
   2 -12   9    1.50    2.00
  -2  12  -9   -2.20    1.10
   2  12   9    0.30    1.50
  -2 -13   9    3.80    2.30
   2 -13  -9    1.30    1.60
   2  13  -9   -1.20    1.30
  -2  13   9    0.10    1.90
   1 -13  -9    0.80    1.70
  -1 -13   9    1.80    2.00
   1  13  -9    1.80    1.40
  -1  13   9    1.40    1.50
   1  13  -9    2.80    1.60
   0 -13   9    2.00    2.00
   0 -13  -9    2.50    1.80
   0  13   9    1.90    1.40
   0  13  -9    1.70    1.50
   1 -13   9   -1.20    1.70
  -1 -13  -9    1.60    1.70
  -1  13  -9   -0.70    1.00
   1  13   9    0.60    1.20
  -1 -14   9   10.70    3.00
   1 -14  -9    8.00    2.30
  -1  14   9   11.30    2.50
   1  14  -9    8.30    2.20
   0 -14   9    3.10    2.30
   0 -14  -9    2.80    2.10
   0  14  -9    1.10    1.40
   0  14   9    4.20    1.70
   4   0 -10  101.59    5.10
  -3   0  10   36.90    3.30
   3   0 -10   32.30    2.60
   3   0 -10   33.50    2.80
  -2   0  10   60.49    3.40
  -2   0  10   63.99    2.50
   2   0 -10   63.79    3.00
   2   0 -10   58.09    2.80
  -1   0  10   50.29    2.30
   1   0 -10   46.50    2.00
  -1   0  10   42.80    2.40
   1   0 -10   43.80    2.30
   0   0  10    0.90    0.60
   0   0 -10    1.90    0.80
   0   0 -10    2.00    1.00
   0   0  10    2.10    0.90
  -1   0 -10   14.30    1.60
   1   0  10   12.00    1.70
   1   0  10   12.80    1.30
  -1   0 -10   12.30    1.80
  -2   0 -10    1.10    1.20
   2   0  10    1.10    1.20
   2   0  10   -0.80    0.70
   2   0  10    1.40    1.10
  -3   0 -10    1.90    1.60
   3   0  10   -0.10    1.20
   3   0  10   -0.10    1.20
   4   0  10    1.30    1.80
  -4   0 -10    5.50    2.10
   4  -1 -10    3.30    1.80
  -4  -1  10    4.50    2.40
   4   1 -10    5.60    2.20
  -4   1  10    2.90    2.10
  -3  -1  10  144.89    5.80
   3  -1 -10  148.09    4.70
   3  -1 -10  140.79    5.20
   3   1 -10  150.78    5.10
  -3   1  10  149.19    5.80
   3   1 -10  157.48    5.20
   2  -1 -10   20.50    2.10
  -2  -1  10   17.80    2.40
   2  -1 -10   16.20    2.10
  -2  -1  10   15.70    1.50
  -2   1  10   16.00    2.20
   2   1 -10   16.50    2.10
  -2   1  10   20.30    1.70
   2   1 -10   21.10    2.10
   1  -1 -10   93.49    3.30
   1  -1 -10   96.29    3.10
  -1  -1  10   94.89    3.50
  -1  -1  10   94.49    3.00
   1   1 -10   97.09    2.70
   1   1 -10  100.59    3.50
  -1   1  10   94.09    3.10
  -1   1  10   95.09    3.30
   0  -1 -10   16.60    1.60
   0  -1 -10   18.70    2.00
   0  -1  10   15.10    1.40
   0  -1  10   15.70    1.80
   0   1  10   14.50    1.20
   0   1  10   15.10    1.70
   0   1 -10   14.00    1.10
   0   1 -10   16.00    1.90
  -1  -1 -10    3.80    1.20
   1  -1  10    4.30    1.20
   1  -1  10    3.90    1.00
  -1  -1 -10    6.30    1.40
  -1   1 -10    3.60    1.20
  -1   1 -10    5.60    1.10
   1   1  10    4.60    0.80
   1   1  10    5.80    1.30
  -2  -1 -10   10.60    1.80
   2  -1  10   11.60    1.90
   2  -1  10    8.30    1.40
   2   1  10   10.60    1.80
  -2   1 -10    9.40    1.80
   2   1  10   11.00    1.90
  -2   1 -10    7.70    1.60
   3  -1  10    4.90    1.80
   3  -1  10    4.60    1.50
  -3  -1 -10    2.40    1.60
   3   1  10    4.50    1.70
   3   1  10    4.20    1.40
  -3   1 -10    2.90    1.50
   4  -1  10   -3.30    1.40
  -4  -1 -10    0.00    1.80
  -4   1 -10    1.20    1.70
   4   1  10    1.20    1.80
   4  -2 -10    2.70    1.70
  -4  -2  10   -3.70    1.80
   4   2 -10    2.50    1.50
   4   2 -10    3.60    2.10
  -4   2  10    2.00    2.00
   3  -2 -10  152.48    4.60
  -3  -2  10  158.48    6.20
   3  -2 -10  152.18    5.50
   3   2 -10  156.08    5.30
  -3   2  10  159.68    6.00
   3   2 -10  152.28    5.10
   2  -2 -10    2.80    1.10
   2  -2 -10    1.20    1.10
  -2  -2  10    2.90    0.90
  -2  -2  10    2.70    1.40
  -2   2  10    1.20    0.90
   2   2 -10    0.40    1.10
   2   2 -10    0.70    0.80
  -2   2  10    3.50    1.30
   1  -2 -10    5.90    1.30
  -1  -2  10    7.00    1.40
   1  -2 -10    7.20    1.40
  -1  -2  10    7.70    1.20
   1   2 -10    8.30    1.50
  -1   2  10    9.50    1.50
  -1   2  10    6.50    1.20
   1   2 -10    8.10    1.00
   0  -2 -10    0.80    0.80
   0  -2  10    0.20    0.70
   0  -2 -10   -0.80    0.60
   0  -2  10   -0.10    0.70
   0   2 -10    1.00    0.90
   0   2  10   -0.20    0.40
   0   2  10   -0.40    0.70
   1  -2  10    3.70    1.10
   1  -2  10    4.30    1.20
  -1  -2 -10    1.70    1.10
  -1   2 -10    3.90    1.30
   1   2  10    3.50    1.20
   1   2  10    4.20    1.40
  -1   2 -10    4.90    0.90
  -2  -2 -10    2.90    1.50
   2  -2  10    2.20    1.20
   2  -2  10    1.30    1.00
  -2   2 -10    4.10    1.20
   2   2  10    2.50    1.30
   2   2  10    4.80    1.50
  -2   2 -10    4.50    1.50
   3  -2  10    4.90    1.60
   3  -2  10    4.40    1.50
  -3  -2 -10    2.70    1.80
  -3   2 -10    5.20    1.70
   3   2  10    5.60    1.50
  -3   2 -10    6.70    1.70
   3   2  10    4.40    1.70
  -4  -2 -10   -1.50    1.80
   4   2  10    0.50    1.60
  -4   2 -10    0.70    1.50
  -4  -3  10    1.90    2.20
   4  -3 -10    1.80    1.60
   4   3 -10    0.60    1.70
  -4   3  10   -2.20    1.50
   4   3 -10   -0.90    1.20
  -3  -3  10   -1.70    1.30
   3  -3 -10    0.00    1.20
   3   3 -10   -0.30    1.20
   3   3 -10    0.70    1.30
  -3   3  10   -0.30    1.30
  -3   3  10    0.50    1.10
   2  -3 -10   58.59    2.70
   2  -3 -10   57.59    3.10
  -2  -3  10   58.09    2.20
  -2  -3  10   58.09    3.50
   2   3 -10   52.99    3.10
  -2   3  10   59.69    2.80
  -2   3  10   64.89    3.30
   2   3 -10   55.79    2.50
   1  -3 -10   25.80    1.90
  -1  -3  10   30.30    2.30
   1  -3 -10   29.60    2.20
  -1  -3  10   28.70    1.80
  -1   3  10   30.80    1.90
  -1   3  10   29.70    2.10
   1   3 -10   29.70    2.30
   0  -3  10    0.80    0.90
   0  -3 -10    1.60    0.90
   0  -3  10    0.40    0.80
   0  -3 -10    1.80    1.10
   0   3 -10    0.40    0.80
   0   3  10   -0.40    0.70
   0   3  10   -0.20    0.40
   1  -3  10   19.80    2.10
   1  -3  10   19.20    2.10
  -1  -3 -10   20.50    2.20
  -1   3 -10   24.30    2.40
   1   3  10   17.80    2.00
   1   3  10   20.40    2.30
  -2  -3 -10   33.40    2.80
   2  -3  10   31.80    2.60
   2  -3  10   32.90    2.50
  -2   3 -10   29.00    2.80
   2   3  10   34.10    2.50
  -2   3 -10   32.70    2.10
   2   3  10   33.30    2.80
   3  -3  10   -0.80    1.30
   3  -3  10    0.10    1.20
  -3  -3 -10   -0.20    1.40
  -3   3 -10   -1.10    1.20
   3   3  10    1.00    1.40
   3   3  10    0.20    1.10
  -4  -3 -10   -1.00    1.90
   4   3  10   -1.30    1.40
   4  -4 -10   14.30    2.90
  -4  -4  10   11.80    3.10
   4   4 -10   11.30    2.50
  -4   4  10   13.40    3.20
   4   4 -10    7.00    2.00
  -3  -4  10    0.40    1.50
   3  -4 -10    1.10    1.30
   3   4 -10    1.70    1.20
  -3   4  10    4.20    1.60
  -3   4  10    3.30    1.30
   3   4 -10    1.60    1.40
  -2  -4  10  106.49    3.00
  -2  -4  10  115.89    4.80
   2  -4 -10  103.89    4.30
   2  -4 -10  111.69    3.40
   2   4 -10  113.49    4.30
  -2   4  10  105.19    4.20
  -2   4  10  109.29    3.90
   2   4 -10  105.19    3.30
   1  -4 -10   -1.00    0.70
  -1  -4  10   -0.10    0.70
   1  -4 -10    0.80    1.00
  -1  -4  10   -0.10    0.90
  -1   4  10    1.00    0.80
   1   4 -10   -1.20    0.80
  -1   4  10    0.60    0.90
   0  -4  10    4.10    1.20
   0  -4 -10    3.30    1.10
   0  -4 -10    2.70    1.30
   0  -4  10    3.70    1.10
   0   4  10    2.00    1.00
   0   4 -10    3.80    1.20
   1  -4  10   44.60    2.70
   1  -4  10   48.40    2.80
  -1  -4 -10   45.80    2.80
   1   4  10   49.40    2.70
   1   4  10   45.10    2.80
  -1   4 -10   45.70    2.70
   2  -4  10   -0.40    1.00
   2  -4  10    1.70    1.30
  -2  -4 -10    3.30    1.60
   2   4  10    3.10    1.20
   2   4  10    2.70    1.40
  -2   4 -10    2.40    1.30
  -3  -4 -10   12.20    2.40
   3  -4  10    7.90    2.00
   3  -4  10    8.10    2.00
   3   4  10    6.80    1.70
   3   4  10    7.90    2.10
  -3   4 -10   10.60    2.10
   4  -5 -10   -1.00    1.60
  -4  -5  10   -3.10    2.00
  -4   5  10    0.50    2.00
   4   5 -10   -1.80    1.50
   4   5 -10    0.30    1.50
   3  -5 -10    5.60    2.00
  -3  -5  10    9.40    2.30
   3   5 -10    5.20    1.70
  -3   5  10    8.20    1.80
   3   5 -10    7.10    1.70
  -3   5  10    4.80    1.70
  -2  -5  10   -1.30    1.00
   2  -5 -10   -1.20    1.00
  -2   5  10    1.50    1.10
   2   5 -10    0.00    0.80
   2   5 -10    0.30    1.10
  -2   5  10   -1.60    1.00
   1  -5 -10   29.80    2.50
  -1  -5  10   35.00    2.10
  -1  -5  10   32.70    2.70
   1  -5 -10   34.10    2.10
  -1   5  10   35.40    2.00
  -1   5  10   30.90    2.40
   1   5 -10   32.30    2.50
   0  -5  10   17.00    2.20
   0  -5 -10   12.90    2.00
   0  -5 -10   15.30    1.80
   0  -5  10   14.40    1.80
   0   5 -10   17.00    2.10
   0   5  10   12.70    1.80
  -1  -5 -10    2.40    1.50
   1  -5  10    4.60    1.50
   1  -5  10    4.30    1.30
   1   5  10    2.50    1.20
   1   5  10    1.60    1.20
  -1   5 -10    1.80    1.20
   2  -5  10    0.50    1.10
  -2  -5 -10    0.70    1.30
   2  -5  10   -0.20    1.10
  -2   5 -10    1.20    1.20
   2   5  10   -0.90    0.90
   2   5  10    0.90    1.00
   3  -5  10    3.00    1.70
  -3  -5 -10    2.10    1.90
   3   5  10    3.10    1.70
  -3   5 -10    0.40    1.20
  -3   5 -10    3.40    1.60
   4  -6 -10    1.90    1.90
  -4  -6  10    0.70    2.10
   4   6 -10    1.50    1.60
   4   6 -10    1.00    1.60
  -4   6  10   -0.40    2.00
  -3  -6  10   17.50    2.90
   3  -6 -10   21.00    3.00
   3   6 -10   18.20    2.60
  -3   6  10   22.40    2.60
   3   6 -10   20.30    2.40
  -3   6  10   22.90    3.10
  -2  -6  10    0.60    1.30
   2  -6 -10    2.30    1.40
  -2   6  10    3.50    1.40
   2   6 -10    2.00    1.20
  -2   6  10    0.30    1.10
  -1  -6  10    5.70    1.30
  -1  -6  10    8.20    1.80
   1  -6 -10    5.80    1.70
   1  -6 -10    6.20    1.30
   1   6 -10    6.20    1.60
  -1   6  10    9.20    1.70
  -1   6  10    5.60    1.10
   0  -6  10    0.90    1.00
   0  -6 -10    0.50    1.30
   0  -6  10   -0.50    1.00
   0   6  10    0.90    1.10
   0   6  10    1.40    1.10
   0   6 -10   -0.30    1.00
  -1  -6 -10   11.90    2.20
   1  -6  10   13.10    2.10
   1  -6  10   12.10    1.90
  -1   6 -10   13.20    2.00
   1   6  10   13.50    2.10
   1   6  10   10.70    1.90
   2  -6  10    1.50    1.30
   2  -6  10    1.90    1.40
  -2  -6 -10    1.20    1.50
   2   6  10    1.90    1.30
   2   6  10    0.80    1.30
  -2   6 -10    1.00    1.20
   3  -6  10    1.40    1.60
  -3  -6 -10    0.60    1.60
   3   6  10   -0.60    1.10
  -3   6 -10    0.20    1.30
   4  -7 -10   -1.60    1.70
  -4  -7  10    2.90    2.70
  -4   7  10    0.60    2.10
   4   7 -10    1.20    1.60
   3  -7 -10    2.00    1.70
  -3  -7  10    2.20    1.80
  -3   7  10   -0.20    1.40
   3   7 -10    1.10    1.30
  -3   7  10    0.30    1.40
  -2  -7  10   36.10    3.20
   2  -7 -10   33.20    3.00
   2   7 -10   32.00    2.80
  -2   7  10   29.90    3.00
  -2   7  10   29.70    2.60
   1  -7 -10    7.30    1.90
  -1  -7  10    2.80    1.40
  -1  -7  10    3.40    1.20
   1  -7 -10    5.30    1.30
   1   7 -10    3.00    1.50
  -1   7  10    4.00    1.60
  -1   7  10    4.70    1.20
   0  -7  10    2.60    1.40
   0  -7 -10    2.50    1.60
   0  -7  10    3.70    1.40
   0   7 -10    2.80    1.40
   0   7  10    3.10    1.40
   0   7  10    0.60    1.10
  -1  -7 -10   22.00    2.70
   1  -7  10   14.40    2.20
   1  -7  10   19.90    2.70
  -1   7 -10   22.50    2.50
   1   7  10   19.00    2.20
   1   7  10   18.20    2.40
   2  -7  10   20.10    2.80
  -2  -7 -10   13.60    2.50
   2   7  10   18.20    2.30
   2   7  10   16.50    2.50
  -2   7 -10   22.50    2.60
  -2   7 -10   13.10    2.20
   3  -7  10   -0.50    1.60
  -3  -7 -10    3.70    2.00
   3   7  10   -1.50    1.00
  -3   7 -10   -0.80    1.40
   3  -8 -10    0.90    1.50
  -3  -8  10   -0.20    1.70
  -3   8  10   -1.40    1.40
  -3   8  10   -1.40    1.40
   3   8 -10    1.00    1.30
  -2  -8  10    1.50    1.60
   2  -8 -10    1.70    1.40
  -2   8  10   -0.20    1.30
  -2   8  10    0.30    1.20
   2   8 -10    1.90    1.30
   1  -8 -10    2.40    1.50
  -1  -8  10    1.60    1.30
   1   8 -10   -0.20    1.00
  -1   8  10   -0.80    1.00
   1   8 -10    0.20    0.80
   0  -8  10  111.49    4.90
   0  -8 -10  109.19    4.80
   0   8  10  101.49    3.90
   0   8 -10  110.49    4.20
   0   8  10  108.09    4.30
   0   8 -10  111.69    4.40
  -1  -8 -10   52.79    3.80
   1  -8  10   53.49    3.70
   1   8  10   55.79    3.30
  -1   8 -10   54.59    3.30
  -1   8 -10   53.19    3.10
   1   8  10   55.39    3.30
   2  -8  10    1.00    1.40
  -2  -8 -10    2.20    1.80
   2   8  10    0.50    1.10
   2   8  10    1.40    1.40
  -2   8 -10    0.00    1.10
   3  -8  10   21.80    3.50
  -3  -8 -10   10.00    2.50
   3   8  10   11.20    2.50
  -3   8 -10   15.20    2.80
  -3  -9  10   -0.70    1.80
   3  -9 -10    1.10    1.60
   3   9 -10    0.40    1.40
  -3   9  10    0.50    1.80
  -3   9  10   -1.50    1.50
  -2  -9  10    4.00    1.80
   2  -9 -10    2.70    1.50
  -2   9  10    3.40    1.40
  -2   9  10    1.40    1.60
   2   9 -10    2.20    1.40
   1  -9 -10    1.70    1.50
  -1  -9  10    3.40    1.60
   1   9 -10    2.70    1.40
   1   9 -10    0.90    0.90
  -1   9  10    1.60    1.30
   0  -9 -10   37.60    3.30
   0  -9  10   35.90    3.20
   0   9 -10   43.60    2.80
   0   9  10   39.10    2.90
   0   9  10   39.50    2.60
   0   9 -10   38.50    2.80
  -1  -9 -10   12.30    2.60
   1  -9  10   11.30    2.30
   1   9  10   15.30    2.30
  -1   9 -10    6.60    1.70
  -1   9 -10   13.40    2.10
   1   9  10   11.40    2.00
  -2  -9 -10   49.30    3.90
   2  -9  10   56.59    4.20
   2   9  10   58.49    3.60
  -2   9 -10   50.99    3.70
  -3  -9 -10    0.40    1.70
   3  -9  10    2.10    2.00
  -3   9 -10   -0.70    1.40
   3   9  10    0.00    1.60
   3 -10 -10    1.20    1.60
  -3 -10  10    0.30    2.00
   3  10 -10    1.90    1.60
  -3  10  10   -0.10    1.70
  -3  10  10    0.40    1.80
  -2 -10  10    1.00    1.60
   2 -10 -10    1.50    1.40
  -2  10  10    0.70    1.70
   2  10 -10   -0.20    1.20
   1 -10 -10    6.70    2.20
  -1 -10  10    6.60    2.00
   1  10 -10    7.70    1.90
  -1  10  10    4.60    1.60
   1  10 -10    7.10    1.50
   0 -10  10    6.20    2.00
   0 -10 -10   11.90    2.50
   0  10 -10    5.40    1.70
   0  10  10    6.10    1.60
   0  10 -10    9.70    1.80
   0  10  10    5.90    1.70
  -1 -10 -10    0.50    1.80
   1 -10  10   -1.80    1.00
   1  10  10    2.90    1.60
   1  10  10    3.00    1.40
  -1  10 -10   -0.80    1.00
  -1  10 -10    1.20    1.40
  -2 -10 -10    2.20    1.90
   2 -10  10    5.90    2.20
  -2  10 -10    7.40    2.00
   2  10  10    2.10    1.50
   2  10  10    2.60    1.70
   2 -11 -10    3.40    1.60
  -2 -11  10    1.40    1.90
  -2  11  10    3.70    1.80
   2  11 -10    0.90    1.30
   1 -11 -10   -0.40    1.40
  -1 -11  10   -1.90    1.30
   1  11 -10    1.50    1.40
  -1  11  10    0.30    1.30
   1  11 -10   -0.10    0.90
   0 -11 -10    4.00    1.80
   0 -11  10   -0.70    1.40
   0  11 -10   -1.20    0.80
   0  11 -10    1.90    1.40
   0  11  10   -0.50    1.20
  -1 -11 -10    6.00    2.20
   1 -11  10    5.40    2.00
   1  11  10    1.80    1.40
   1  11  10    2.60    1.70
  -1  11 -10    1.50    1.10
  -2 -11 -10    0.00    1.70
   2 -11  10    1.40    1.80
  -2  11 -10    0.50    1.30
   2  11  10    0.00    1.30
   2  11  10    2.20    1.70
  -2 -12  10    7.90    2.70
   2 -12 -10    5.30    2.00
   2  12 -10    5.50    2.00
  -2  12  10    7.40    2.50
   1 -12 -10    5.20    2.10
  -1 -12  10    6.90    2.30
  -1  12  10    7.90    2.00
   1  12 -10    6.00    1.60
   1  12 -10    6.60    1.80
   0 -12  10    5.60    2.20
   0 -12 -10    5.60    2.00
   0  12 -10    5.60    1.80
   0  12 -10    7.80    1.90
   0  12  10    3.00    1.40
   1 -12  10    2.40    1.60
  -1 -12 -10   -1.30    1.50
   1  12  10    1.60    1.70
   1  12  10    1.00    1.40
  -1  12 -10   -0.60    1.10
   2 -12  10   -0.20    1.90
  -2 -12 -10    2.30    2.20
   2  12  10    2.30    1.80
  -2  12 -10    0.30    1.40
  -1 -13  10   11.90    3.00
   1 -13 -10    7.10    2.40
  -1  13  10    7.90    2.20
   1  13 -10    5.00    1.80
   0 -13 -10    6.70    2.20
   0 -13  10   13.40    2.90
   0  13  10    9.70    2.10
   0  13 -10   19.60    2.70
  -1 -13 -10    2.10    2.00
   1 -13  10    3.40    2.20
  -1  13 -10    3.30    1.70
   1  13  10    3.60    1.70
  -4   0  11    1.90    2.20
   4   0 -11    0.40    1.50
   3   0 -11    0.70    1.20
  -3   0  11   -0.20    1.50
   3   0 -11    0.20    1.10
  -2   0  11   -0.90    1.20
  -2   0  11   -1.50    0.80
   2   0 -11   -1.20    0.80
   2   0 -11   -0.50    1.10
  -1   0  11    0.60    0.90
  -1   0  11   -0.20    0.80
   1   0 -11    0.40    0.70
   1   0 -11    0.10    0.80
   0   0  11   -0.10    0.70
   0   0 -11   -0.70    0.70
   0   0 -11    0.70    0.90
   0   0  11   -0.40    0.60
   1   0  11   -0.20    0.90
  -1   0 -11   -0.10    0.90
   1   0  11   -0.40    0.60
  -1   0 -11   -0.40    0.90
  -2   0 -11   -0.40    0.90
   2   0  11    0.20    1.00
  -2   0 -11    0.60    1.20
   3   0  11    0.20    1.30
  -3   0 -11    0.60    1.40
   3   0  11    1.00    1.30
  -4  -1  11   -1.00    2.10
   4  -1 -11   -0.60    1.40
  -4   1  11    1.00    2.00
   4   1 -11    0.40    1.40
   4   1 -11   -2.50    1.40
   3  -1 -11   66.69    3.70
  -3  -1  11   83.99    4.80
   3  -1 -11   71.49    3.50
   3   1 -11   69.49    3.60
  -3   1  11   73.49    4.40
   3   1 -11   77.99    3.80
  -2  -1  11   81.29    2.90
   2  -1 -11   83.19    3.50
  -2  -1  11   82.99    4.00
   2  -1 -11   89.69    3.60
   2   1 -11   83.89    3.30
   2   1 -11   75.79    3.50
  -2   1  11   86.19    4.00
  -2   1  11   85.09    3.10
  -1  -1  11    3.20    1.00
  -1  -1  11    3.60    1.20
   1  -1 -11    3.20    1.00
   1  -1 -11    3.70    1.20
  -1   1  11    2.50    1.00
   1   1 -11    3.60    0.90
  -1   1  11    0.40    0.90
   1   1 -11    3.40    1.20
   0  -1  11    5.20    1.10
   0  -1 -11    2.30    1.10
   0  -1  11    4.40    1.20
   0  -1 -11    5.70    1.20
   0   1  11    3.80    0.80
   0   1 -11    5.50    0.90
   0   1 -11    3.50    1.20
   0   1  11    3.80    1.20
   1  -1  11    8.50    1.60
  -1  -1 -11    7.00    1.60
   1  -1  11    7.20    1.20
  -1  -1 -11    8.40    1.50
   1   1  11    6.80    1.00
   1   1  11    4.60    1.30
  -1   1 -11    8.00    1.30
  -1   1 -11    6.90    1.60
   2  -1  11    3.50    1.20
  -2  -1 -11    5.50    1.60
   2  -1  11    3.80    1.40
  -2   1 -11    4.00    1.50
   2   1  11    6.60    1.70
   2   1  11    5.70    1.60
  -2   1 -11    6.20    1.50
   3  -1  11    2.50    1.50
  -3  -1 -11    1.40    1.60
   3   1  11    2.70    1.60
  -3   1 -11    2.40    1.60
  -3   1 -11    2.00    1.50
   3   1  11    1.30    1.30
   4  -2 -11    1.60    1.50
  -4  -2  11    2.20    2.40
   4   2 -11    1.60    2.00
  -4   2  11    4.00    2.30
   4   2 -11    4.50    1.80
   3  -2 -11    4.40    1.60
   3  -2 -11    4.00    1.30
  -3  -2  11    2.90    1.90
   3   2 -11    6.40    1.70
  -3   2  11    1.50    1.60
   3   2 -11    2.00    1.30
  -2  -2  11   16.50    1.70
   2  -2 -11   18.90    2.20
   2  -2 -11   17.70    2.20
  -2  -2  11   22.10    2.80
  -2   2  11   13.40    1.80
  -2   2  11   16.50    2.20
   2   2 -11   17.70    2.30
   2   2 -11   19.70    2.00
   1  -2 -11   72.19    3.00
  -1  -2  11   71.49    3.20
   1  -2 -11   73.89    3.00
  -1  -2  11   72.29    2.80
   1   2 -11   70.99    2.20
  -1   2  11   69.79    3.00
   1   2 -11   79.49    3.40
  -1   2  11   72.39    2.90
   0  -2  11   25.00    2.00
   0  -2  11   22.80    1.90
   0  -2 -11   25.50    2.00
   0  -2 -11   25.00    2.00
   0   2  11   22.80    1.30
   0   2  11   24.60    2.00
   0   2 -11   19.50    2.10
  -1  -2 -11   24.90    2.40
   1  -2  11   18.80    2.00
  -1  -2 -11   19.20    2.30
   1  -2  11   21.30    2.30
  -1   2 -11   24.40    2.50
   1   2  11   22.30    2.30
  -1   2 -11   19.30    1.50
   2  -2  11   15.70    2.00
   2  -2  11   19.10    2.30
  -2  -2 -11   15.50    2.20
  -2   2 -11   18.40    2.10
  -2   2 -11   16.70    2.30
   2   2  11   19.30    2.30
   2   2  11   17.00    2.30
   3  -2  11    9.50    2.00
  -3  -2 -11   12.10    2.40
   3   2  11    5.80    1.70
   3   2  11   10.50    2.20
  -3   2 -11   10.30    2.20
  -4  -3  11   -0.30    2.20
   4  -3 -11   -1.40    1.30
   4   3 -11    0.00    1.40
  -4   3  11   -1.70    2.00
   4   3 -11    5.50    2.00
  -3  -3  11   -1.50    1.40
   3  -3 -11    1.30    1.40
  -3   3  11   -0.20    1.30
   3   3 -11   -0.80    1.00
   3   3 -11    0.90    1.30
  -2  -3  11    7.70    1.90
  -2  -3  11    9.20    1.30
   2  -3 -11   11.70    1.80
   2  -3 -11    7.70    1.70
  -2   3  11    7.80    1.70
   2   3 -11   11.10    1.60
  -2   3  11    8.70    1.60
   2   3 -11   13.20    2.10
   1  -3 -11   22.60    1.90
  -1  -3  11   23.10    1.90
  -1  -3  11   21.70    2.40
   1  -3 -11   25.60    2.40
  -1   3  11   18.90    1.70
   1   3 -11   19.10    2.20
  -1   3  11   22.80    2.20
   0  -3 -11    8.00    1.60
   0  -3 -11    9.10    1.70
   0  -3  11    9.80    1.60
   0  -3  11    7.70    1.50
   0   3  11    6.60    1.40
   0   3  11    7.70    0.90
   0   3 -11    8.90    1.70
   1  -3  11   65.69    3.20
   1  -3  11   51.89    2.80
  -1  -3 -11   59.89    3.10
  -1   3 -11   62.99    3.10
   1   3  11   65.69    3.20
   1   3  11   62.39    3.20
   2  -3  11   33.50    2.60
   2  -3  11   31.80    2.70
  -2  -3 -11   34.40    2.80
  -2   3 -11   34.60    2.80
   2   3  11   34.80    2.80
   2   3  11   36.80    2.70
  -3  -3 -11    4.70    1.90
   3  -3  11    4.00    1.60
   3  -3  11    3.80    1.60
   3   3  11    5.80    1.70
  -3   3 -11    3.50    1.80
   3   3  11    1.10    1.50
   4  -4 -11    1.50    1.70
  -4  -4  11   -1.00    2.20
   4   4 -11    5.80    2.10
  -4   4  11    3.80    2.30
   4   4 -11    2.70    1.60
  -3  -4  11    4.40    2.00
   3  -4 -11    4.60    1.60
  -3   4  11    5.40    1.50
   3   4 -11    5.30    1.70
  -3   4  11    4.50    1.80
   3   4 -11    7.90    1.70
  -2  -4  11    6.00    1.10
   2  -4 -11    5.10    1.20
  -2  -4  11    5.70    1.70
   2  -4 -11    5.00    1.50
   2   4 -11    5.90    1.30
   2   4 -11    4.10    1.40
  -2   4  11    2.60    1.30
  -2   4  11    6.40    1.60
  -1  -4  11    2.80    1.10
   1  -4 -11    4.70    1.30
   1  -4 -11    3.40    1.50
  -1  -4  11    3.70    1.50
  -1   4  11    7.00    1.30
  -1   4  11    3.20    1.20
   1   4 -11    3.50    1.40
   0  -4 -11    4.60    1.30
   0  -4  11    1.10    1.10
   0  -4  11    4.40    1.20
   0  -4 -11    2.40    1.30
   0   4 -11    3.80    1.30
   0   4  11    4.50    1.30
  -1  -4 -11    3.10    1.50
   1  -4  11    1.30    1.10
   1  -4  11   -0.40    0.90
   1   4  11    1.40    1.20
   1   4  11    0.50    1.00
  -1   4 -11   -1.60    0.90
   2  -4  11   12.20    2.00
   2  -4  11    8.60    1.80
  -2  -4 -11    8.70    2.00
  -2   4 -11   18.20    2.40
   2   4  11    7.60    1.80
   2   4  11    9.20    1.70
  -3  -4 -11   -1.00    1.40
   3  -4  11   -1.30    1.30
   3  -4  11   -0.70    1.20
   3   4  11    0.50    1.50
   3   4  11   -2.10    1.00
  -3   4 -11   -1.40    1.40
   4  -5 -11    0.20    1.60
  -4  -5  11   -0.70    2.30
   4   5 -11    4.50    1.90
   4   5 -11    1.50    1.80
  -4   5  11   -1.80    2.00
  -3  -5  11   13.00    2.60
   3  -5 -11   14.30    2.50
  -3   5  11   10.70    2.30
   3   5 -11   19.40    2.40
  -3   5  11   13.30    2.10
   3   5 -11   14.60    2.60
   2  -5 -11   -0.80    1.10
  -2  -5  11    0.10    1.20
  -2   5  11    1.30    1.20
   2   5 -11    1.10    1.20
  -2   5  11   -0.20    1.10
  -1  -5  11   32.80    2.70
   1  -5 -11   33.40    2.70
   1  -5 -11   33.30    2.20
  -1  -5  11   32.00    2.20
  -1   5  11   33.40    2.50
   1   5 -11   31.70    2.60
  -1   5  11   33.60    2.00
   0  -5  11    7.10    1.70
   0  -5 -11    6.00    1.40
   0  -5  11    3.70    1.30
   0  -5 -11    6.10    1.80
   0   5  11    5.80    1.40
   0   5 -11    6.50    1.60
  -1  -5 -11   -1.60    1.20
   1  -5  11    0.10    1.00
   1  -5  11    1.80    1.20
  -1   5 -11    0.70    1.10
   1   5  11    0.80    1.20
   1   5  11    0.80    0.90
   2  -5  11    0.70    1.20
  -2  -5 -11   -0.30    1.20
   2  -5  11   -2.20    0.90
   2   5  11    0.60    1.20
   2   5  11   -0.90    1.00
  -2   5 -11    1.70    1.30
   3  -5  11    6.70    2.00
   3  -5  11    5.90    1.90
  -3  -5 -11    5.20    2.10
   3   5  11    7.40    2.00
  -3   5 -11    6.80    1.90
  -3   5 -11    6.80    2.10
  -4  -6  11   -2.40    2.20
   4  -6 -11    0.30    1.80
  -4   6  11   -2.20    1.80
   4   6 -11    1.30    1.50
   3  -6 -11    2.70    1.80
  -3  -6  11    2.30    1.80
  -3   6  11    3.20    1.90
  -3   6  11    4.30    1.60
   3   6 -11    3.60    1.60
   2  -6 -11    9.20    2.00
  -2  -6  11   12.30    2.20
   2   6 -11   12.10    2.10
  -2   6  11   16.20    2.30
  -2   6  11   11.90    1.90
   1  -6 -11    7.40    1.40
  -1  -6  11    8.90    1.90
   1  -6 -11    5.70    1.80
  -1  -6  11    7.20    1.40
   1   6 -11    7.90    1.80
  -1   6  11    7.20    1.30
  -1   6  11    5.20    1.60
   0  -6 -11   43.40    2.70
   0  -6  11   44.30    2.70
   0  -6  11   41.00    3.00
   0  -6 -11   44.00    3.10
   0   6 -11   41.70    2.90
   0   6  11   44.80    2.80
  -1  -6 -11    2.20    1.60
   1  -6  11    2.40    1.30
   1  -6  11    3.30    1.30
   1   6  11    0.30    1.10
  -1   6 -11    2.80    1.40
   1   6  11    1.90    1.30
  -2  -6 -11    6.00    2.00
   2  -6  11    3.80    1.60
   2  -6  11    4.70    1.70
   2   6  11    2.90    1.40
   2   6  11    4.00    1.60
  -2   6 -11    6.60    1.80
   3  -6  11   -0.10    1.50
  -3  -6 -11   -0.50    1.50
  -3   6 -11   -2.30    1.10
   3   6  11    2.10    1.50
   3  -7 -11    7.60    2.20
  -3  -7  11    8.70    2.30
   3   7 -11    7.00    1.80
  -3   7  11   10.70    2.30
  -3   7  11   11.50    2.30
  -2  -7  11   10.90    2.40
   2  -7 -11   10.90    2.20
   2   7 -11   11.50    2.20
  -2   7  11   13.30    2.00
  -2   7  11    8.40    1.90
   1  -7 -11   62.59    3.60
  -1  -7  11   55.09    2.90
   1  -7 -11   57.29    2.70
  -1  -7  11   55.69    3.60
  -1   7  11   59.79    3.30
   1   7 -11   49.80    3.20
   0  -7 -11   36.80    3.10
   0  -7  11   42.90    2.80
   0  -7 -11   43.70    2.60
   0  -7  11   38.70    3.00
   0   7  11   36.60    2.70
   0   7 -11   41.80    2.90
   1  -7  11    1.00    1.30
   1  -7  11   -0.60    1.10
  -1  -7 -11   -0.20    1.40
  -1   7 -11   -1.40    1.10
   1   7  11    1.20    1.10
   1   7  11    0.40    1.20
   2  -7  11   28.20    3.30
  -2  -7 -11   30.50    3.40
   2   7  11   30.40    3.00
  -2   7 -11   35.90    3.00
  -2   7 -11   24.10    2.90
   2   7  11   27.20    3.10
  -3  -7 -11   -1.60    1.50
   3  -7  11   -0.50    1.50
   3   7  11    2.90    1.80
  -3   7 -11   -0.70    1.30
  -3  -8  11   -1.10    1.80
   3  -8 -11   -1.60    1.30
  -3   8  11   -2.20    1.20
  -3   8  11    0.00    1.50
   3   8 -11    0.30    1.20
   2  -8 -11    1.10    1.30
  -2  -8  11    0.40    1.50
   2   8 -11   -1.70    1.00
  -2   8  11    0.50    1.20
  -2   8  11    0.40    1.30
  -1  -8  11    3.70    1.60
   1  -8 -11    1.90    1.50
   1   8 -11    6.70    1.30
  -1   8  11    2.50    1.30
   1   8 -11    4.50    1.50
   0  -8 -11   25.90    3.10
   0  -8  11   25.70    3.00
   0   8  11   28.70    2.50
   0   8  11   27.40    2.90
   0   8 -11   26.20    2.70
   0   8 -11   30.20    3.00
   1  -8  11   72.09    4.30
  -1  -8 -11   62.19    4.10
   1   8  11   54.69    3.50
  -1   8 -11   64.89    3.60
   1   8  11   68.69    3.70
  -1   8 -11   59.49    3.50
   2  -8  11    0.40    1.50
  -2  -8 -11    1.40    1.60
  -2   8 -11    3.10    1.50
   2   8  11    1.20    1.60
   2   8  11    3.80    1.60
   3  -8  11   -0.10    1.70
  -3  -8 -11    0.60    1.90
   3   8  11   -1.80    1.40
  -3   8 -11    0.70    1.70
   3  -9 -11    1.60    1.60
  -3  -9  11    1.10    2.10
   3   9 -11   -0.20    1.30
  -3   9  11    0.60    1.70
  -3   9  11    1.50    1.90
  -2  -9  11    2.90    1.90
   2  -9 -11   -0.70    1.20
  -2   9  11   -1.00    1.30
   2   9 -11    0.40    1.30
   1  -9 -11    1.10    1.50
  -1  -9  11    0.50    1.30
   1   9 -11   -0.50    0.80
  -1   9  11    2.30    1.40
   1   9 -11   -1.20    1.10
   0  -9 -11   32.60    3.50
   0  -9  11   36.60    3.30
   0   9 -11   31.30    2.60
   0   9  11   34.30    2.90
   0   9  11   29.30    2.50
   0   9 -11   31.30    3.30
  -1  -9 -11   23.10    3.30
   1  -9  11   23.10    3.20
  -1   9 -11   20.10    2.60
  -1   9 -11   26.70    2.90
   1   9  11   26.20    3.00
   1   9  11   24.60    2.80
   2  -9  11   -0.40    1.50
  -2  -9 -11    0.40    1.70
   2   9  11    0.40    1.70
  -2   9 -11   -0.80    1.20
   2   9  11    2.50    1.50
   3 -10 -11    2.40    1.80
  -3 -10  11    0.60    2.20
  -3  10  11    2.20    1.80
   3  10 -11    3.30    1.90
  -3  10  11    5.80    2.50
   2 -10 -11    4.30    1.70
  -2 -10  11    3.00    1.90
  -2  10  11    6.90    2.00
   2  10 -11    6.30    1.90
   1 -10 -11    3.40    1.70
  -1 -10  11    2.40    1.90
   1  10 -11    3.00    1.60
  -1  10  11    2.30    1.50
   1  10 -11    0.80    0.90
   0 -10 -11   11.10    2.40
   0 -10  11   14.10    2.60
   0  10 -11   11.80    2.00
   0  10  11   13.10    2.20
   0  10 -11   11.30    2.20
   0  10  11   17.00    2.30
  -1 -10 -11    1.80    1.80
   1 -10  11    1.80    1.50
   1  10  11   -1.90    1.20
   1  10  11    0.00    1.20
  -1  10 -11    1.10    1.40
  -1  10 -11   -1.30    0.90
   2 -10  11    3.30    2.00
  -2 -10 -11   -0.10    1.80
   2  10  11    1.30    1.30
   2  10  11    1.30    1.70
  -2  10 -11    1.60    1.40
   2 -11 -11    2.00    1.60
  -2 -11  11   -1.40    1.70
  -2  11  11    0.20    1.80
   2  11 -11    0.00    1.40
   1 -11 -11    1.50    1.70
  -1 -11  11    2.40    1.80
   1  11 -11    0.20    0.80
   1  11 -11    3.30    1.50
  -1  11  11    1.60    1.50
   0 -11  11    7.60    2.30
   0 -11 -11    5.10    2.00
   0  11 -11    7.90    1.80
   0  11  11    5.40    1.70
   0  11 -11    5.50    1.80
   1 -11  11    3.80    2.00
  -1 -11 -11    1.00    1.70
   1  11  11    2.40    1.40
   1  11  11   -0.20    1.40
  -1  11 -11    0.40    1.20
  -2 -11 -11   -0.70    1.90
   2 -11  11    0.90    1.80
   2  11  11    0.30    1.50
  -2  11 -11    2.40    1.60
   2  11  11   -0.40    1.50
  -2 -12  11    7.10    2.60
   2 -12 -11    1.90    1.60
  -2  12  11    4.00    2.20
   2  12 -11    5.90    2.20
   1 -12 -11    9.30    2.60
  -1 -12  11    6.80    2.50
  -1  12  11    7.50    2.10
   1  12 -11    5.10    1.80
   1  12 -11    7.50    1.70
   0 -12 -11   -0.40    1.50
   0 -12  11    2.40    1.90
   0  12 -11    1.00    1.20
   0  12 -11   -0.80    1.10
   0  12  11    0.10    1.30
   1 -12  11   11.80    2.80
  -1 -12 -11    4.70    2.20
   1  12  11   10.60    2.30
  -1  12 -11    5.00    1.80
   1  12  11    3.10    1.60
   1 -13 -11    0.40    1.80
  -1 -13  11    1.30    2.20
  -1  13  11    1.40    1.70
   1  13 -11    0.30    1.50
   0 -13  11   -3.40    1.60
   0 -13 -11   -1.10    1.50
   0  13 -11   -0.80    1.00
   0  13  11   -1.50    1.20
   4   0 -12    0.10    1.40
  -4   0  12    0.50    2.20
   3   0 -12  115.29    4.50
  -3   0  12  126.49    5.80
   3   0 -12  110.99    4.60
  -2   0  12  132.09    4.00
  -2   0  12  132.09    5.00
   2   0 -12  128.19    4.60
   2   0 -12  127.49    4.20
   1   0 -12   95.09    3.70
   1   0 -12   95.09    3.10
  -1   0  12   94.69    3.70
  -1   0  12   99.49    3.50
   0   0  12  125.19    4.10
   0   0  12  124.19    3.70
   0   0 -12  124.89    4.30
   0   0 -12  120.89    3.30
  -1   0 -12    0.60    1.00
  -1   0 -12    0.10    1.00
   1   0  12   -0.40    0.90
   1   0  12    0.20    0.70
  -2   0 -12   -1.00    1.10
   2   0  12    0.30    1.00
  -2   0 -12    2.70    1.40
   3   0  12    1.60    1.60
  -3   0 -12   -1.10    1.30
  -3   0 -12   -2.20    1.30
   3   0  12    0.80    1.30
   4  -1 -12    3.20    1.80
  -4  -1  12    1.10    2.00
   4   1 -12    4.60    2.10
   4   1 -12    1.50    1.60
  -4   1  12    0.30    2.30
  -3  -1  12   26.10    3.40
   3  -1 -12   29.90    2.90
   3  -1 -12   33.90    2.90
  -3   1  12   33.40    3.70
   3   1 -12   29.70    3.10
   3   1 -12   30.20    2.60
  -2  -1  12  484.95    8.30
  -2  -1  12  489.95   10.40
   2  -1 -12  479.85    9.20
   2  -1 -12  477.85    9.20
   2   1 -12  494.65    9.70
  -2   1  12  478.85    8.50
  -2   1  12  501.45   10.30
   2   1 -12  486.15    8.80
   1  -1 -12    0.40    0.80
  -1  -1  12    0.80    1.10
  -1  -1  12    1.90    1.00
   1  -1 -12    0.00    1.00
   1   1 -12    1.00    0.80
  -1   1  12    2.10    1.10
   1   1 -12    1.20    1.10
  -1   1  12    0.40    0.90
   0  -1 -12   28.60    2.80
   0  -1 -12   22.80    1.80
   0  -1  12   22.00    1.90
   0  -1  12   27.30    2.50
   0   1 -12   23.00    1.40
   0   1  12   22.00    2.20
   0   1 -12   23.30    2.40
   0   1  12   22.30    1.60
  -1  -1 -12    6.30    1.60
  -1  -1 -12    8.70    1.70
   1  -1  12    6.50    1.20
   1  -1  12    7.50    1.60
  -1   1 -12    6.70    1.20
   1   1  12    6.00    1.50
  -1   1 -12    5.30    1.50
   2  -1  12    0.60    1.00
  -2  -1 -12   -0.60    1.20
  -2  -1 -12   -0.40    1.10
   2   1  12    0.10    1.10
   2   1  12   -1.70    0.90
  -2   1 -12   -0.60    1.10
  -2   1 -12   -0.50    1.10
   3  -1  12    0.10    1.50
  -3  -1 -12    5.40    1.80
   3   1  12    0.70    1.30
  -3   1 -12   -0.10    1.40
   3   1  12    1.60    1.50
  -4  -2  12   -0.40    2.00
   4  -2 -12    0.40    1.60
   4   2 -12    1.80    1.60
  -4   2  12   -1.00    1.90
   4   2 -12    2.00    1.90
  -3  -2  12    7.90    2.30
   3  -2 -12   10.60    1.80
   3  -2 -12    5.50    1.60
   3   2 -12    6.30    1.70
   3   2 -12    8.10    1.90
  -3   2  12    9.20    2.40
  -2  -2  12   36.40    3.10
   2  -2 -12   28.60    2.40
   2  -2 -12   29.70    2.40
  -2  -2  12   29.70    2.10
   2   2 -12   31.00    2.70
  -2   2  12   34.00    2.40
  -2   2  12   35.20    2.90
   2   2 -12   30.90    2.10
   1  -2 -12  114.89    3.80
   1  -2 -12  106.39    3.80
  -1  -2  12  102.39    4.00
  -1  -2  12  109.69    3.70
   1   2 -12  100.89    4.00
   1   2 -12  109.39    2.80
  -1   2  12  105.69    3.60
  -1   2  12  105.19    3.80
   0  -2  12    0.80    0.90
   0  -2  12   -0.20    0.90
   0  -2 -12    0.20    1.00
   0  -2 -12    0.20    1.00
   0   2 -12   -0.10    0.90
   0   2  12    0.30    0.60
   0   2  12    0.70    0.90
  -1  -2 -12    3.60    1.40
   1  -2  12    1.70    1.10
  -1  -2 -12    4.40    1.50
   1  -2  12    1.30    1.00
  -1   2 -12    1.00    1.30
   1   2  12    1.90    1.20
   2  -2  12    1.40    1.20
  -2  -2 -12    0.70    1.40
   2  -2  12    0.50    1.00
   2   2  12    4.00    1.30
  -2   2 -12    1.20    1.30
   2   2  12    2.50    1.40
  -3  -2 -12    0.20    1.70
   3  -2  12    1.80    1.50
  -3   2 -12    0.50    1.50
   3   2  12   -0.40    1.30
   3   2  12    0.10    1.20
  -4  -3  12    0.10    2.10
   4  -3 -12    1.20    1.70
   4   3 -12   -1.00    1.60
   4   3 -12    0.10    1.60
  -4   3  12    2.00    2.30
   3  -3 -12    6.70    1.80
  -3  -3  12   10.70    2.60
   3   3 -12   13.10    2.30
   3   3 -12   10.30    2.00
  -3   3  12   14.10    2.60
   2  -3 -12   53.99    3.10
   2  -3 -12   52.79    2.80
  -2  -3  12   56.39    3.60
  -2  -3  12   52.39    2.50
  -2   3  12   49.60    2.90
   2   3 -12   53.69    3.30
   2   3 -12   51.29    2.50
  -2   3  12   50.89    3.20
   1  -3 -12  171.28    5.00
  -1  -3  12  174.58    5.50
  -1  -3  12  169.58    4.60
   1  -3 -12  169.58    4.80
  -1   3  12  167.08    5.00
   1   3 -12  175.28    5.30
  -1   3  12  170.68    4.50
   0  -3 -12    1.80    1.20
   0  -3  12    0.00    1.00
   0  -3  12    2.00    1.10
   0  -3 -12    1.50    1.30
   0   3  12   -0.30    0.90
   0   3 -12    1.10    1.10
   1  -3  12    0.80    1.00
  -1  -3 -12    1.90    1.40
  -1  -3 -12    1.90    1.30
   1  -3  12    0.40    1.00
  -1   3 -12   -2.30    1.00
   1   3  12   -0.70    0.90
   2  -3  12    1.10    1.10
   2  -3  12   -0.50    1.10
  -2  -3 -12    0.60    1.40
   2   3  12   -1.20    1.00
  -2   3 -12    0.10    1.30
   2   3  12    2.50    1.30
   3  -3  12    0.70    1.50
  -3  -3 -12   -0.90    1.60
   3   3  12    3.50    1.70
  -3   3 -12    2.80    1.70
   3   3  12    5.10    1.70
  -4  -4  12   -1.50    2.10
   4  -4 -12   -2.80    1.50
   4   4 -12    1.00    1.80
   4   4 -12   -0.60    1.50
  -4   4  12   -2.60    1.90
   3  -4 -12    5.20    1.80
  -3  -4  12    8.90    2.30
   3   4 -12    5.00    1.60
  -3   4  12    5.20    2.10
   3   4 -12    2.00    1.40
  -3   4  12    4.90    1.50
  -2  -4  12    6.80    1.80
   2  -4 -12    8.40    1.50
  -2  -4  12    6.30    1.30
   2  -4 -12    5.90    1.60
  -2   4  12    9.20    1.70
   2   4 -12    7.50    1.80
  -2   4  12    6.40    1.50
   1  -4 -12   31.90    2.30
   1  -4 -12   32.60    2.60
  -1  -4  12   28.40    2.20
  -1  -4  12   28.60    2.70
   1   4 -12   27.70    2.90
  -1   4  12   28.00    2.10
  -1   4  12   29.20    2.40
   0  -4 -12   42.60    2.70
   0  -4  12   44.90    2.70
   0  -4  12   41.20    2.90
   0  -4 -12   38.10    2.80
   0   4  12   38.80    2.60
   0   4 -12   45.80    2.90
   1  -4  12    0.10    1.00
  -1  -4 -12   -0.20    1.30
   1  -4  12    2.40    1.20
   1   4  12   -0.90    1.10
   1   4  12    0.00    1.00
  -1   4 -12   -0.30    1.00
   2  -4  12    4.10    1.50
  -2  -4 -12    5.90    1.90
   2  -4  12    5.50    1.60
  -2   4 -12    8.20    1.90
   2   4  12    6.80    1.70
   2   4  12    6.50    1.80
   3  -4  12    2.70    1.60
  -3  -4 -12    2.40    1.90
   3  -4  12    5.10    2.00
   3   4  12    4.10    1.60
   3   4  12    4.90    1.90
  -3   4 -12    5.10    2.00
   4  -5 -12   -1.30    1.40
  -4  -5  12   -0.30    2.20
  -4   5  12    1.80    2.10
   4   5 -12   -2.10    1.30
   3  -5 -12   15.80    2.60
  -3  -5  12   12.60    2.70
   3   5 -12   14.20    2.50
  -3   5  12   20.60    2.40
  -3   5  12   14.20    2.60
   2  -5 -12   15.20    2.40
  -2  -5  12   15.20    2.40
   2   5 -12   19.70    2.70
  -2   5  12   13.10    2.00
  -2   5  12   19.30    2.40
  -1  -5  12    6.80    1.80
  -1  -5  12    7.00    1.50
   1  -5 -12    9.00    1.60
   1  -5 -12    5.40    1.70
  -1   5  12    4.60    1.40
   1   5 -12    6.00    1.70
   0  -5 -12   24.60    2.50
   0  -5  12   21.00    2.40
   0  -5  12   23.70    2.70
   0  -5 -12   26.10    2.90
   0   5 -12   29.10    2.50
   0   5  12   20.10    2.30
   1  -5  12    2.50    1.30
  -1  -5 -12    2.00    1.50
   1  -5  12    1.70    1.20
  -1   5 -12    0.60    1.20
   1   5  12    0.60    1.10
   1   5  12    1.30    1.10
  -2  -5 -12    1.00    1.50
   2  -5  12    0.20    1.20
   2  -5  12    1.10    1.30
   2   5  12   -0.60    1.00
   2   5  12    1.50    1.50
  -2   5 -12    2.00    1.50
  -3  -5 -12   -2.60    1.50
   3  -5  12    0.80    1.50
   3  -5  12    0.00    1.50
   3   5  12    1.10    1.40
  -3   5 -12    1.40    1.70
   3   5  12    0.10    1.40
   3  -6 -12    0.80    1.50
  -3  -6  12    1.40    1.70
  -3   6  12    1.20    1.40
  -3   6  12    0.10    1.50
   3   6 -12   -0.10    1.30
  -2  -6  12    5.60    1.90
   2  -6 -12    3.30    1.60
  -2   6  12    4.10    1.50
   2   6 -12    4.70    1.50
  -2   6  12    4.70    1.60
   1  -6 -12   33.10    2.90
  -1  -6  12   29.60    2.20
   1  -6 -12   24.60    2.20
  -1  -6  12   30.30    2.80
  -1   6  12   32.30    3.00
   1   6 -12   31.40    3.20
   0  -6 -12    0.80    1.40
   0  -6  12    3.00    1.20
   0  -6 -12    2.00    1.20
   0  -6  12    2.20    1.30
   0   6 -12    3.60    1.40
   0   6  12    2.00    1.20
   1  -6  12    0.90    1.10
  -1  -6 -12   -0.20    1.50
   1  -6  12   -0.30    1.00
   1   6  12   -0.70    1.10
  -1   6 -12   -0.40    1.20
   1   6  12    1.10    1.00
  -2  -6 -12   -1.80    1.20
   2  -6  12    0.70    1.30
   2  -6  12    0.40    1.20
   2   6  12    1.20    1.20
   2   6  12    1.00    1.40
  -2   6 -12   -0.80    1.20
   3  -6  12    0.80    1.60
  -3  -6 -12    0.90    1.90
   3   6  12    3.90    1.90
  -3   6 -12    3.40    1.80
  -3  -7  12   -1.80    1.60
   3  -7 -12    2.80    1.60
  -3   7  12   -0.20    1.40
   3   7 -12   -1.90    1.00
  -3   7  12    1.50    1.60
   2  -7 -12    3.10    1.60
  -2  -7  12    5.70    2.00
  -2   7  12    3.70    1.70
   2   7 -12    6.40    1.80
  -2   7  12    9.10    1.70
   1  -7 -12   20.50    2.20
   1  -7 -12   20.60    2.80
  -1  -7  12   17.90    2.10
  -1  -7  12   20.00    2.80
  -1   7  12   16.40    2.50
   1   7 -12   18.10    2.50
   0  -7  12    4.00    1.40
   0  -7 -12    5.00    1.80
   0  -7  12    7.40    1.80
   0  -7 -12    5.70    1.50
   0   7 -12    3.80    1.50
   0   7  12    7.00    1.70
   1  -7  12   18.30    2.70
  -1  -7 -12   17.60    2.60
   1  -7  12   19.50    2.70
   1   7  12   15.50    2.30
   1   7  12   17.40    2.40
  -1   7 -12   15.40    2.30
  -2  -7 -12    3.80    1.90
   2  -7  12    4.90    1.90
   2  -7  12    2.60    1.40
   2   7  12    3.20    1.70
  -2   7 -12    5.40    1.80
   2   7  12    1.90    1.50
  -2   7 -12    4.50    1.70
   3  -7  12    7.30    2.40
  -3  -7 -12    5.00    2.30
   3   7  12    5.40    2.10
  -3   7 -12    2.60    1.70
   3  -8 -12    0.30    1.40
  -3  -8  12    3.60    2.20
   3   8 -12   -0.20    1.20
  -3   8  12   -1.00    1.40
  -3   8  12   -0.50    1.40
  -2  -8  12    5.90    2.00
   2  -8 -12    0.70    1.50
   2   8 -12    1.20    1.40
  -2   8  12    1.60    1.60
   1  -8 -12    2.70    1.70
  -1  -8  12    3.90    1.70
   1   8 -12    0.20    1.20
   1   8 -12    2.30    1.20
  -1   8  12    3.30    1.60
   0  -8 -12    4.80    1.40
   0  -8 -12    4.00    1.80
   0  -8  12    0.90    1.30
   0  -8  12    2.10    1.20
   0   8 -12    1.20    1.40
   0   8  12    3.30    1.40
   1  -8  12    8.60    2.10
  -1  -8 -12    9.00    2.40
   1   8  12    8.40    1.90
   1   8  12    8.10    1.70
  -1   8 -12   10.10    2.20
  -1   8 -12    8.00    1.90
   2  -8  12   28.90    3.60
  -2  -8 -12   20.80    3.10
   2   8  12   20.00    3.10
  -2   8 -12   16.80    2.60
   2   8  12   26.90    3.00
  -2   8 -12   25.00    3.20
  -3  -9  12    0.60    2.10
   3  -9 -12    1.50    1.70
  -3   9  12    0.80    1.80
   3   9 -12   -0.40    1.30
  -3   9  12   -0.20    1.60
   2  -9 -12    0.30    1.20
  -2  -9  12   -1.30    1.30
   2   9 -12   -1.90    1.00
  -2   9  12    0.70    1.40
   1  -9 -12    2.10    1.60
  -1  -9  12    8.10    2.10
  -1   9  12    4.30    1.60
   1   9 -12    2.60    1.10
   1   9 -12    3.20    1.50
   0  -9  12    1.30    1.50
   0  -9 -12    0.60    1.60
   0  -9 -12   -0.20    1.10
   0   9  12   -1.30    1.00
   0   9 -12   -0.60    1.00
   0   9 -12    0.00    1.20
  -1  -9 -12   20.90    3.20
   1  -9  12   29.90    3.70
  -1   9 -12   28.30    3.10
   1   9  12   28.50    3.20
  -1   9 -12   15.40    2.30
   1   9  12   22.70    2.80
  -2  -9 -12   -1.40    1.60
   2  -9  12   -1.80    1.60
  -2   9 -12    2.40    1.50
   2   9  12   -0.50    1.40
   2   9  12    0.50    1.40
  -2 -10  12    3.80    2.00
   2 -10 -12    0.80    1.50
  -2  10  12    0.90    1.70
   2  10 -12   -0.10    1.30
   1 -10 -12    1.10    1.70
  -1 -10  12    3.50    1.90
  -1  10  12    0.80    1.40
   1  10 -12    0.80    1.10
   1  10 -12    1.70    1.50
   0 -10  12    1.40    1.60
   0 -10 -12    0.00    1.60
   0  10  12    0.10    1.10
   0  10 -12   -0.60    0.90
   0  10 -12    1.00    1.30
   1 -10  12   -0.60    1.50
  -1 -10 -12    1.00    1.90
  -1  10 -12   -0.20    1.30
  -1  10 -12   -0.70    1.00
   1  10  12   -1.00    1.00
   1  10  12   -1.20    1.20
   2 -10  12    2.60    2.00
  -2 -10 -12    3.20    2.30
  -2  10 -12   -0.40    1.40
   2  10  12    1.40    1.60
   2  10  12   -0.30    1.50
   2 -11 -12    3.50    1.80
  -2 -11  12    2.60    2.20
  -2  11  12   -2.10    1.50
   2  11 -12    0.20    1.50
   1 -11 -12    7.00    2.30
  -1 -11  12    2.50    1.80
  -1  11  12    0.70    1.40
   1  11 -12    3.50    1.70
   1  11 -12    2.50    1.20
   0 -11 -12    2.10    1.90
   0 -11  12    0.90    1.50
   0  11 -12    4.40    1.80
   0  11 -12    1.30    1.30
   0  11  12    3.60    1.50
  -1 -11 -12    1.20    1.80
   1 -11  12    1.90    1.70
   1  11  12   -0.10    1.40
   1  11  12    0.90    1.50
  -1  11 -12   -0.50    1.10
  -1 -12  12    1.40    1.90
   1 -12 -12   -0.80    1.70
  -1  12  12    0.90    1.50
   1  12 -12   -0.20    1.30
   0 -12  12    6.30    2.30
   0 -12 -12    6.20    2.20
   0  12 -12    5.90    1.80
   0  12 -12    9.60    2.10
   0  12  12    2.10    1.50
   1 -12  12    0.50    1.80
  -1 -12 -12    0.10    1.70
   1  12  12    0.70    1.50
  -1  12 -12    0.60    1.30
   1  12  12    0.60    1.40
   0 -13 -12    2.50    2.00
   0 -13  12    2.20    2.30
   0  13  12    1.60    1.70
   0  13 -12   -0.30    1.30
  -4   0  13   -0.10    2.10
   4   0 -13    0.80    1.50
   3   0 -13   -1.10    1.00
  -3   0  13    1.80    1.90
   3   0 -13   -1.40    1.10
  -2   0  13    1.20    1.00
  -2   0  13   -0.20    1.40
   2   0 -13    1.20    1.00
   2   0 -13   -0.60    1.10
   1   0 -13   -0.90    0.80
   1   0 -13    1.30    1.20
  -1   0  13    0.40    1.00
  -1   0  13    0.40    1.00
   0   0  13    0.20    0.80
   0   0 -13    0.90    0.80
   0   0  13    0.80    1.10
   0   0 -13   -0.10    1.10
  -1   0 -13    0.30    1.10
   1   0  13    0.80    1.10
  -1   0 -13    0.90    1.20
  -2   0 -13    1.10    1.20
   2   0  13   -0.20    1.10
  -2   0 -13    2.00    1.40
   3   0  13    0.30    1.40
  -3   0 -13    1.50    1.70
   4  -1 -13   -0.50    1.40
  -4  -1  13   -2.60    1.80
   4   1 -13    1.70    1.80
  -4   1  13   -1.90    2.20
   4   1 -13    3.20    2.20
   3  -1 -13    3.80    1.50
   3  -1 -13    5.90    1.80
  -3  -1  13   10.10    2.40
   3   1 -13    3.20    1.50
  -3   1  13    6.70    2.30
   3   1 -13    6.00    1.80
   2  -1 -13   25.80    2.60
  -2  -1  13   24.20    2.10
   2  -1 -13   28.50    2.50
  -2  -1  13   31.00    3.20
  -2   1  13   27.60    3.00
  -2   1  13   27.90    2.30
   2   1 -13   29.90    2.20
   2   1 -13   26.90    2.90
   1  -1 -13  143.09    4.20
  -1  -1  13  143.89    4.50
   1  -1 -13  134.09    4.60
  -1  -1  13  134.89    4.60
  -1   1  13  134.39    4.40
  -1   1  13  130.39    4.40
   1   1 -13  138.39    3.60
   1   1 -13  139.19    4.80
   0  -1 -13   35.90    2.70
   0  -1  13   38.40    2.40
   0  -1 -13   40.30    2.40
   0  -1  13   37.80    2.60
   0   1 -13   41.30    2.80
   0   1  13   40.70    2.10
   0   1  13   42.50    2.70
  -1  -1 -13   -0.40    1.00
   1  -1  13    0.20    1.00
  -1  -1 -13    0.80    1.20
   1  -1  13    1.30    0.90
  -1   1 -13    0.30    1.10
   1   1  13    1.50    1.20
  -2  -1 -13   -1.20    1.20
   2  -1  13    0.10    1.20
  -2  -1 -13    0.30    1.20
  -2   1 -13   -0.90    1.00
   2   1  13   -0.80    1.10
   3  -1  13    1.80    1.80
  -3  -1 -13   -0.40    1.60
   3   1  13   -0.70    1.30
   3   1  13    2.40    1.70
  -3   1 -13    1.90    1.60
   4  -2 -13    0.50    1.40
  -4  -2  13   -1.50    2.10
  -4   2  13   -5.70    1.80
   4   2 -13    1.50    2.00
   4   2 -13    1.60    1.60
  -3  -2  13   -1.80    1.60
   3  -2 -13    0.90    1.10
   3  -2 -13   -1.00    1.10
   3   2 -13    0.70    1.20
   3   2 -13    3.00    1.60
  -3   2  13   -1.20    1.70
   2  -2 -13   49.70    3.00
   2  -2 -13   54.29    3.00
  -2  -2  13   53.89    2.70
  -2  -2  13   53.09    3.60
  -2   2  13   52.09    2.90
   2   2 -13   50.89    2.60
   2   2 -13   52.89    3.30
  -2   2  13   48.50    3.30
  -1  -2  13   -0.80    1.00
   1  -2 -13    2.20    1.20
   1  -2 -13    0.40    1.10
  -1  -2  13   -0.10    1.10
  -1   2  13   -0.30    0.90
   1   2 -13    0.30    1.20
  -1   2  13    0.00    1.00
   0  -2 -13   55.59    3.20
   0  -2  13   52.19    3.00
   0  -2 -13   57.19    2.90
   0  -2  13   47.90    2.80
   0   2  13   57.39    3.10
   0   2 -13   54.59    3.10
  -1  -2 -13    1.00    1.20
  -1  -2 -13   -0.40    1.20
   1  -2  13    0.40    0.90
   1  -2  13    1.40    1.10
  -1   2 -13    0.10    1.20
   1   2  13   -0.60    1.00
  -2  -2 -13    4.40    1.70
   2  -2  13    6.40    1.80
  -2  -2 -13    8.70    2.10
  -2   2 -13    3.50    1.60
   2   2  13    8.80    1.90
   2   2  13    7.60    2.10
  -3  -2 -13    0.20    1.60
   3  -2  13    0.30    1.40
   3   2  13   -0.80    1.30
   3   2  13    0.40    1.40
  -3   2 -13    1.80    1.60
  -4  -3  13    0.20    2.20
   4  -3 -13   -2.80    1.30
  -4   3  13   -2.00    2.10
   4   3 -13    1.70    1.70
   4   3 -13    1.00    1.80
  -3  -3  13    1.90    1.90
   3  -3 -13    1.20    1.40
   3   3 -13   -1.20    1.30
  -3   3  13    1.00    1.70
  -2  -3  13   -0.10    1.30
  -2  -3  13    1.10    1.00
   2  -3 -13    0.00    1.00
   2  -3 -13   -0.50    1.00
  -2   3  13   -1.80    0.90
   2   3 -13   -1.50    0.90
  -2   3  13    1.50    1.20
   1  -3 -13   16.30    2.10
   1  -3 -13   18.70    2.20
  -1  -3  13   14.90    1.90
  -1  -3  13   18.00    2.40
  -1   3  13   14.10    2.10
  -1   3  13   16.10    1.90
   1   3 -13   13.90    2.20
   0  -3  13    3.40    1.40
   0  -3 -13    4.00    1.50
   0  -3  13    3.50    1.30
   0  -3 -13    5.40    1.60
   0   3  13    3.30    1.30
   0   3 -13    4.00    1.50
   1  -3  13    0.50    1.00
  -1  -3 -13    1.60    1.30
   1  -3  13    0.20    1.00
  -1  -3 -13   -1.10    1.30
  -1   3 -13    0.30    1.20
   1   3  13   -0.50    0.90
  -2  -3 -13   -0.40    1.50
   2  -3  13    0.50    1.20
   2  -3  13    1.90    1.10
   2   3  13   -1.00    1.10
   2   3  13    3.50    1.80
  -2   3 -13   -1.60    1.10
  -3  -3 -13    3.80    2.10
   3  -3  13    8.50    2.20
   3   3  13    6.90    1.80
   3   3  13    9.30    2.30
  -3   3 -13    8.80    2.30
   4  -4 -13    0.00    1.70
  -4  -4  13   -0.90    2.00
  -4   4  13    0.20    2.30
   4   4 -13    1.70    1.70
  -3  -4  13    8.60    2.40
   3  -4 -13    8.30    2.00
   3   4 -13    8.80    2.00
  -3   4  13   11.10    2.50
   2  -4 -13    2.00    1.40
   2  -4 -13    0.00    1.00
  -2  -4  13   -0.50    1.20
  -2   4  13    1.20    1.40
   2   4 -13    2.80    1.40
  -2   4  13    1.00    1.30
  -1  -4  13    0.00    1.10
   1  -4 -13   -2.40    1.00
   1  -4 -13   -1.20    0.90
  -1  -4  13    1.50    1.00
   1   4 -13   -0.60    1.10
  -1   4  13    0.50    1.10
   0  -4  13    4.90    1.40
   0  -4 -13    4.40    1.60
   0  -4 -13    5.50    1.60
   0  -4  13    2.20    1.20
   0   4  13    3.70    1.30
   0   4 -13    4.60    1.50
   1  -4  13   10.10    1.90
  -1  -4 -13   10.20    2.10
  -1  -4 -13    8.10    1.80
   1  -4  13   10.10    1.90
   1   4  13    6.30    1.60
  -1   4 -13    9.00    1.90
   2  -4  13   -0.10    1.20
  -2  -4 -13    1.50    1.70
   2  -4  13    0.60    1.20
  -2   4 -13    0.10    1.30
   2   4  13    0.90    1.30
   2   4  13    1.60    1.50
   3  -4  13   -1.40    1.50
  -3  -4 -13    1.40    1.90
   3   4  13   -0.10    1.40
  -3   4 -13    2.70    2.00
   3   4  13   -2.60    1.30
  -3  -5  13    6.30    2.30
   3  -5 -13    8.90    2.30
  -3   5  13   12.30    2.00
   3   5 -13    6.60    1.90
  -3   5  13   11.30    2.50
   2  -5 -13   19.30    2.60
  -2  -5  13   23.00    3.00
  -2   5  13   23.60    2.60
   2   5 -13   23.00    2.80
  -2   5  13   20.70    2.50
  -1  -5  13    1.70    1.00
   1  -5 -13    3.30    1.50
  -1  -5  13    0.10    1.10
   1  -5 -13   -0.10    1.00
   1   5 -13    0.20    1.10
  -1   5  13   -0.80    1.00
   0  -5  13   -0.90    0.90
   0  -5 -13   -0.60    1.00
   0  -5 -13    1.20    1.40
   0  -5  13   -0.50    1.00
   0   5 -13    0.20    1.10
   0   5  13    0.80    1.00
   1  -5  13    1.00    1.20
   1  -5  13    3.20    1.30
  -1  -5 -13   -1.40    1.50
  -1   5 -13    0.40    1.30
   1   5  13    2.90    1.40
   1   5  13    3.10    1.30
   2  -5  13    1.10    1.30
   2  -5  13    0.50    1.20
  -2  -5 -13    0.10    1.60
   2   5  13    0.30    1.30
   2   5  13   -0.20    1.30
  -2   5 -13   -1.00    1.30
   3  -5  13    0.00    1.50
  -3  -5 -13    0.20    1.90
   3  -5  13   -0.40    1.50
   3   5  13    1.60    1.70
   3   5  13    0.20    1.40
  -3   5 -13   -0.70    1.70
   3  -6 -13   -0.60    1.40
  -3  -6  13   -0.10    1.70
  -3   6  13    0.30    1.40
   3   6 -13   -0.20    1.20
  -3   6  13   -0.70    1.40
   2  -6 -13    1.50    1.40
  -2  -6  13    2.40    1.60
   2   6 -13    3.30    1.50
  -2   6  13    2.90    1.40
  -2   6  13    1.90    1.40
   1  -6 -13   19.10    2.60
  -1  -6  13   22.00    2.80
  -1  -6  13   18.60    2.20
   1  -6 -13   20.50    2.30
  -1   6  13   19.60    2.50
   1   6 -13   19.10    2.60
   0  -6 -13   43.30    3.30
   0  -6  13   40.00    2.80
   0  -6  13   39.20    3.10
   0  -6 -13   43.60    2.80
   0   6  13   36.50    2.80
   0   6 -13   40.20    3.00
  -1  -6 -13    9.60    2.20
   1  -6  13   11.00    2.10
   1  -6  13    8.70    1.90
   1   6  13    7.40    1.80
   1   6  13   10.40    1.90
  -1   6 -13   13.50    2.30
  -2  -6 -13   -0.30    1.60
   2  -6  13    0.70    1.30
   2  -6  13    0.50    1.30
   2   6  13    0.20    1.40
  -2   6 -13   -0.20    1.50
   2   6  13    2.60    1.70
   3  -6  13    0.20    1.60
  -3  -6 -13    0.70    1.80
  -3   6 -13    1.70    1.60
   3   6  13   -2.10    1.40
  -3  -7  13   -1.40    1.60
   3  -7 -13    0.30    1.60
   3   7 -13   -2.60    1.10
  -3   7  13    0.40    1.60
  -3   7  13   -1.50    1.40
   2  -7 -13   10.70    2.30
  -2  -7  13    7.20    2.20
  -2   7  13   13.30    2.40
   2   7 -13   11.30    2.20
  -1  -7  13    0.50    1.20
   1  -7 -13    5.10    1.90
   1  -7 -13   -0.30    1.10
  -1  -7  13    1.30    1.40
   1   7 -13    1.20    1.30
  -1   7  13    1.90    1.40
   0  -7  13   18.10    2.50
   0  -7 -13   18.40    2.70
   0  -7  13   20.80    2.80
   0  -7 -13   12.10    2.00
   0   7  13   16.10    2.40
   0   7 -13   14.00    2.30
   1  -7  13    3.70    1.70
   1  -7  13    2.50    1.40
  -1  -7 -13   -0.10    1.60
   1   7  13    3.70    1.50
   1   7  13    3.50    1.70
  -1   7 -13    4.40    1.70
   2  -7  13    8.10    2.20
  -2  -7 -13    2.70    1.90
   2  -7  13    5.50    1.70
   2   7  13    4.90    1.90
   2   7  13    7.30    1.90
  -2   7 -13    8.00    2.30
  -3  -8  13    1.80    2.40
   3  -8 -13   -0.40    1.30
  -3   8  13    0.90    1.80
  -3   8  13   -2.40    1.30
   3   8 -13    0.10    1.30
  -2  -8  13    7.10    2.40
   2  -8 -13    6.40    1.90
   2   8 -13    7.50    2.10
  -2   8  13    3.30    1.80
   1  -8 -13    1.00    1.60
  -1  -8  13    1.50    1.50
  -1  -8  13    0.10    1.10
   1   8 -13    0.10    1.40
  -1   8  13    1.50    1.30
   0  -8 -13   -0.50    1.10
   0  -8  13    2.20    1.50
   0  -8  13    2.40    1.50
   0  -8 -13   -1.20    1.30
   0   8  13    0.10    1.10
   0   8 -13    1.70    1.40
   1  -8  13   29.60    3.20
  -1  -8 -13   25.00    3.30
   1  -8  13   31.90    3.70
   1   8  13   23.40    2.90
   1   8  13   23.10    3.00
  -1   8 -13   33.10    3.40
  -2  -8 -13    0.20    1.80
   2  -8  13    0.90    1.60
  -2   8 -13    1.20    1.50
   2   8  13   -1.00    1.50
  -2   8 -13    0.70    1.40
   2   8  13    2.80    1.60
   3  -9 -13   -1.70    1.30
  -3  -9  13    2.00    2.30
   3   9 -13    0.90    1.50
  -3   9  13   -1.50    1.60
   2  -9 -13    2.40    1.70
  -2  -9  13   -0.40    1.40
   2   9 -13    0.40    1.40
  -2   9  13    0.00    1.70
  -1  -9  13    0.40    1.50
   1  -9 -13   -0.50    1.50
   1   9 -13   -1.40    1.10
  -1   9  13    0.40    1.40
   1   9 -13    1.10    1.00
   0  -9 -13    0.70    1.80
   0  -9  13   -1.50    1.40
   0  -9 -13    2.30    1.30
   0   9 -13    1.80    1.30
   0   9 -13    2.20    1.60
   0   9  13    3.20    1.40
   1  -9  13    2.80    1.70
  -1  -9 -13   -0.60    1.70
   1   9  13   -0.20    1.40
  -1   9 -13   -1.80    1.30
  -1   9 -13    1.20    1.30
   1   9  13    2.40    1.70
  -2  -9 -13    6.80    2.50
   2  -9  13   17.40    3.10
   2   9  13    8.00    2.30
   2   9  13    8.50    2.10
  -2   9 -13   13.40    2.60
  -2 -10  13   -0.40    1.80
   2 -10 -13    1.20    1.50
  -2  10  13    0.40    1.70
   2  10 -13    0.50    1.40
  -1 -10  13    7.80    2.30
   1 -10 -13    9.90    2.40
   1  10 -13    8.40    1.70
  -1  10  13    6.80    2.10
   1  10 -13    5.10    1.90
   0 -10  13    0.80    1.60
   0 -10 -13   -0.60    1.60
   0  10 -13   -1.80    0.90
   0  10 -13    1.00    1.40
   0  10  13    0.80    1.30
   1 -10  13    3.50    2.00
  -1 -10 -13    0.50    1.80
   1  10  13    1.40    1.70
  -1  10 -13    1.10    1.20
  -1  10 -13   -1.00    1.40
   1  10  13    2.50    1.60
   2 -10  13    2.10    2.10
  -2 -10 -13    1.60    2.30
   2  10  13    2.30    1.80
   2  10  13    0.30    1.80
  -2  10 -13    2.50    1.60
   2 -11 -13    8.70    2.30
  -2 -11  13   19.80    3.80
  -2  11  13   14.60    3.10
   2  11 -13   10.10    2.60
  -1 -11  13    5.60    2.30
   1 -11 -13    4.50    2.20
   1  11 -13    4.20    1.90
   1  11 -13    4.30    1.50
  -1  11  13    5.40    2.10
   0 -11 -13    1.10    1.80
   0 -11  13    4.60    1.90
   0  11 -13    3.50    1.60
   0  11 -13    4.10    1.80
   0  11  13    5.80    1.90
   1 -11  13    4.90    2.20
  -1 -11 -13   -0.90    1.60
   1  11  13    1.10    1.60
   1  11  13    0.60    1.60
  -1  11 -13    2.10    1.50
  -1 -12  13   12.30    3.00
   1 -12 -13    5.40    2.40
  -1  12  13    8.70    2.40
   1  12 -13    9.50    2.30
   0 -12  13   -0.20    1.90
   0 -12 -13    0.30    1.80
   0  12  13    0.30    1.50
   0  12 -13   -1.30    1.00
   0  12 -13    0.00    1.50
  -4   0  14    0.30    2.30
   4   0 -14   -1.10    1.40
   3   0 -14    4.50    1.60
  -3   0  14    2.80    1.80
   3   0 -14    2.20    1.60
  -2   0  14    0.60    1.30
   2   0 -14    0.00    1.00
  -2   0  14    0.40    1.00
   2   0 -14    0.70    1.20
  -1   0  14  661.03   11.20
  -1   0  14  674.23   11.80
   1   0 -14  623.84   11.70
   1   0 -14  677.53   10.50
   0   0 -14    1.80    1.30
   0   0  14    2.90    1.10
   0   0  14    3.40    1.40
   1   0  14   41.30    3.00
  -1   0 -14   46.00    3.20
  -2   0 -14    3.80    1.60
   2   0  14    2.60    1.40
   3   0  14   -1.10    1.20
  -3   0 -14    1.50    1.70
  -4  -1  14   -1.00    2.20
   4  -1 -14    1.90    1.60
  -4   1  14   -1.70    2.00
   4   1 -14    1.20    2.10
   4   1 -14    0.10    1.50
   3  -1 -14    2.70    1.40
   3  -1 -14    4.00    1.70
  -3  -1  14    2.40    1.90
   3   1 -14    1.90    1.40
  -3   1  14    3.80    2.00
   3   1 -14    3.30    1.60
  -2  -1  14   60.59    3.00
  -2  -1  14   63.69    3.80
   2  -1 -14   71.79    3.60
   2  -1 -14   64.19    3.30
   2   1 -14   67.29    3.10
  -2   1  14   72.19    3.40
   2   1 -14   68.29    3.70
  -2   1  14   63.89    3.70
   1  -1 -14  114.79    4.40
   1  -1 -14  116.49    3.90
  -1  -1  14  114.19    4.40
  -1  -1  14  108.09    4.10
  -1   1  14  120.29    4.40
   1   1 -14  109.99    4.40
  -1   1  14  122.69    4.20
   0  -1 -14   96.99    3.50
   0  -1  14   95.79    3.70
   0  -1  14  101.79    4.10
   0  -1 -14  104.59    4.30
   0   1  14   94.19    4.00
   0   1 -14  101.09    4.30
  -1  -1 -14    1.30    1.30
  -1  -1 -14    1.80    1.40
   1  -1  14    2.20    1.20
   1   1  14    1.20    1.20
  -1   1 -14    1.00    1.20
  -2  -1 -14    2.70    1.60
   2  -1  14    6.00    1.70
   2   1  14    7.30    1.80
  -2   1 -14    3.90    1.70
   3  -1  14   -0.60    1.50
  -3  -1 -14   -0.60    1.50
  -3   1 -14    0.40    1.50
   3   1  14    0.10    1.40
  -4  -2  14    0.50    2.50
   4  -2 -14    1.80    1.60
   4   2 -14    3.90    2.00
  -4   2  14   -1.60    2.10
   4   2 -14    2.60    2.10
   3  -2 -14    0.50    1.30
  -3  -2  14   -0.50    1.70
  -3   2  14   -0.10    1.70
   3   2 -14    0.60    1.40
  -2  -2  14    4.80    1.70
  -2  -2  14    1.90    1.10
   2  -2 -14    5.40    1.40
   2  -2 -14    3.90    1.50
  -2   2  14    2.50    1.30
   2   2 -14    3.40    1.50
  -2   2  14    3.60    1.50
  -1  -2  14   69.39    3.40
  -1  -2  14   73.99    3.70
   1  -2 -14   69.19    3.40
   1  -2 -14   73.19    3.30
  -1   2  14   65.99    3.40
   1   2 -14   68.19    3.60
  -1   2  14   69.99    3.20
   0  -2 -14  162.58    5.40
   0  -2  14  168.38    5.20
   0  -2  14  179.08    5.40
   0  -2 -14  177.08    4.90
   0   2 -14  167.78    5.50
   0   2  14  173.98    5.40
   1  -2  14   15.60    2.00
   1  -2  14   16.40    2.40
  -1  -2 -14   15.30    2.30
  -1  -2 -14   20.60    2.50
  -1   2 -14   17.90    2.50
   1   2  14   16.00    2.20
  -2  -2 -14    0.50    1.50
   2  -2  14   -0.10    1.20
  -2  -2 -14   -0.60    1.20
  -2   2 -14    1.80    1.60
   2   2  14   -0.40    1.10
  -3  -2 -14    0.20    1.50
  -3  -2 -14    0.80    1.70
   3  -2  14    0.70    1.50
   3   2  14   -0.20    1.40
   3   2  14   -1.30    1.40
  -3   2 -14   -2.10    1.30
  -3  -3  14   -1.40    1.60
   3  -3 -14   -1.20    1.10
  -3   3  14   -1.40    1.60
   3   3 -14   -0.50    1.40
  -2  -3  14   14.50    2.50
  -2  -3  14   15.30    1.90
   2  -3 -14   17.40    2.40
   2  -3 -14   16.50    2.20
  -2   3  14   15.20    2.30
  -2   3  14   16.00    2.20
   2   3 -14   20.10    2.60
  -1  -3  14   29.10    3.00
  -1  -3  14   28.70    2.70
   1  -3 -14   31.80    2.50
   1  -3 -14   31.90    2.50
   1   3 -14   25.90    2.90
  -1   3  14   28.20    2.80
   0  -3 -14   21.30    2.70
   0  -3  14   19.10    2.40
   0  -3  14   20.40    2.40
   0  -3 -14   24.20    2.60
   0   3 -14   22.70    2.70
   0   3  14   19.90    2.40
   1  -3  14   16.40    2.40
   1  -3  14   20.10    2.30
  -1  -3 -14   19.40    2.60
  -1  -3 -14   16.30    2.40
  -1   3 -14   17.20    2.50
   1   3  14   16.60    2.30
  -2  -3 -14    0.40    1.50
  -2  -3 -14    3.00    1.70
   2  -3  14    0.30    1.20
  -2   3 -14   -0.60    1.30
   2   3  14   -0.10    1.30
  -3  -3 -14   -1.00    1.70
   3  -3  14    0.10    1.50
   3   3  14    1.40    1.60
  -3   3 -14    0.40    1.60
   3   3  14    1.00    1.60
  -3  -4  14    0.30    1.90
   3  -4 -14   -1.30    1.10
  -3   4  14   -1.80    1.40
   3   4 -14   -1.50    1.10
  -2  -4  14   19.70    2.80
   2  -4 -14   13.50    2.20
   2  -4 -14   17.20    2.20
  -2   4  14   11.60    2.20
  -2   4  14   14.00    2.30
   2   4 -14   15.60    2.50
   1  -4 -14   55.09    3.10
  -1  -4  14   54.29    3.00
  -1  -4  14   52.39    3.50
   1  -4 -14   58.69    3.40
   1   4 -14   54.19    3.40
  -1   4  14   57.39    3.40
   0  -4  14    0.00    1.00
   0  -4  14   -0.40    1.00
   0  -4 -14   -1.60    1.10
   0  -4 -14    0.00    1.10
   0   4 -14    0.10    1.10
   0   4  14   -0.20    0.90
  -1  -4 -14   26.80    3.00
   1  -4  14   30.60    2.70
  -1  -4 -14   27.30    3.10
   1  -4  14   24.80    2.90
   1   4  14   26.50    2.80
  -1   4 -14   25.60    3.00
  -2  -4 -14    0.70    1.60
   2  -4  14   -0.50    1.20
   2  -4  14    1.60    1.30
   2   4  14   -0.30    1.20
  -2   4 -14    1.30    1.50
   2   4  14    1.30    1.40
  -3  -4 -14   -3.00    1.70
   3  -4  14   -3.80    1.30
  -3   4 -14    2.30    2.00
   3   4  14    1.00    1.50
   3   4  14    0.60    1.60
  -3  -5  14    5.30    2.30
   3  -5 -14    3.00    1.60
  -3   5  14    1.70    1.60
  -3   5  14    1.90    1.80
   3   5 -14    4.00    1.60
  -2  -5  14    7.40    2.10
   2  -5 -14    9.40    2.20
   2   5 -14   11.90    2.30
  -2   5  14    9.10    1.90
  -2   5  14    9.90    2.00
  -1  -5  14    0.50    1.20
   1  -5 -14   -1.10    1.00
  -1  -5  14   -0.50    0.90
   1  -5 -14   -1.40    1.10
   1   5 -14    0.50    1.20
  -1   5  14    0.30    1.20
   0  -5 -14   -0.60    1.20
   0  -5  14   -0.90    1.00
   0  -5 -14    1.90    1.40
   0  -5  14   -0.80    1.00
   0   5  14    0.50    1.10
   0   5 -14    0.90    1.30
   1  -5  14    1.40    1.30
  -1  -5 -14    2.70    1.40
  -1  -5 -14    1.80    1.60
   1  -5  14    1.30    1.30
   1   5  14    2.50    1.30
  -1   5 -14    3.40    1.50
   2  -5  14   -1.30    1.10
  -2  -5 -14   -1.60    1.50
   2  -5  14   -1.10    1.20
   2   5  14   -0.50    1.10
   2   5  14    0.40    1.40
  -2   5 -14   -0.40    1.50
  -3  -5 -14   -1.70    1.80
   3  -5  14    0.20    1.60
   3   5  14    0.80    1.40
   3   5  14    0.40    1.40
  -3   5 -14    0.90    2.00
  -3  -6  14    6.00    2.30
   3  -6 -14    0.40    1.50
  -3   6  14    2.70    1.80
  -3   6  14    2.00    1.90
   3   6 -14    2.30    1.60
   2  -6 -14   10.00    2.10
  -2  -6  14   14.10    2.80
  -2   6  14   10.60    2.10
   2   6 -14   16.30    2.60
   1  -6 -14   -0.60    1.00
  -1  -6  14    1.40    1.10
   1  -6 -14    0.70    1.40
  -1  -6  14    0.70    1.30
   1   6 -14    3.40    1.50
  -1   6  14    0.40    1.40
   0  -6 -14   27.20    3.20
   0  -6  14   27.80    2.90
   0  -6 -14   30.90    2.70
   0  -6  14   33.60    3.50
   0   6 -14   22.30    2.80
   0   6  14   20.20    2.40
   1  -6  14    5.10    1.80
   1  -6  14    2.20    1.50
  -1  -6 -14    3.50    1.40
  -1  -6 -14    0.40    1.60
  -1   6 -14    2.60    1.70
   1   6  14    2.40    1.40
  -2  -6 -14    1.30    1.60
   2  -6  14    5.80    1.90
   2  -6  14   -0.90    1.10
   2   6  14    2.20    1.70
  -2   6 -14   -0.90    1.50
   2   6  14    2.70    1.50
   3  -7 -14    3.80    1.90
  -3  -7  14    0.70    1.90
  -3   7  14   -2.00    1.60
  -3   7  14    1.20    1.60
   3   7 -14    0.30    1.30
   2  -7 -14   -0.80    1.30
  -2  -7  14    2.70    1.80
   2   7 -14    1.00    1.20
  -2   7  14    1.70    1.50
  -1  -7  14    3.80    1.50
   1  -7 -14    2.70    1.40
   1  -7 -14    3.30    1.80
  -1  -7  14    5.60    2.00
  -1   7  14    0.30    1.30
   1   7 -14    2.60    1.50
   0  -7  14   -0.90    1.10
   0  -7 -14    2.60    1.40
   0  -7 -14   -0.40    1.50
   0  -7  14   -1.60    1.20
   0   7  14    0.40    1.20
   0   7 -14   -1.50    1.20
   1  -7  14    7.20    2.10
  -1  -7 -14    3.90    1.90
   1  -7  14    6.40    1.90
   1   7  14    3.30    1.70
  -1   7 -14    6.40    2.00
   1   7  14    6.60    1.80
   2  -7  14    9.50    2.20
  -2  -7 -14    4.40    2.20
   2  -7  14    5.20    2.00
   2   7  14    6.90    1.90
   2   7  14    3.10    1.80
  -2   7 -14    6.60    2.20
  -3  -8  14    0.40    2.20
   3  -8 -14    2.40    1.70
   3   8 -14    1.30    1.50
  -3   8  14   -0.50    1.60
   2  -8 -14    2.20    1.80
  -2  -8  14    1.10    1.80
  -2   8  14   -0.60    1.40
   2   8 -14    1.00    1.40
  -1  -8  14    1.00    1.60
   1  -8 -14    2.60    1.70
  -1  -8  14    1.90    1.30
   1   8 -14   -0.30    1.20
  -1   8  14   -0.20    1.10
   0  -8 -14    6.10    2.00
   0  -8  14    2.90    1.80
   0  -8  14    8.50    2.20
   0  -8 -14    9.10    2.00
   0   8  14    6.00    1.70
   0   8 -14    7.70    2.00
  -1  -8 -14    0.80    1.90
   1  -8  14    1.20    1.40
   1  -8  14    1.80    1.60
   1   8  14    3.60    1.70
  -1   8 -14    1.30    1.70
   1   8  14   -0.10    1.30
   2  -8  14    0.00    1.90
  -2  -8 -14    0.10    1.90
  -2   8 -14    0.00    1.20
  -2   8 -14   -1.30    1.50
   2   8  14    2.10    1.80
   2   8  14    1.80    1.80
  -2  -9  14    1.30    1.70
   2  -9 -14    2.00    1.50
   2   9 -14   -1.50    1.20
  -2   9  14    1.50    1.80
  -1  -9  14    2.70    1.80
   1  -9 -14   -0.50    1.60
   1   9 -14    1.90    1.10
  -1   9  14    4.40    1.90
   1   9 -14    1.30    1.50
   0  -9 -14    1.40    1.30
   0  -9  14   -2.20    1.20
   0  -9 -14    0.50    1.60
   0   9 -14   -0.40    1.00
   0   9 -14   -0.30    1.30
   0   9  14   -0.40    1.10
  -1  -9 -14   -0.50    1.80
   1  -9  14    0.70    1.80
  -1   9 -14   -1.30    1.50
  -1   9 -14    0.70    1.20
   1   9  14   -1.00    1.20
   1   9  14    0.40    1.50
   2  -9  14    2.10    2.00
  -2  -9 -14   -2.60    1.80
  -2   9 -14    0.50    1.50
   2   9  14   -1.10    1.50
   2   9  14   -0.50    1.50
  -2 -10  14    7.30    2.70
   2 -10 -14    5.70    2.10
   2  10 -14    3.00    1.70
  -2  10  14    4.40    2.10
  -1 -10  14    0.50    1.70
   1 -10 -14    2.00    2.00
   1  10 -14    1.00    1.40
   1  10 -14   -0.10    1.00
  -1  10  14    0.80    1.50
   0 -10  14    2.60    2.00
   0 -10 -14    4.30    2.00
   0  10 -14    2.40    1.50
   0  10 -14    1.80    1.40
   0  10  14    0.80    1.40
   1 -10  14    4.20    1.90
  -1 -10 -14   -0.70    1.70
  -1  10 -14   -0.70    1.10
   1  10  14   -0.40    1.50
   1  10  14    2.50    1.80
  -1  10 -14   -1.80    1.40
   1 -11 -14    0.10    1.70
  -1 -11  14    0.50    1.60
  -1  11  14    0.60    1.90
   1  11 -14    1.00    1.50
   0 -11 -14   -0.80    1.70
   0 -11  14    1.40    1.90
   0  11 -14    1.70    1.50
   0  11 -14    1.50    1.70
   0  11  14    2.10    1.50
  -1 -11 -14    2.30    2.10
   1 -11  14    2.20    1.90
   1  11  14    0.30    1.70
   1  11  14    2.50    1.80
  -1  11 -14    0.40    1.40
   3   0 -15    0.80    1.40
   3   0 -15    2.40    1.40
  -3   0  15   -0.20    1.60
  -2   0  15   -2.10    1.10
   2   0 -15    0.10    1.20
  -2   0  15   -0.10    1.00
   2   0 -15    0.20    1.10
   1   0 -15    0.30    1.10
  -1   0  15    1.80    1.20
  -1   0  15   -2.40    0.80
   0   0  15    0.80    1.10
   0   0 -15   -0.90    1.10
  -1   0 -15    0.80    1.30
   1   0  15    0.10    1.10
  -2   0 -15   -2.40    1.10
   2   0  15    1.40    1.50
   3   0  15    1.80    1.70
  -3   0 -15   -0.80    1.60
  -3  -1  15   -2.30    1.60
   3  -1 -15   -0.30    1.20
   3  -1 -15    0.50    1.20
   3   1 -15    1.50    1.40
  -3   1  15   -1.40    1.70
  -2  -1  15    2.70    1.30
   2  -1 -15    4.20    1.40
   2  -1 -15    5.50    1.70
  -2  -1  15    0.50    1.40
  -2   1  15    7.10    1.90
   2   1 -15    4.60    1.70
  -2   1  15    1.80    1.30
   1  -1 -15    6.10    1.60
   1  -1 -15    4.30    1.40
  -1  -1  15    7.60    1.70
  -1  -1  15    5.70    1.60
  -1   1  15    4.40    1.40
   1   1 -15    5.90    1.70
  -1   1  15    4.60    1.60
   0  -1  15   52.79    2.90
   0  -1  15   49.30    3.20
   0  -1 -15   54.29    3.40
   0   1  15   51.49    3.20
   0   1 -15   53.49    3.40
  -1  -1 -15   46.00    3.30
   1  -1  15   47.60    3.30
  -1   1 -15   43.40    3.30
   1   1  15   46.50    3.30
  -2  -1 -15    1.30    1.30
   2  -1  15    0.80    1.30
   2   1  15    0.20    1.40
  -2   1 -15    1.00    1.40
   3  -1  15   -1.30    1.50
  -3  -1 -15   -0.50    1.70
   3   1  15    0.60    1.60
  -3   1 -15    1.50    1.80
  -3  -2  15   -1.20    1.60
   3  -2 -15   -0.60    1.10
  -3   2  15   -1.50    1.60
   3   2 -15   -0.80    1.20
   2  -2 -15    4.20    1.40
  -2  -2  15    4.20    1.30
  -2  -2  15    5.40    1.90
   2  -2 -15    3.30    1.50
  -2   2  15    2.80    1.50
   2   2 -15    5.30    1.70
  -2   2  15    1.00    1.30
  -1  -2  15   45.00    2.90
  -1  -2  15   45.50    3.10
   1  -2 -15   37.40    2.90
   1  -2 -15   46.00    2.80
   1   2 -15   41.40    3.10
  -1   2  15   44.80    3.10
   0  -2 -15   12.60    1.90
   0  -2  15    6.90    1.90
   0  -2 -15    6.80    1.80
   0  -2  15   10.20    1.70
   0   2  15    9.50    1.90
   0   2 -15    9.20    1.90
   1  -2  15   10.40    2.00
  -1  -2 -15   10.60    2.00
  -1  -2 -15    9.70    2.10
  -1   2 -15    9.10    2.10
   1   2  15    7.90    1.90
  -2  -2 -15    4.80    1.80
   2  -2  15    1.10    1.40
  -2   2 -15    2.80    1.80
   2   2  15    2.30    1.50
   3  -2  15   -0.20    1.60
  -3  -2 -15   -0.40    1.60
   3   2  15    0.90    1.60
  -3   2 -15    0.70    2.00
   3  -3 -15    0.90    1.30
  -3  -3  15    2.00    1.90
  -3   3  15   -0.80    1.70
   3   3 -15   -0.40    1.30
  -2  -3  15    8.70    2.20
  -2  -3  15    6.20    1.50
   2  -3 -15    7.30    1.90
   2  -3 -15    5.00    1.60
  -2   3  15    5.30    1.80
  -2   3  15    6.30    1.60
   2   3 -15    4.80    1.60
   1  -3 -15    2.50    1.40
  -1  -3  15    3.10    1.40
  -1  -3  15    4.00    1.50
   1  -3 -15    4.10    1.50
  -1   3  15   -1.40    1.00
   1   3 -15    2.90    1.50
   0  -3 -15    3.40    1.60
   0  -3 -15    5.30    1.50
   0  -3  15    2.80    1.50
   0  -3  15    3.30    1.40
   0   3 -15    1.80    1.40
   0   3  15    1.90    1.30
   1  -3  15    0.30    1.20
  -1  -3 -15   -1.30    1.10
  -1  -3 -15    3.20    1.70
   1  -3  15    1.80    1.30
  -1   3 -15   -0.80    1.30
   1   3  15    0.90    1.30
   2  -3  15    5.50    1.80
  -2  -3 -15    7.50    2.30
  -2  -3 -15    3.70    2.00
   2   3  15    2.60    1.50
  -2   3 -15    2.40    1.80
  -3  -3 -15    0.50    1.60
   3  -3  15   -0.90    1.50
  -3   3 -15    0.10    1.70
   3   3  15   -0.80    1.40
   3  -4 -15   -0.30    1.10
  -3  -4  15   -1.10    1.70
   3   4 -15    1.10    1.40
  -3   4  15   -3.80    1.50
  -2  -4  15   -1.00    1.50
   2  -4 -15    0.40    1.20
   2  -4 -15    0.40    1.20
  -2   4  15    2.20    1.30
   2   4 -15   -1.60    1.10
  -2   4  15   -0.90    1.20
  -1  -4  15   -0.20    1.20
   1  -4 -15    1.40    1.30
  -1  -4  15   -1.20    1.00
   1  -4 -15    0.60    1.30
  -1   4  15   -0.40    1.10
   1   4 -15   -1.30    1.10
   0  -4 -15   16.50    2.40
   0  -4  15   20.40    2.70
   0  -4  15   18.50    2.40
   0  -4 -15   18.30    2.50
   0   4  15   12.10    2.00
   0   4 -15   18.70    2.60
   1  -4  15    0.40    1.10
  -1  -4 -15   -1.20    1.00
   1  -4  15   -1.30    1.00
  -1  -4 -15    0.30    1.60
   1   4  15    1.40    1.30
  -1   4 -15   -1.90    1.00
   2  -4  15   -1.30    1.30
  -2  -4 -15    0.60    1.30
  -2  -4 -15    0.80    1.70
   2   4  15    0.90    1.60
  -2   4 -15    0.80    1.70
   3  -5 -15   -0.10    1.40
  -3  -5  15    0.90    2.00
  -3   5  15    0.90    1.90
   3   5 -15    2.60    1.80
  -2  -5  15   16.00    2.90
   2  -5 -15   15.40    2.60
   2   5 -15   16.40    2.60
  -2   5  15   17.60    2.60
  -1  -5  15   12.60    2.20
  -1  -5  15    8.90    1.80
   1  -5 -15   12.60    2.10
   1  -5 -15    9.60    2.20
  -1   5  15    6.60    1.80
   1   5 -15    7.90    1.90
   0  -5  15    2.50    1.40
   0  -5  15    1.90    1.40
   0  -5 -15    1.80    1.40
   0  -5 -15    4.50    1.70
   0   5  15    3.20    1.40
   0   5 -15    3.40    1.50
   1  -5  15    3.00    1.70
   1  -5  15    2.20    1.50
  -1  -5 -15    2.20    1.80
  -1  -5 -15    1.50    1.30
   1   5  15    1.60    1.30
  -1   5 -15    2.50    1.60
  -2  -5 -15   -1.30    1.70
   2  -5  15    0.10    1.30
   2  -5  15    2.10    1.60
   2   5  15    3.60    1.90
  -2   5 -15    1.60    1.70
   2   5  15    4.40    1.90
   3  -6 -15   -0.50    1.50
  -3  -6  15    2.80    2.30
  -3   6  15    0.80    1.80
  -3   6  15    0.70    1.70
   3   6 -15    1.20    1.50
   2  -6 -15    3.50    1.60
  -2  -6  15    1.90    1.70
   2   6 -15    0.30    1.30
  -2   6  15    3.20    1.70
   1  -6 -15    9.40    2.10
   1  -6 -15    8.60    1.80
  -1  -6  15   13.30    2.50
  -1  -6  15   11.50    2.00
  -1   6  15    4.70    1.70
   1   6 -15   10.20    2.10
   0  -6  15   12.60    2.30
   0  -6  15   16.10    2.70
   0  -6 -15   12.70    2.20
   0  -6 -15   10.80    2.20
   0   6 -15   15.00    2.40
   0   6  15   13.50    2.30
  -1  -6 -15    9.40    2.40
   1  -6  15   14.60    2.60
   1  -6  15   12.50    2.40
  -1  -6 -15   10.20    2.30
  -1   6 -15   11.00    2.30
   1   6  15    7.90    1.90
   2  -6  15   -1.00    1.30
   2  -6  15    1.00    1.40
  -2  -6 -15   -3.80    1.60
   2   6  15    0.20    1.50
  -2   6 -15   -1.40    1.50
   2   6  15   -0.90    1.50
   3  -7 -15   16.30    3.00
  -3  -7  15   24.10    3.70
  -3   7  15   21.50    3.10
   3   7 -15   12.80    2.60
   2  -7 -15    2.20    1.60
  -2  -7  15    0.00    1.70
   2   7 -15    0.00    1.20
  -2   7  15    1.80    1.70
   1  -7 -15    1.00    1.50
  -1  -7  15    1.00    1.60
  -1  -7  15   -1.00    1.10
   1   7 -15   -0.80    1.20
  -1   7  15   -0.30    1.30
   0  -7  15    2.70    1.60
   0  -7  15    2.40    1.60
   0  -7 -15    3.00    1.50
   0  -7 -15   -0.40    1.40
   0   7  15   -0.40    1.00
   0   7 -15   -0.40    1.20
   1  -7  15    2.60    1.60
   1  -7  15   -0.10    1.40
  -1  -7 -15    0.70    1.30
  -1  -7 -15    1.10    1.70
   1   7  15    0.40    1.30
  -1   7 -15   -0.30    1.40
   2  -7  15    5.30    2.00
   2  -7  15    9.30    2.40
  -2  -7 -15    6.80    2.30
  -2   7 -15    5.20    2.40
   2   7  15    9.80    2.40
   2   7  15    2.70    1.60
  -2  -8  15    1.70    1.80
   2  -8 -15    1.90    1.70
  -2   8  15    3.90    2.00
   2   8 -15    3.30    1.80
  -1  -8  15    8.20    2.40
  -1  -8  15    3.50    1.50
   1  -8 -15    6.00    2.00
  -1   8  15    8.10    2.20
   1   8 -15    9.00    2.20
   0  -8 -15   -0.80    1.20
   0  -8  15   -1.40    1.40
   0  -8  15   -0.70    1.40
   0  -8 -15    1.60    1.70
   0   8  15    0.40    1.20
   0   8 -15    1.10    1.50
  -1  -8 -15    0.70    2.00
   1  -8  15    1.20    1.50
  -1  -8 -15    1.20    1.40
   1  -8  15   -0.90    1.50
   1   8  15    2.10    1.50
  -1   8 -15    0.70    1.60
   2  -8  15    0.50    1.70
  -2  -8 -15   -0.10    2.10
   2   8  15    3.50    1.80
   2   8  15    1.80    1.70
  -2   8 -15    3.50    1.80
  -2   8 -15    1.00    1.90
   2  -9 -15    1.70    1.60
  -2  -9  15    1.40    2.10
   2   9 -15    1.00    1.50
  -2   9  15    1.30    1.80
  -1  -9  15    2.10    1.90
   1  -9 -15    1.20    1.70
   1   9 -15   -0.30    1.00
  -1   9  15    0.70    1.50
   1   9 -15    2.80    1.70
   0  -9 -15    1.20    1.50
   0  -9  15   -0.10    1.50
   0  -9 -15    0.70    1.70
   0   9 -15    0.40    1.50
   0   9  15    2.90    1.70
   0   9 -15    1.20    1.20
   1  -9  15   -0.20    1.70
  -1  -9 -15    0.40    1.40
  -1  -9 -15    0.50    1.70
  -1   9 -15    3.30    1.90
  -1   9 -15    3.90    1.50
   1   9  15    1.50    1.60
   1 -10 -15    5.00    2.10
  -1 -10  15    2.20    2.00
   1  10 -15    3.10    1.40
   1  10 -15    6.60    2.10
  -1  10  15    1.60    1.70
   0 -10  15    0.30    1.70
   0 -10 -15   -0.60    1.70
   0  10  15    0.70    1.30
   0  10 -15    2.30    1.40
   0  10 -15    1.60    1.60
  -1 -10 -15    3.50    1.80
   1 -10  15    2.30    1.90
  -1 -10 -15    0.50    2.10
  -1  10 -15    2.60    1.50
  -1  10 -15    2.30    1.80
   1  10  15    2.20    1.80
   0 -11  15   17.20    3.30
   0 -11 -15    8.00    2.70
   0  11  15    5.80    2.10
   0  11 -15    7.90    2.30
   0  11 -15    6.10    1.90
   3   0 -16    0.80    1.50
  -3   0  16   -3.00    1.60
   2   0 -16    4.90    1.80
  -2   0  16    3.20    1.60
  -2   0  16    4.10    1.50
   1   0 -16   22.30    2.70
  -1   0  16   19.70    2.50
  -1   0  16   21.80    2.50
   0   0 -16  253.97    7.30
   0   0  16  261.37    7.20
  -1   0 -16   29.10    3.30
   1   0  16   37.60    3.20
   2   0  16   -0.60    1.30
  -2   0 -16   -1.70    1.30
   3  -1 -16    2.80    1.60
  -3  -1  16   -0.10    1.80
   3  -1 -16    2.90    1.60
   3   1 -16    2.80    1.60
  -3   1  16    2.90    2.10
   2  -1 -16   12.70    2.00
  -2  -1  16   13.40    2.50
  -2  -1  16   15.10    2.10
   2  -1 -16   13.30    2.30
  -2   1  16   18.80    2.40
  -2   1  16   16.10    2.50
   2   1 -16   13.60    2.50
   1  -1 -16    1.20    1.20
  -1  -1  16    2.00    1.30
  -1  -1  16    3.40    1.30
   1   1 -16    2.10    1.40
  -1   1  16    3.10    1.50
   0  -1  16   32.60    3.30
   0  -1 -16   28.30    3.10
   0   1 -16   21.10    2.80
   0   1  16   32.60    3.20
  -1  -1 -16   72.89    4.20
   1  -1  16   69.69    4.00
   1   1  16   80.09    4.20
  -1   1 -16   66.79    4.00
  -2  -1 -16    5.60    1.90
   2  -1  16    9.10    2.20
   2   1  16   10.30    2.30
  -2   1 -16    6.00    2.00
   3  -2 -16    1.60    1.40
  -3  -2  16   -2.50    1.80
  -3   2  16    2.00    2.00
   3   2 -16    0.40    1.40
   2  -2 -16    1.10    1.10
  -2  -2  16    1.80    1.60
  -2  -2  16    1.40    1.10
   2  -2 -16   -0.30    1.20
   2   2 -16    0.00    1.30
  -2   2  16    0.10    1.20
  -2   2  16   -0.60    1.40
   1  -2 -16   11.80    1.90
  -1  -2  16   15.30    2.20
  -1  -2  16   14.80    2.40
   1  -2 -16   11.40    2.10
   1   2 -16   14.90    2.40
  -1   2  16    8.90    1.90
   0  -2 -16   63.69    3.80
   0  -2  16   71.99    3.70
   0  -2  16   78.79    4.00
   0   2 -16   73.59    4.00
   0   2  16   72.39    3.90
  -1  -2 -16   10.80    2.20
   1  -2  16   17.10    2.60
  -1   2 -16   18.30    2.70
   1   2  16   16.00    2.50
   2  -2  16   13.30    2.50
  -2  -2 -16    9.30    2.20
  -2   2 -16   10.30    2.50
   2   2  16   11.40    2.30
  -3  -3  16    1.70    1.90
   3  -3 -16    0.20    1.40
   3   3 -16    1.30    1.60
  -3   3  16    1.60    1.80
  -2  -3  16    3.80    1.90
   2  -3 -16    1.70    1.40
   2  -3 -16    1.90    1.30
  -2   3  16    3.20    1.70
   2   3 -16    3.80    1.70
  -2   3  16    1.80    1.50
  -1  -3  16    0.30    1.20
  -1  -3  16    0.00    1.20
   1  -3 -16    0.90    1.20
   1  -3 -16    0.60    1.10
  -1   3  16   -1.50    1.20
   1   3 -16    1.60    1.40
   0  -3 -16    6.00    1.80
   0  -3  16    4.50    1.80
   0  -3 -16    6.00    1.70
   0  -3  16    4.90    1.60
   0   3 -16    6.00    1.80
   0   3  16    5.50    1.70
  -1  -3 -16    9.70    2.20
  -1  -3 -16    9.10    2.10
   1  -3  16    7.00    1.90
   1   3  16    7.40    1.80
  -1   3 -16    7.80    2.00
  -2  -3 -16    2.50    1.60
   2  -3  16    3.10    1.70
   2   3  16    3.50    1.70
  -2   3 -16    4.60    2.00
   3  -4 -16    1.40    1.50
  -3  -4  16   -0.30    1.80
   3   4 -16    1.20    1.50
  -3   4  16   -3.70    1.60
   2  -4 -16   -0.70    1.10
   2  -4 -16    1.30    1.30
  -2  -4  16    2.00    1.70
   2   4 -16   -0.70    1.10
  -2   4  16    0.00    1.20
   1  -4 -16   24.70    2.90
  -1  -4  16   25.20    3.00
  -1  -4  16   24.40    2.90
   1  -4 -16   28.00    3.00
  -1   4  16   25.70    2.90
   1   4 -16   29.30    3.30
   0  -4 -16   15.40    2.50
   0  -4 -16   19.10    2.70
   0  -4  16   17.80    2.60
   0  -4  16   16.80    2.50
   0   4 -16   10.00    2.20
   0   4  16   14.40    2.50
   1  -4  16    2.30    1.40
   1  -4  16    2.60    1.50
  -1  -4 -16   -0.20    1.10
  -1  -4 -16   -1.30    1.70
  -1   4 -16    0.20    1.30
   1   4  16   -0.10    1.20
   2  -4  16    0.60    1.50
  -2  -4 -16    1.40    1.90
  -2  -4 -16    2.00    1.60
  -2   4 -16    2.80    1.80
   2   4  16    1.70    1.60
   3  -5 -16    1.80    1.60
  -3  -5  16    2.10    2.30
   3   5 -16    0.40    1.60
  -3   5  16    2.80    2.20
  -2  -5  16    3.90    2.10
   2  -5 -16    2.10    1.60
  -2   5  16    2.60    1.70
   2   5 -16   -0.40    1.20
   1  -5 -16    4.50    1.80
  -1  -5  16    6.50    2.00
  -1  -5  16    7.40    1.80
   1  -5 -16    4.30    1.70
   1   5 -16    4.00    1.70
  -1   5  16    4.50    1.70
   0  -5 -16   16.30    2.60
   0  -5 -16   13.20    2.40
   0  -5  16   15.80    2.50
   0  -5  16   16.90    2.60
   0   5  16   16.10    2.50
   0   5 -16   13.60    2.40
   1  -5  16    1.00    1.50
   1  -5  16    2.00    1.50
  -1  -5 -16    2.20    1.90
  -1  -5 -16    0.10    1.20
  -1   5 -16   -0.10    1.40
   1   5  16    2.90    1.40
  -2  -5 -16    0.00    1.40
   2  -5  16   -0.70    1.40
  -2  -5 -16   -1.50    1.70
  -2   5 -16   -0.90    1.60
   2   5  16    1.70    1.60
  -3  -6  16    7.90    2.90
   3  -6 -16    7.70    2.40
  -3   6  16    1.80    1.90
   3   6 -16    3.50    1.80
   2  -6 -16    1.60    1.50
  -2  -6  16    3.80    2.10
  -2   6  16    3.50    1.90
   2   6 -16    5.40    1.90
  -1  -6  16   10.90    2.10
   1  -6 -16    5.20    1.70
   1  -6 -16   11.50    2.40
  -1  -6  16    6.10    2.20
   1   6 -16    6.70    2.10
  -1   6  16    8.10    2.10
   0  -6  16    0.50    1.40
   0  -6 -16    1.10    1.40
   0  -6  16    1.80    1.50
   0  -6 -16    2.30    1.70
   0   6 -16   -0.40    1.30
   0   6  16    0.70    1.20
   1  -6  16    2.70    1.60
  -1  -6 -16    0.50    1.80
  -1  -6 -16    1.10    1.40
   1  -6  16    2.20    1.50
   1   6  16    2.50    1.50
  -1   6 -16    3.90    1.80
  -2  -6 -16   -0.10    1.40
  -2  -6 -16   -0.70    2.00
   2  -6  16    3.50    1.90
   2  -6  16    1.50    1.70
   2   6  16    1.20    1.60
  -2   6 -16    0.40    1.90
  -2  -7  16    1.50    1.90
   2  -7 -16    2.70    1.70
  -2   7  16    2.30    1.90
   2   7 -16    2.30    1.60
   1  -7 -16    1.50    1.50
  -1  -7  16    1.90    1.70
  -1  -7  16    0.40    1.20
   1   7 -16    1.00    1.50
  -1   7  16    0.90    1.50
   0  -7 -16    1.20    1.60
   0  -7  16    1.10    1.50
   0  -7  16   -0.60    1.40
   0  -7 -16   -0.10    1.40
   0   7 -16   -1.70    1.20
   0   7  16    1.80    1.40
  -1  -7 -16    3.90    1.70
   1  -7  16    4.10    1.90
  -1  -7 -16    4.00    2.20
   1  -7  16    5.40    2.00
  -1   7 -16    2.70    1.80
   1   7  16    3.70    1.80
   2  -7  16    0.70    1.60
   2  -7  16    1.20    1.70
   2   7  16    3.40    1.80
  -2  -8  16    0.70    2.00
   2  -8 -16    1.50    1.80
   2   8 -16    2.30    1.70
  -2   8  16   -1.50    1.60
  -1  -8  16    4.20    1.90
   1  -8 -16    0.80    1.50
  -1  -8  16    1.40    1.50
  -1   8  16    0.80    1.60
   1   8 -16   -1.50    1.20
   0  -8  16    1.20    1.60
   0  -8 -16    0.40    1.60
   0  -8 -16   -0.90    1.40
   0  -8  16   -0.10    1.50
   0   8 -16    1.30    1.50
   0   8  16   -1.90    1.10
  -1  -8 -16    2.90    1.90
   1  -8  16    1.50    1.70
   1  -8  16    3.90    2.10
  -1  -8 -16   -0.40    1.80
   1   8  16    2.40    1.70
  -1   8 -16    6.20    2.10
  -1  -9  16    6.40    2.40
   1  -9 -16    0.20    1.60
  -1   9  16   -0.40    1.60
   1   9 -16    3.00    1.80
   1   9 -16    3.40    1.40
   0  -9  16    3.30    2.00
   0  -9  16   -2.10    1.40
   0  -9 -16   -0.50    1.60
   0  -9 -16    1.90    1.80
   0   9 -16    0.40    1.60
   0   9 -16    1.60    1.40
   0   9  16   -0.90    1.20
   1  -9  16    1.90    2.00
  -1  -9 -16   -3.10    1.30
  -1  -9 -16    1.90    2.10
  -1   9 -16    1.20    1.40
   1   9  16    2.40    1.80
  -1   9 -16   -0.60    1.70
  -1 -10  16    0.80    2.10
   1 -10 -16    1.70    2.00
   1  10 -16    2.40    1.80
   1  10 -16    0.70    1.20
  -1  10  16    2.10    2.10
   0 -10 -16   -0.80    1.80
   0 -10  16    3.60    2.00
   0  10 -16    1.20    1.40
   0  10  16    2.30    1.80
   0  10 -16   -0.10    1.50
  -3   0  17    1.00    2.00
   3   0 -17    0.30    1.50
   2   0 -17    0.40    1.40
  -2   0  17   -0.90    1.10
  -2   0  17   -1.30    1.30
   1   0 -17    0.10    1.30
  -1   0  17    0.40    1.30
   0   0  17    0.30    1.40
   0   0 -17    2.80    1.70
  -1   0 -17    2.00    1.60
   1   0  17    1.20    1.30
  -2   0 -17    0.20    1.70
   2   0  17   -0.50    1.50
  -3  -1  17    3.10    2.40
   3  -1 -17    4.90    1.90
   3   1 -17    2.40    1.80
  -3   1  17    3.90    2.30
   2  -1 -17    0.10    1.40
  -2  -1  17    1.00    1.30
  -2  -1  17    1.90    1.60
   2   1 -17   -0.60    1.40
  -2   1  17    2.90    1.60
  -2   1  17   -0.10    1.40
  -1  -1  17   -0.60    1.10
   1  -1 -17    1.00    1.40
  -1  -1  17    0.40    1.20
   1   1 -17   -0.90    1.10
  -1   1  17   -0.20    1.20
   0  -1  17   15.30    2.60
   0  -1 -17   16.90    2.60
   0   1  17   15.40    2.40
   0   1 -17   16.40    2.60
  -1  -1 -17    3.30    1.70
   1  -1  17    4.30    1.90
  -1   1 -17    3.20    1.90
   1   1  17    1.70    1.40
  -2  -1 -17   14.50    2.80
   2  -1  17    7.00    2.30
  -2   1 -17   12.00    2.70
   2   1  17   12.80    2.60
   3  -2 -17    3.50    1.70
  -3  -2  17    1.70    2.20
   3   2 -17    7.40    2.20
  -3   2  17    2.80    2.10
  -2  -2  17   -0.80    1.10
   2  -2 -17   -0.10    1.30
  -2  -2  17    0.70    1.50
  -2   2  17   -1.90    1.10
   2   2 -17    2.30    1.50
  -2   2  17   -1.10    1.30
  -1  -2  17   -0.50    1.20
  -1  -2  17    1.80    1.40
   1  -2 -17   -0.70    1.30
  -1   2  17    2.00    1.30
   1   2 -17   -0.70    1.10
   0  -2  17    1.80    1.50
   0  -2 -17    0.60    1.40
   0   2  17    3.40    1.70
   0   2 -17    3.60    1.60
   1  -2  17    8.80    2.20
  -1  -2 -17    6.40    1.90
   1   2  17    7.70    2.00
  -1   2 -17    4.70    1.80
   2  -2  17    1.70    1.60
  -2  -2 -17    0.40    1.60
  -2   2 -17    0.60    1.70
   2   2  17    0.30    1.40
   3  -3 -17    0.70    1.50
  -3  -3  17   -0.50    2.00
   3   3 -17   -0.10    1.50
  -3   3  17   -0.90    1.90
   2  -3 -17    2.00    1.30
  -2  -3  17    0.50    1.60
   2  -3 -17   -0.80    1.30
  -2   3  17    2.00    1.50
   2   3 -17    1.50    1.40
   1  -3 -17    5.40    1.70
  -1  -3  17    6.30    1.70
  -1  -3  17    3.60    1.50
   1  -3 -17    7.00    1.70
   1   3 -17    2.40    1.60
  -1   3  17    8.00    2.10
   0  -3 -17    3.70    1.50
   0  -3  17    1.40    1.20
   0  -3  17    2.40    1.50
   0   3  17   -0.70    1.40
   0   3 -17   -0.80    1.20
   1  -3  17    0.20    1.40
  -1  -3 -17    3.30    1.60
   1   3  17    2.30    1.50
  -1   3 -17   -1.70    1.20
   2  -3  17   -0.50    1.50
  -2  -3 -17    2.30    1.50
  -2   3 -17   -0.20    1.80
   2   3  17    0.80    1.60
  -3  -4  17   29.20    4.20
   3  -4 -17   16.60    2.60
   3   4 -17   20.50    3.20
  -2  -4  17    1.60    1.90
   2  -4 -17   -0.20    1.40
   2  -4 -17    1.00    1.20
   2   4 -17    0.70    1.30
  -2   4  17    3.80    1.80
  -1  -4  17    6.90    2.00
   1  -4 -17    5.80    1.80
   1  -4 -17    7.30    1.90
  -1  -4  17    7.10    1.90
  -1   4  17    6.10    2.00
   1   4 -17    5.30    1.90
   0  -4  17    1.60    1.40
   0  -4  17    1.20    1.40
   0  -4 -17   -0.30    1.40
   0  -4 -17   -0.80    1.20
   0   4 -17    0.40    1.20
   0   4  17    0.80    1.30
  -1  -4 -17    8.00    2.20
  -1  -4 -17    5.80    2.10
   1  -4  17    5.40    2.00
  -1   4 -17    5.80    2.00
   1   4  17    7.40    2.00
   2  -4  17    0.40    1.50
  -2  -4 -17    2.40    1.60
   2   4  17    0.40    1.60
  -2   4 -17    0.80    1.70
   2  -5 -17    0.30    1.50
  -2  -5  17    6.10    2.40
   2   5 -17    2.40    1.70
  -2   5  17    6.20    2.10
  -1  -5  17    3.40    1.60
  -1  -5  17    4.50    1.80
   1  -5 -17    7.70    2.00
   1  -5 -17    4.70    1.80
   1   5 -17    4.60    1.80
  -1   5  17    3.80    1.70
   0  -5 -17   -1.70    1.40
   0  -5  17    3.00    1.60
   0  -5  17    1.30    1.50
   0  -5 -17    0.70    1.30
   0   5 -17    0.90    1.40
   0   5  17   -0.60    1.20
   1  -5  17   10.30    2.20
  -1  -5 -17   12.00    2.50
   1  -5  17    9.70    2.50
  -1  -5 -17    8.50    2.20
  -1   5 -17    8.10    2.30
   1   5  17   12.70    2.50
   2  -5  17   -0.10    1.40
  -2  -5 -17   -2.20    1.80
  -2  -5 -17    0.20    1.50
   2   5  17   -1.20    1.40
  -2   5 -17    1.90    1.90
   2  -6 -17   14.60    2.70
  -2  -6  17   21.00    3.60
  -2   6  17   20.40    3.10
   2   6 -17   12.70    2.60
   1  -6 -17    4.30    1.90
   1  -6 -17    2.90    1.60
  -1  -6  17    6.40    1.80
  -1  -6  17    5.40    2.00
   1   6 -17    4.30    1.70
  -1   6  17    3.80    2.00
   0  -6  17    4.00    1.80
   0  -6 -17    2.00    1.50
   0  -6  17    2.60    1.60
   0  -6 -17    3.00    1.80
   0   6 -17    3.70    2.00
   0   6  17    4.80    1.80
   1  -6  17   -0.80    1.30
   1  -6  17    2.20    1.50
  -1  -6 -17   -2.60    1.60
  -1  -6 -17   -0.40    1.30
  -1   6 -17   -3.40    1.20
   1   6  17    3.30    1.70
   2  -7 -17   17.70    3.00
  -2  -7  17   28.70    4.20
  -2   7  17   18.00    3.20
   2   7 -17   14.50    2.90
   1  -7 -17    2.60    1.80
  -1  -7  17    2.20    1.60
  -1  -7  17    0.20    1.60
  -1   7  17    1.80    1.90
   1   7 -17    1.60    1.50
   0  -7  17    0.70    1.50
   0  -7 -17    0.60    1.70
   0  -7 -17    1.30    1.50
   0  -7  17   -0.80    1.40
   0   7 -17    1.40    1.60
   0   7  17    0.20    1.30
  -1  -7 -17    3.70    1.60
   1  -7  17    2.40    2.00
  -1  -7 -17    4.50    2.20
   1  -7  17    2.00    1.70
   1   7  17    1.80    1.70
  -1   7 -17    0.00    1.80
  -1  -8  17    8.90    2.30
  -1  -8  17   10.50    2.90
   1  -8 -17   11.20    2.50
  -1   8  17    7.50    2.60
   1   8 -17    6.50    2.20
   0  -8  17    3.80    1.90
   0  -8  17    0.60    1.80
   0  -8 -17   -1.10    1.40
   0  -8 -17    0.60    1.80
   0   8 -17    2.20    1.80
   0   8  17    4.10    1.70
  -1  -8 -17    2.10    2.20
   1  -8  17    1.60    1.70
   1  -8  17   -1.60    1.60
  -1  -8 -17    0.50    1.70
  -1   8 -17    0.80    1.80
   1   8  17   -0.30    1.50
   1  -9 -17    4.10    2.00
  -1  -9  17    9.40    2.70
   1   9 -17   -0.20    1.00
  -1   9  17    0.30    1.80
   1   9 -17    0.90    1.60
   0  -9  17   -0.20    1.50
   0  -9 -17    2.40    2.00
   0  -9 -17    2.50    1.90
   0  -9  17   -1.60    1.90
   0   9  17    2.70    1.70
   0   9 -17   -2.60    1.40
   3   0 -18   -0.70    1.60
  -3   0  18    1.70    2.10
  -2   0  18   12.60    2.30
  -2   0  18   13.60    2.50
   2   0 -18   10.50    2.50
  -1   0  18    5.60    1.80
   1   0 -18    0.10    1.30
   0   0 -18    2.90    1.50
   0   0  18    1.90    1.60
   1   0  18    5.50    1.90
  -1   0 -18    7.40    2.10
   2   0  18   31.70    3.90
  -2   0 -18   21.40    3.20
   3  -1 -18    7.90    2.30
  -3  -1  18    8.50    3.00
   3   1 -18    7.20    2.20
  -3   1  18   13.50    3.00
  -2  -1  18   -1.40    1.30
  -2  -1  18   -0.40    1.40
   2  -1 -18    0.60    1.50
   2   1 -18   -0.50    1.40
  -2   1  18   -0.90    1.30
   1  -1 -18   18.20    2.70
  -1  -1  18   25.40    3.20
  -1   1  18   18.80    2.90
   1   1 -18   16.40    2.70
   0  -1  18    2.80    1.60
   0  -1 -18    3.50    1.70
   0   1 -18   -0.20    1.20
   0   1  18    2.30    1.60
  -1  -1 -18   42.60    3.60
   1  -1  18   44.30    3.70
   1   1  18   44.30    3.70
  -1   1 -18   35.40    3.90
   2  -1  18    4.10    2.10
  -2  -1 -18    4.60    1.80
  -2   1 -18    3.30    2.00
   2   1  18    5.10    2.10
   2  -2 -18   -0.80    1.30
  -2  -2  18    4.50    1.90
   2   2 -18   -0.30    1.30
  -2   2  18    0.20    1.30
  -1  -2  18   10.10    2.00
   1  -2 -18    7.30    2.00
  -1  -2  18    9.10    2.20
   1   2 -18    8.30    2.10
  -1   2  18   13.90    2.50
   0  -2  18   -0.70    1.50
   0  -2 -18   -1.40    1.10
   0   2  18    0.80    1.40
   0   2 -18   -0.30    1.30
   1  -2  18    2.20    1.70
  -1  -2 -18   -0.50    1.20
  -1   2 -18    2.70    1.60
   1   2  18    2.00    1.70
  -2  -2 -18    2.10    1.80
   2  -2  18    1.30    1.70
  -2   2 -18    1.00    1.80
   2   2  18    2.20    1.70
   2  -3 -18    1.00    1.60
  -2  -3  18    1.20    1.90
   2   3 -18    0.70    1.50
  -2   3  18    0.80    1.60
  -1  -3  18    2.80    1.60
   1  -3 -18   -1.20    1.30
  -1  -3  18    2.40    1.60
  -1   3  18   -1.20    1.20
   1   3 -18    1.10    1.40
   0  -3 -18    0.80    1.60
   0  -3  18    5.50    1.80
   0   3 -18    2.00    1.60
   0   3  18    2.10    1.70
  -1  -3 -18   10.00    2.30
   1  -3  18   15.40    2.90
  -1   3 -18    7.80    2.10
   1   3  18   16.60    2.70
   2  -4 -18    2.20    1.40
  -2  -4  18    5.10    2.20
   2   4 -18    2.00    1.60
  -2   4  18    2.40    1.70
  -1  -4  18    0.00    1.40
   1  -4 -18    0.30    1.40
   1  -4 -18    0.30    1.30
  -1  -4  18   -1.20    1.30
  -1   4  18   -1.50    1.30
   1   4 -18   -0.80    1.30
   0  -4  18    2.20    1.60
   0  -4 -18    1.50    1.60
   0  -4  18    3.70    1.60
   0   4 -18    2.80    1.60
   0   4  18    3.40    1.70
  -1  -4 -18   -0.80    1.40
   1  -4  18    0.10    1.60
  -1   4 -18   -0.50    1.50
   1   4  18    3.60    1.90
  -2  -5  18    6.50    2.40
   2  -5 -18    4.60    1.80
  -2   5  18   11.30    2.60
   2   5 -18    3.80    1.90
   1  -5 -18   -0.90    1.30
  -1  -5  18   -0.60    1.40
   1  -5 -18    2.90    1.60
  -1  -5  18    2.40    1.80
   1   5 -18   -0.30    1.30
  -1   5  18   -0.10    1.60
   0  -5 -18    8.80    2.20
   0  -5 -18   12.70    2.40
   0  -5  18   12.60    2.70
   0  -5  18   11.70    2.40
   0   5  18   11.50    2.60
   0   5 -18   13.20    2.50
  -1  -5 -18    5.20    2.10
   1  -5  18    4.70    2.10
   1   5  18    5.20    1.90
  -1   5 -18    2.90    1.90
   2  -6 -18    1.90    1.60
  -2  -6  18    2.90    2.30
  -2   6  18    0.80    1.80
   2   6 -18    3.30    1.80
  -1  -6  18    3.40    2.00
  -1  -6  18   -0.60    1.40
   1  -6 -18    2.00    1.60
   1  -6 -18    0.20    1.50
  -1   6  18   -1.30    1.40
   1   6 -18    0.70    1.40
   0  -6 -18    1.00    1.60
   0  -6  18    1.90    1.60
   0  -6 -18    1.80    1.70
   0  -6  18   -2.50    1.30
   0   6 -18    0.80    1.60
   0   6  18   -0.70    1.40
  -1  -6 -18    0.80    1.90
  -1  -6 -18    1.50    1.70
   1  -6  18   -1.00    1.40
   1  -6  18    1.20    1.90
   1   6  18    2.80    1.60
  -1   6 -18   -0.20    1.60
   1  -7 -18    7.20    2.30
  -1  -7  18    8.30    2.20
  -1  -7  18    9.60    2.70
   1   7 -18    7.00    2.10
  -1   7  18    9.00    2.40
   0  -7  18    2.60    2.00
   0  -7 -18    3.70    1.90
   0  -7 -18    0.00    1.60
   0  -7  18    0.30    1.50
   0   7 -18   -0.90    1.60
   0   7  18    0.20    1.50
  -1  -8  18    0.10    1.90
  -1  -8  18   -1.00    1.50
   1  -8 -18   -0.60    1.60
  -1   8  18   -1.10    1.70
   1   8 -18   -1.00    1.40
   0  -8 -18   -0.60    1.50
   0  -8  18   -1.30    1.60
   0  -8 -18   -0.30    1.70
   0  -8  18   -2.20    1.70
   0   8 -18   -0.40    1.50
   0   8  18   -0.10    1.50
   2   0 -19    0.50    1.60
  -2   0  19    0.20    1.60
  -1   0  19   -0.60    1.40
   1   0 -19    2.00    1.60
   0   0 -19    1.10    1.40
   0   0  19   -0.60    1.30
  -1   0 -19    1.30    1.70
   1   0  19   -1.10    1.30
  -2  -1  19   15.30    2.60
  -2  -1  19   10.40    2.50
   2  -1 -19   11.90    2.40
   2   1 -19    9.60    2.40
  -2   1  19   13.00    2.60
   1  -1 -19    2.80    1.60
  -1  -1  19    1.10    1.50
   1   1 -19   -0.70    1.30
  -1   1  19    0.70    1.60
   0  -1 -19    2.70    1.70
   0  -1  19   -0.40    1.40
   0   1 -19   -0.70    1.30
   0   1  19    2.90    1.70
   1  -1  19    4.40    2.00
  -1  -1 -19    1.80    1.60
   1   1  19    2.50    1.50
  -1   1 -19    3.40    1.80
   2  -2 -19    1.30    1.60
  -2  -2  19    0.90    1.80
   2   2 -19   -0.40    1.50
  -2   2  19    0.30    1.50
   1  -2 -19   -0.80    1.40
  -1  -2  19   -1.40    1.30
  -1   2  19    1.70    1.50
   1   2 -19    0.80    1.40
   0  -2 -19    3.30    1.80
   0  -2  19   -1.00    1.40
   0   2  19    0.00    1.40
   0   2 -19   -1.50    1.10
  -1  -2 -19    0.70    1.30
   1  -2  19    0.10    1.50
   1   2  19    1.70    1.60
  -1   2 -19    1.90    1.80
  -2  -3  19   16.90    3.10
   2  -3 -19   11.90    2.50
  -2   3  19   11.90    2.50
   2   3 -19   12.30    2.70
  -1  -3  19    3.20    1.80
  -1  -3  19    4.00    1.60
   1  -3 -19    3.50    1.80
   1   3 -19    1.50    1.60
  -1   3  19    3.00    1.80
   0  -3  19   -1.60    1.20
   0  -3 -19   -0.40    1.30
   0   3 -19   -1.40    1.20
   0   3  19    0.60    1.50
  -1  -3 -19   -0.80    1.40
   1  -3  19    1.70    1.90
   1   3  19    0.10    1.40
  -1   3 -19   -1.30    1.20
  -2  -4  19   32.00    4.10
   2   4 -19   27.00    3.60
  -2   4  19   22.50    3.20
  -1  -4  19    3.00    1.70
   1  -4 -19   -0.40    1.40
  -1  -4  19    1.20    1.60
  -1   4  19    4.30    1.90
   1   4 -19    0.20    1.40
   0  -4 -19    3.20    1.70
   0  -4  19    3.10    1.70
   0   4  19    1.60    1.70
   0   4 -19    1.40    1.70
   1  -4  19    0.80    1.70
  -1  -4 -19    1.30    1.70
   1   4  19    2.80    1.70
  -1   4 -19   -0.30    1.60
   1  -5 -19   18.30    2.90
  -1  -5  19   18.10    2.80
  -1  -5  19   30.30    4.00
  -1   5  19   17.40    3.00
   1   5 -19   18.50    3.00
   0  -5  19    2.30    1.90
   0  -5  19    0.40    1.50
   0  -5 -19   -1.60    1.40
   0   5  19   -0.60    1.50
   0   5 -19    0.00    1.40
  -1  -5 -19    1.30    1.60
   1  -5  19   -0.90    1.60
  -1   5 -19    1.60    1.80
   1   5  19    2.50    1.90
   1  -6 -19    7.90    2.30
   1  -6 -19    5.60    2.00
  -1  -6  19    9.90    2.70
  -1  -6  19   12.50    2.60
   1   6 -19    4.30    2.00
  -1   6  19    5.50    2.20
   0  -6  19   -0.70    1.50
   0  -6  19    1.10    1.70
   0  -6 -19   -2.40    1.40
   0  -6 -19    0.00    1.70
   0   6 -19   -1.80    1.50
   0   6  19    0.20    1.60
   2   0 -20    0.30    1.70
  -2   0  20   -2.60    1.40
  -1   0  20   10.80    2.40
   1   0 -20    9.10    2.30
   0   0 -20   13.20    2.60
   0   0  20   11.80    2.50
   1   0  20    0.70    1.60
  -1   0 -20    1.70    1.50
   2  -1 -20    1.90    1.80
   2   1 -20    2.80    2.00
  -2   1  20    6.60    2.30
  -1  -1  20    2.10    1.70
   1  -1 -20    1.40    1.60
  -1   1  20    2.90    1.90
   1   1 -20    1.20    1.50
   0  -1  20    0.20    1.60
   0  -1 -20    0.20    1.40
   0   1 -20    0.10    1.50
   0   1  20    0.80    1.70
   1  -1  20    0.30    1.80
  -1  -1 -20    1.40    1.50
   1   1  20    1.90    1.70
  -1   1 -20    1.50    1.80
  -1  -2  20   -0.20    1.70
   1  -2 -20   -0.20    1.50
   1   2 -20    0.20    1.40
  -1   2  20    0.60    1.70
   0  -2  20    6.50    2.20
   0  -2 -20    7.40    2.20
   0   2 -20    2.40    1.60
   0   2  20    5.10    2.10
  -1  -3  20   -0.10    1.70
   1  -3 -20    3.00    1.80
   1   3 -20    1.40    1.70
  -1   3  20    0.50    1.80
   0  -3  20   -0.20    1.60
   0  -3 -20    1.20    1.70
   0   3 -20    1.30    1.70
   0   3  20    1.00    1.80
   1  -4 -20   -1.80    1.50
  -1  -4  20    4.60    2.10
  -1  -4  20    2.30    1.90
  -1   4  20    6.20    2.40
   1   4 -20    0.80    1.80
   0  -4 -20    0.20    1.50
   0  -4  20    3.90    2.10
   0   4  20    0.40    1.70
   0   4 -20    1.00    1.60
;
_shelx_hkl_checksum              2967
#END Tags that were not found in dictionaries
loop_
_space_group_symop_operation_xyz
'x, y, z'
'-x, y+1/2, -z+1/2'
'-x, -y, -z'
'x, -y-1/2, z-1/2'
loop_
_atom_site_type_symbol
_atom_site_label
_atom_site_fract_x
_atom_site_fract_y
_atom_site_fract_z
_atom_site_U_iso_or_equiv
_atom_site_adp_type
_atom_site_calc_flag
_atom_site_refinement_flags_adp
_atom_site_refinement_flags_posn
_atom_site_occupancy
C C1 0.3802(5) 0.06420(16) 0.10253(12) 0.0478(5) Uani d . . 1
C C2 0.2853(6) 0.02136(19) 0.17556(13) 0.0567(6) Uani d . . 1
C C3 0.1922(6) 0.08820(17) 0.23795(13) 0.0527(5) Uani d . . 1
C C4 0.2018(5) 0.19856(16) 0.22710(11) 0.0449(5) Uani d . . 1
C C5 0.3013(5) 0.24646(15) 0.15582(11) 0.0445(5) Uani d . . 1
C C6 0.3898(5) 0.17735(18) 0.09349(12) 0.0478(5) Uani d . . 1
C C7 0.4636(6) -0.01230(19) 0.03708(13) 0.0569(6) Uani d . . 1
C C8 -0.0238(6) 0.23365(17) 0.35157(13) 0.0542(5) Uani d . . 1
C C9 0.4106(6) 0.40944(19) 0.08251(13) 0.0659(7) Uani d . . 1
H H5 0.6471 0.3897 0.0773 0.099 Uiso calc U R 1
H H7 0.3935 0.4873 0.0881 0.099 Uiso calc U R 1
H H6 0.2665 0.386 0.034 0.099 Uiso calc U R 1
H H1 0.285(6) -0.0591(19) 0.1834(14) 0.077(7) Uiso d . . 1
H H2 0.122(5) 0.0591(17) 0.2891(13) 0.070(7) Uiso d . . 1
H H3 0.459(5) 0.2103(15) 0.0465(12) 0.050(6) Uiso d . . 1
H H4 0.455(7) -0.093(2) 0.0463(16) 0.107(10) Uiso d . . 1
N N1 -0.1480(6) 0.20491(17) 0.40812(11) 0.0749(6) Uani d . . 1
O O1 0.1099(4) 0.27379(11) 0.28868(8) 0.0601(4) Uani d . . 1
O O2 0.2985(4) 0.35773(11) 0.15413(8) 0.0614(4) Uani d . . 1
loop_
_atom_site_aniso_label
_atom_site_aniso_U_11
_atom_site_aniso_U_22
_atom_site_aniso_U_33
_atom_site_aniso_U_12
_atom_site_aniso_U_13
_atom_site_aniso_U_23
C1 0.0497(12) 0.0465(12) 0.0474(12) 0.0031(9) 0.0057(9) -0.0102(9)
C2 0.0698(15) 0.0480(13) 0.0537(13) 0.0006(11) 0.0137(11) -0.0050(11)
C3 0.0640(14) 0.0510(13) 0.0448(12) 0.0014(11) 0.0142(10) -0.0005(10)
C4 0.0493(12) 0.0503(12) 0.0363(10) 0.0051(10) 0.0092(9) -0.0075(9)
C5 0.0490(12) 0.0439(11) 0.0409(11) 0.0036(9) 0.0056(9) -0.0014(9)
C6 0.0493(12) 0.0604(13) 0.0348(11) 0.0003(10) 0.0098(9) -0.0007(9)
C7 0.0664(14) 0.0541(14) 0.0517(12) 0.0029(11) 0.0131(11) -0.0060(11)
C8 0.0652(14) 0.0559(13) 0.0426(12) 0.0079(11) 0.0111(11) -0.0073(10)
C9 0.0825(17) 0.0592(14) 0.0586(14) -0.0040(13) 0.0197(12) 0.0095(11)
N1 0.0958(16) 0.0821(15) 0.0509(11) 0.0034(12) 0.0277(11) -0.0019(11)
O1 0.0870(11) 0.0529(9) 0.0445(8) 0.0071(8) 0.0265(7) -0.0055(7)
O2 0.0900(12) 0.0485(8) 0.0488(9) 0.0014(8) 0.0229(8) 0.0011(7)
loop_
_atom_type_symbol
_atom_type_description
_atom_type_scat_dispersion_real
_atom_type_scat_dispersion_imag
_atom_type_scat_source
C C 0.0033 0.0016 'International Tables Vol C Tables 4.2.6.8 and 6.1.1.4'
H H 0.0000 0.0000 'International Tables Vol C Tables 4.2.6.8 and 6.1.1.4'
N N 0.0061 0.0033 'International Tables Vol C Tables 4.2.6.8 and 6.1.1.4'
O O 0.0106 0.0060 'International Tables Vol C Tables 4.2.6.8 and 6.1.1.4'
loop_
_geom_angle_atom_site_label_1
_geom_angle_atom_site_label_2
_geom_angle_atom_site_label_3
_geom_angle_site_symmetry_1
_geom_angle
C2 C1 C6 . 118.72(18)
C2 C1 C7 . 118.27(19)
C6 C1 C7 . 123.00(19)
C1 C2 C3 . 121.2(2)
C1 C2 H1 . 119.4(13)
C3 C2 H1 . 119.4(13)
C4 C3 C2 . 118.8(2)
C4 C3 H2 . 119.3(13)
C2 C3 H2 . 122.0(13)
C3 C4 C5 . 122.71(18)
C3 C4 O1 . 122.41(17)
C5 C4 O1 . 114.88(17)
O2 C5 C4 . 115.94(17)
O2 C5 C6 . 126.63(18)
C4 C5 C6 . 117.42(18)
C5 C6 C1 . 121.19(19)
C5 C6 H3 . 116.6(12)
C1 C6 H3 . 122.2(12)
C7 C7 C1 3_655 127.1(3)
C7 C7 H4 3_655 112.4(15)
C1 C7 H4 . 120.4(15)
N1 C8 O1 . 175.6(2)
O2 C9 H5 . 109.5
O2 C9 H7 . 109.5
H5 C9 H7 . 109.5
O2 C9 H6 . 109.5
H5 C9 H6 . 109.5
H7 C9 H6 . 109.5
C8 O1 C4 . 117.17(16)
C5 O2 C9 . 117.18(16)
loop_
_geom_bond_atom_site_label_1
_geom_bond_atom_site_label_2
_geom_bond_site_symmetry_2
_geom_bond_distance
C1 C2 . 1.378(3)
C1 C6 . 1.393(3)
C1 C7 . 1.475(3)
C2 C3 . 1.377(3)
C2 H1 . 0.99(2)
C3 C4 . 1.362(3)
C3 H2 . 0.97(2)
C4 C5 . 1.385(2)
C4 O1 . 1.429(2)
C5 O2 . 1.361(2)
C5 C6 . 1.387(3)
C6 H3 . 0.924(19)
C7 C7 3_655 1.297(4)
C7 H4 . 1.00(3)
C8 N1 . 1.134(2)
C8 O1 . 1.287(2)
C9 O2 . 1.428(2)
C9 H5 . 0.96
C9 H7 . 0.96
C9 H6 . 0.96
