#------------------------------------------------------------------------------
#$Date: 2016-03-26 22:36:24 +0200 (Sat, 26 Mar 2016) $
#$Revision: 180512 $
#$URL: svn://www.crystallography.net/cod/cif/7/21/81/7218141.cif $
#------------------------------------------------------------------------------
#
# This file is available in the Crystallography Open Database (COD),
# http://www.crystallography.net/
#
# All data on this site have been placed in the public domain by the
# contributors.
#
data_7218141
loop_
_publ_author_name
'Wang, Lei'
'Hu, Yanjing'
'Xu, Wenyan'
'pang, Yanyan'
'Liu, Faqian'
'Yang, Yu'
_publ_section_title
;
 Investigation of Hydrogen Bonding Patterns in A Series of Multi-component
 Molecular Solids Formed by Tetrabromoterephthalic Acid with Selected
 N-heterocycles
;
_journal_name_full               'RSC Adv.'
_journal_paper_doi               10.1039/C4RA08452G
_journal_year                    2014
_chemical_formula_moiety         'Br2 C4 O2, C4 H Br2 O2, H2 O, C7 H7 N2'
_chemical_formula_sum            'C15 H10 Br4 N2 O5'
_chemical_formula_weight         617.89
_chemical_name_systematic
;
 ?
;
_space_group_crystal_system      triclinic
_space_group_IT_number           2
_space_group_name_Hall           '-P 1'
_space_group_name_H-M_alt        'P -1'
_symmetry_space_group_name_Hall  '-P 1'
_symmetry_space_group_name_H-M   'P -1'
_atom_sites_solution_hydrogens   mixed
_audit_creation_date             2014-09-04
_audit_creation_method
;
Olex2 1.2
(compiled 2014.07.22 svn.r2960 for OlexSys, GUI svn.r4862)
;
_cell_angle_alpha                72.408(9)
_cell_angle_beta                 87.358(9)
_cell_angle_gamma                73.572(10)
_cell_formula_units_Z            2
_cell_length_a                   8.9459(10)
_cell_length_b                   9.0271(9)
_cell_length_c                   12.5435(11)
_cell_measurement_reflns_used    2474
_cell_measurement_temperature    293(2)
_cell_measurement_theta_max      28.4790
_cell_measurement_theta_min      2.8720
_cell_volume                     925.31(18)
_computing_cell_refinement
;
CrysAlisPro, Agilent Technologies,
Version 1.171.36.28 (release 01-02-2013 CrysAlis171 .NET)
(compiled Feb  1 2013,16:14:44)
;
_computing_data_collection
;
CrysAlisPro, Agilent Technologies,
Version 1.171.36.28 (release 01-02-2013 CrysAlis171 .NET)
(compiled Feb  1 2013,16:14:44)
;
_computing_data_reduction
;
CrysAlisPro, Agilent Technologies,
Version 1.171.36.28 (release 01-02-2013 CrysAlis171 .NET)
(compiled Feb  1 2013,16:14:44)
;
_computing_molecular_graphics    'Olex2 (Dolomanov et al., 2009)'
_computing_publication_material  'Olex2 (Dolomanov et al., 2009)'
_computing_structure_refinement  'ShelXL (Sheldrick, 2008)'
_diffrn_ambient_temperature      293(2)
_diffrn_measured_fraction_theta_full 0.999
_diffrn_measured_fraction_theta_max 1.000
_diffrn_measurement_device_type  'multiwire proportional'
_diffrn_measurement_method       'phi and omega scans'
_diffrn_radiation_monochromator  graphite
_diffrn_radiation_type           MoK\a
_diffrn_radiation_wavelength     0.71073
_diffrn_reflns_av_R_equivalents  0.0263
_diffrn_reflns_av_unetI/netI     0.0505
_diffrn_reflns_Laue_measured_fraction_full 0.999
_diffrn_reflns_Laue_measured_fraction_max 1.000
_diffrn_reflns_limit_h_max       8
_diffrn_reflns_limit_h_min       -11
_diffrn_reflns_limit_k_max       11
_diffrn_reflns_limit_k_min       -9
_diffrn_reflns_limit_l_max       15
_diffrn_reflns_limit_l_min       -15
_diffrn_reflns_number            6459
_diffrn_reflns_point_group_measured_fraction_full 0.999
_diffrn_reflns_point_group_measured_fraction_max 1.000
_diffrn_reflns_theta_full        25.242
_diffrn_reflns_theta_max         26.498
_diffrn_reflns_theta_min         2.376
_exptl_absorpt_coefficient_mu    8.728
_exptl_absorpt_correction_T_max  0.8611
_exptl_absorpt_correction_T_min  0.6359
_exptl_absorpt_correction_type   multi-scan
_exptl_absorpt_process_details   SADABS
_exptl_crystal_colour            colourless
_exptl_crystal_density_diffrn    2.218
_exptl_crystal_density_method    'not measured'
_exptl_crystal_description       block
_exptl_crystal_F_000             588
_exptl_crystal_size_max          0.22
_exptl_crystal_size_mid          0.16
_exptl_crystal_size_min          0.11
_refine_diff_density_max         0.726
_refine_diff_density_min         -0.851
_refine_diff_density_rms         0.121
_refine_ls_extinction_method     none
_refine_ls_goodness_of_fit_ref   1.041
_refine_ls_hydrogen_treatment    constr
_refine_ls_matrix_type           full
_refine_ls_number_parameters     239
_refine_ls_number_reflns         3834
_refine_ls_number_restraints     0
_refine_ls_restrained_S_all      1.041
_refine_ls_R_factor_all          0.0602
_refine_ls_R_factor_gt           0.0403
_refine_ls_shift/su_max          0.000
_refine_ls_shift/su_mean         0.000
_refine_ls_structure_factor_coef Fsqd
_refine_ls_weighting_details
;
 w=1/[\s^2^(Fo^2^)+(0.0362P)^2^+0.4815P]
 where P=(Fo^2^+2Fc^2^)/3
;
_refine_ls_weighting_scheme      calc
_refine_ls_wR_factor_gt          0.0803
_refine_ls_wR_factor_ref         0.0883
_reflns_Friedel_coverage         0.000
_reflns_number_gt                2976
_reflns_number_total             3834
_reflns_threshold_expression     'I > 2\s(I)'
_cod_data_source_file            c4ra08452g2.cif
_cod_data_source_block           w1
_cod_original_cell_volume        925.31(17)
_cod_database_code               7218141
#BEGIN Tags that were not found in dictionaries:
_shelxl_version_number           2013-2
_shelx_space_group_comment
;
The symmetry employed for this shelxl refinement is uniquely defined
by the following loop, which should always be used as a source of
symmetry information in preference to the above space-group names.
They are only intended as comments.
;
_olex2_refinement_description
;
1. Fixed Uiso
 At 1.2 times of:
  All C(H) groups, All N(H) groups
 At 1.5 times of:
  All O(H) groups, All O(H,H) groups
2.a Free rotating group:
 O5(H5A,H5B)
2.b Aromatic/amide H refined with riding coordinates:
 N2(H2), C13(H13), N1(H1), C18(H18), C24(H24), C25(H25), C26(H26)
2.c Idealised tetrahedral OH refined as rotating group:
 O4(H4)
;
_shelx_res_file
;
TITL w1 in P-1
CELL 0.71073 8.9459 9.0271 12.5435 72.408 87.358 73.572
ZERR 2 0.001 0.0009 0.0011 0.009 0.009 0.01
LATT 1

SFAC C H Br N O
UNIT 30 20 8 4 10

L.S. 24
PLAN  5
BOND
fmap 2
acta
OMIT -3 53
REM <HKL>C:/Users/lenovo/Desktop/hu%20rsc/D-HNSF-25-3Er/struct/tmp-2/W1.hkl</H
REM KL>

WGHT    0.036200    0.481500
FVAR       0.13815
BR1   3   -0.378166    0.156236    0.487806    11.00000    0.01875    0.03181 =
         0.05876   -0.00740    0.00071   -0.00892
BR2   3   -0.138174    0.395474    0.427890    11.00000    0.02976    0.02174 =
         0.06988   -0.00169   -0.00285   -0.00899
BR3   3    0.041480    0.813061    0.268959    11.00000    0.05431    0.05783 =
         0.02206   -0.00620   -0.00272   -0.02661
BR4   3    0.131994    1.315576   -0.101295    11.00000    0.05841    0.04867 =
         0.04000   -0.01179    0.00499   -0.03700
O2    5    0.232173    0.256476    0.337727    11.00000    0.04966    0.04953 =
         0.02112   -0.00777    0.00425   -0.03845
O1    5    0.268302    0.241213    0.514810    11.00000    0.03360    0.04195 =
         0.02789   -0.01244   -0.00303   -0.02082
O4    5    0.073279    1.202077    0.195941    11.00000    0.03440    0.05311 =
         0.03619   -0.02664   -0.00488   -0.01436
AFIX 147
H4    2    0.126417    1.226381    0.235875    11.00000   -1.50000
AFIX   0
C4    1    0.075259    1.052574    0.070354    11.00000    0.02108    0.03179 =
         0.02742   -0.01695   -0.00161   -0.00687

C5    1   -0.059375    0.166864    0.466532    11.00000    0.02389    0.01903 =
         0.02084   -0.00304   -0.00177   -0.00848
C6    1    0.056783    1.132686   -0.043984    11.00000    0.02205    0.02832 =
         0.02647   -0.01284    0.00445   -0.00992
O3    5    0.304112    1.056245    0.156948    11.00000    0.02986    0.06991 =
         0.05963   -0.03640   -0.00789   -0.01300
C8    1    0.209649    0.208757    0.441216    11.00000    0.01921    0.02343 =
         0.02613   -0.00743   -0.00122   -0.01146
C9    1   -0.159673    0.067737    0.493433    11.00000    0.01705    0.02868 =
         0.02081   -0.00432    0.00123   -0.01025
AFIX   6
O5    5    0.600679    0.901919    0.268263    11.00000    0.04464    0.05322 =
         0.03965   -0.00739   -0.01110   -0.02049
H5A   2    0.517349    0.969969    0.277511    11.00000   -1.50000
H5B   2    0.655268    0.859287    0.329298    11.00000   -1.50000
AFIX   0

C11   1    0.100805    0.100236    0.473227    11.00000    0.02320    0.02265 =
         0.01552   -0.00418   -0.00068   -0.01152
N2    4    0.479625    0.687417    0.213489    11.00000    0.04323    0.03459 =
         0.05252   -0.00388   -0.00554   -0.02266
AFIX  43
H2    2    0.528182    0.752309    0.223323    11.00000   -1.20000
AFIX   0
C13   1    0.283057    0.531848    0.052290    11.00000    0.03890    0.03043 =
         0.05015   -0.01158    0.00161   -0.01456
AFIX  43
H13   2    0.240928    0.444845    0.067878    11.00000   -1.20000
AFIX   0

C14   1    0.018061    0.919951    0.113315    11.00000    0.02507    0.03222 =
         0.02296   -0.01051    0.00096   -0.01075
N1    4    0.376955    0.487827    0.249956    11.00000    0.04068    0.02934 =
         0.04348   -0.00084    0.00072   -0.01737
AFIX  43
H1    2    0.348486    0.403809    0.286690    11.00000   -1.20000
AFIX   0
C18   1    0.278497    0.634241   -0.053639    11.00000    0.04571    0.03864 =
         0.04587   -0.01563   -0.00161   -0.01037
AFIX  43
H18   2    0.231103    0.616988   -0.111505    11.00000   -1.20000
AFIX   0

C19   1    0.163892    1.103949    0.146798    11.00000    0.03293    0.03789 =
         0.02781   -0.01451   -0.00258   -0.01549
C20   1    0.353696    0.564164    0.135460    11.00000    0.02578    0.02332 =
         0.04027   -0.00184    0.00091   -0.00899
C23   1    0.419508    0.693138    0.111751    11.00000    0.02717    0.02595 =
         0.04194   -0.00921    0.00752   -0.01131
C24   1    0.343244    0.764863   -0.077840    11.00000    0.05253    0.03445 =
         0.03692   -0.00336    0.00814   -0.00895
AFIX  43
H24   2    0.336984    0.832165   -0.151110    11.00000   -1.20000
AFIX   0
C25   1    0.415367    0.795605    0.003759    11.00000    0.04741    0.02821 =
         0.05190   -0.00572    0.00974   -0.01624
AFIX  43
H25   2    0.459502    0.881238   -0.012538    11.00000   -1.20000
AFIX   0
C26   1    0.449874    0.565830    0.292617    11.00000    0.04420    0.03674 =
         0.04054    0.00002   -0.00647   -0.01677
AFIX  43
H26   2    0.476824    0.539042    0.368197    11.00000   -1.20000
AFIX   0
HKLF 4

REM  w1 in P-1
REM R1 =  0.0403 for    2976 Fo > 4sig(Fo)  and  0.0602 for all    3834 data
REM    239 parameters refined using      0 restraints

END

WGHT      0.0359      0.4904

REM Highest difference peak  0.726,  deepest hole -0.851,  1-sigma level  0.121
Q1    1  -0.1429  0.3867  0.3595  11.00000  0.05    0.73
Q2    1  -0.0441  0.9008  0.2890  11.00000  0.05    0.68
Q3    1  -0.1011  0.3394  0.3729  11.00000  0.05    0.57
Q4    1   0.0566  1.3478 -0.1796  11.00000  0.05    0.53
Q5    1   0.1830  1.2317 -0.0476  11.00000  0.05    0.46
;
_shelx_res_checksum              37767
_shelx_hkl_file
;
   0   0  -2  116.25    2.28
   0   0  -3  211.38    3.24
   0   0  -3  209.21    3.86
   0   0   3  195.56    3.30
   0   0   3  198.84    3.81
   0   0   4   91.19    1.89
   0   0  -4   91.09    2.40
   0   0   4   93.61    2.41
   0   0  -4   94.73    1.81
   0   0   5  273.20    4.59
   0   0   5  285.18    5.46
   0   0  -5  278.58    5.45
   0   0  -6   59.90    2.16
   0   0   6   57.71    2.11
   0   0   6   57.15    1.51
   0   0   7    3.04    0.36
   0   0  -7    3.29    0.61
   0   0   7    3.08    0.31
   0   0   7    3.11    0.54
   0   0   8   25.30    1.03
   0   0   8   27.10    1.59
   0   0   8   25.44    0.98
   0   0  -8   26.56    1.63
   0   0   9    5.40    0.50
   0   0   9    5.18    0.48
   0   0  -9    4.06    0.77
   0   0  10    3.99    0.44
   0   0 -10    4.47    0.86
   0   0  10    4.83    0.47
   0   0 -11   13.99    1.43
   0   0  11   13.46    0.77
   0   0  11   11.45    0.73
   0   0  12    6.08    0.55
   0   0 -12    5.79    1.04
   0   0 -13   32.52    2.30
   0   0 -14    1.24    0.82
   0   0 -15    1.00    0.74
   0   0 -16    1.04    0.83
   0   1 -15    4.21    1.11
   0   1 -14    3.53    1.12
   0   1 -13    1.38    0.71
   0   1 -12   23.45    2.02
   0  -1  11    1.62    0.24
   0  -1  11    1.08    0.18
   0   1 -10    4.32    0.88
   0  -1  10    3.98    0.37
   0  -1  10    3.59    0.28
   0  -1   9   33.64    0.93
   0   1  -9   38.52    2.20
   0  -1   8    7.72    0.94
   0   1  -8    5.65    0.84
   0  -1   8    6.14    0.35
   0  -1   7   70.83    1.38
   0  -1   7   77.87    2.79
   0   1  -7   76.79    2.81
   0   1  -6  135.66    3.77
   0  -1   6  131.23    2.22
   0  -1   5   44.14    0.89
   0   1  -5   45.95    1.91
   0   1  -4   11.06    0.84
   0   1  -3   13.39    0.82
   0   1  -2  121.73    2.66
   0   1  -1  118.32    2.33
   0   1   0   10.06    0.38
   0  -1  -1   21.91    0.73
   0  -1  -2  145.58    2.74
   0  -1  -3  227.87    3.74
   0   1   3  222.49    3.73
   0  -1  -3  220.13    3.96
   0  -1  -4  541.87    8.50
   0  -1  -4  553.48    8.52
   0   1   4  543.52    8.63
   0   1   4  545.21    8.48
   0  -1  -5   24.19    1.01
   0   1   5   26.73    1.11
   0  -1  -5   24.67    1.12
   0   1   5   25.13    1.09
   0  -1  -6   17.15    0.87
   0   1   6   15.19    0.89
   0  -1  -6   16.50    1.00
   0   1   6   16.79    0.97
   0   1   7  260.56    5.01
   0   1   7  261.42    5.31
   0  -1  -7  260.33    5.43
   0  -1  -7  252.69    4.83
   0   1   8   53.15    1.84
   0  -1  -8   54.55    2.22
   0   1   8   56.48    2.16
   0  -1  -9   35.34    1.87
   0   1   9   34.60    1.41
   0   1   9   36.64    1.54
   0   1  10    9.89    0.83
   0   1  10    8.08    0.71
   0  -1 -10   10.45    1.11
   0   1  11    7.22    0.68
   0  -1 -11    7.40    1.04
   0   1  12   36.34    1.58
   0  -1 -12   37.22    2.28
   0  -1 -13    0.55    0.62
   0  -1 -14    1.06    0.65
   0  -1 -15    0.10    0.64
   0  -1 -16    0.12    0.73
   0   2 -14    4.65    1.20
   0   2 -13   17.06    1.94
   0   2 -12   16.71    1.81
   0   2 -11    1.04    0.66
   0   2 -10   12.13    1.46
   0   2  -9    1.09    0.58
   0   2  -8  160.80    4.86
   0   2  -7   25.89    1.72
   0   2  -6   -0.22    0.41
   0   2  -5    0.08    0.41
   0   2  -4   17.41    1.16
   0   2  -3   61.07    2.10
   0   2  -2  150.05    2.34
   0   2  -2  149.23    3.38
   0  -2   2  151.50    2.49
   0   2  -2  154.14    2.50
   0   2  -1    2.21    0.23
   0  -2   1    2.24    0.23
   0   2  -1    1.73    0.28
   0  -2   0  192.19    3.27
   0   2   0  179.14    3.29
   0   2   0  193.79    3.41
   0  -2   0  179.23    3.38
   0   2   1    5.10    0.27
   0  -2  -1    4.66    0.42
   0  -2  -2  203.87    3.98
   0  -2  -3   17.74    0.94
   0  -2  -4   10.19    0.73
   0   2   4    9.59    0.45
   0  -2  -4   10.31    0.47
   0  -2  -5  251.59    4.38
   0  -2  -5  248.77    4.93
   0   2   5  243.70    4.28
   0   2   6   11.07    0.86
   0  -2  -6    9.19    0.66
   0   2   6    9.98    0.65
   0  -2  -6    9.60    0.75
   0  -2  -7    0.07    0.26
   0   2   7    0.46    0.25
   0  -2  -7    0.12    0.24
   0   2   7   -0.07    0.27
   0  -2  -8   54.06    2.01
   0  -2  -8   50.82    1.93
   0  -2  -9    3.80    0.66
   0   2  10    3.70    0.53
   0  -2 -10    4.08    0.70
   0  -2 -11   93.82    3.36
   0   2  11   91.21    2.82
   0   2  12    9.59    0.96
   0  -2 -12    8.77    1.11
   0   2  12    9.54    0.88
   0   2  13    0.09    0.41
   0  -2 -13    0.70    0.56
   0  -2 -14    1.59    0.69
   0   2  14    1.04    0.50
   0  -2 -15    5.02    1.05
   0  -2 -16    8.09    1.32
   0  -2 -17    0.62    0.76
   0   3 -13    4.89    1.15
   0   3 -12    0.67    0.75
   0   3 -11    1.26    0.76
   0   3 -10    2.65    0.80
   0   3  -9   48.80    2.83
   0   3  -8   13.25    1.44
   0   3  -7    2.49    0.74
   0   3  -6   75.80    3.03
   0   3  -5   71.32    2.80
   0   3  -4  471.21    8.93
   0   3  -3   50.87    1.04
   0   3  -3   53.98    1.22
   0  -3   2    0.08    0.22
   0   3  -2    0.33    0.12
   0  -3   2    0.28    0.16
   0   3  -2    0.34    0.19
   0   3  -2    0.21    0.26
   0  -3   1  205.34    3.87
   0   3  -1  204.47    4.25
   0  -3   1  216.85    4.25
   0   3  -1  212.80    3.87
   0  -3   0   74.24    1.86
   0   3   0   66.32    1.83
   0  -3   0   65.65    1.92
   0   3   0   73.52    1.95
   0   3   1   59.60    1.46
   0   3   1   59.40    1.86
   0  -3  -1   58.51    1.87
   0  -3  -2   10.56    0.79
   0   3   2   11.04    0.40
   0  -3  -3   38.48    1.60
   0  -3  -4  161.26    3.88
   0  -3  -5    9.31    0.83
   0  -3  -5    9.21    0.42
   0  -3  -6    2.18    0.48
   0  -3  -6    2.29    0.29
   0  -3  -7    0.98    0.28
   0  -3  -7    1.17    0.35
   0  -3  -8   31.34    1.36
   0  -3  -8   31.43    1.61
   0   3   9   96.70    3.17
   0  -3  -9   91.01    2.99
   0  -3  -9   89.96    2.72
   0   3  10   20.45    1.42
   0  -3 -10   16.91    1.21
   0  -3 -11   -0.49    0.47
   0   3  11    0.37    0.46
   0   3  12    0.57    0.49
   0  -3 -12    0.55    0.49
   0  -3 -13    1.45    0.58
   0   3  13    1.74    0.61
   0   3  14    1.81    0.59
   0  -3 -14    2.13    0.72
   0  -3 -15   19.40    1.78
   0  -3 -16   -0.73    0.74
   0   4 -12    0.91    0.86
   0   4 -11    1.74    0.81
   0   4 -10   12.75    1.74
   0   4  -9   12.94    1.61
   0   4  -8   45.16    2.71
   0   4  -7    2.94    0.80
   0   4  -6    6.00    0.97
   0   4  -5    0.18    0.44
   0   4  -4    8.73    0.98
   0   4  -4    6.67    0.30
   0   4  -4    8.12    0.45
   0   4  -3   33.25    0.92
   0   4  -3   33.07    1.09
   0   4  -3   33.39    1.75
   0   4  -2  105.20    3.09
   0   4  -2  104.03    2.17
   0   4  -2  103.50    2.41
   0  -4   2  103.49    2.39
   0   4  -1   45.32    1.79
   0   4  -1   47.38    1.42
   0   4  -1   48.71    1.61
   0  -4   1   47.16    1.60
   0   4   0   84.70    2.40
   0  -4   0   81.71    2.40
   0   4   0   84.49    2.31
   0   4   1   79.20    2.42
   0   4   1   76.79    1.96
   0  -4  -1   76.44    2.41
   0   4   2   23.51    1.31
   0   4   2   26.57    0.86
   0  -4  -2   24.38    1.35
   0   4   3  293.26    4.32
   0  -4  -3  299.78    6.14
   0  -4  -4   58.08    2.28
   0  -4  -5    3.17    0.59
   0  -4  -6    0.69    0.37
   0   4   7   20.90    1.49
   0  -4  -7   19.60    1.35
   0  -4  -7   17.08    0.69
   0  -4  -8   97.79    2.31
   0  -4  -8   96.26    3.24
   0  -4  -9   11.55    1.10
   0  -4  -9   12.17    0.81
   0   4   9   13.01    1.22
   0  -4 -10   12.19    0.92
   0   4  10   14.47    1.31
   0  -4 -11   24.15    1.43
   0   4  11   30.95    1.92
   0   4  12    2.24    0.64
   0  -4 -12    1.95    0.56
   0  -4 -13   12.56    1.24
   0   4  13   11.98    1.26
   0   4  14    5.16    0.94
   0  -4 -14    4.15    0.84
   0   4  15    0.17    0.47
   0   5 -11    1.74    1.06
   0   5 -10    2.86    0.95
   0   5  -9   13.11    1.72
   0   5  -8    2.59    0.96
   0   5  -7    2.84    0.93
   0   5  -6    1.16    0.60
   0   5  -5    8.13    1.11
   0   5  -4   72.92    1.83
   0   5  -4   67.94    1.49
   0   5  -3    0.13    0.16
   0   5  -3    0.52    0.50
   0   5  -3   -0.14    0.23
   0   5  -2   12.96    1.09
   0   5  -2   11.92    0.69
   0   5  -2   13.61    0.85
   0   5  -1   44.73    1.91
   0  -5   1   45.11    1.73
   0   5  -1   49.17    1.79
   0   5  -1   45.27    1.53
   0  -5   0   19.35    1.18
   0   5   0   20.10    1.06
   0   5   0   19.52    1.13
   0   5   0   20.85    1.20
   0   5   1  181.95    4.32
   0   5   1  177.79    3.73
   0   5   2    8.92    0.57
   0   5   2    7.89    0.85
   0  -5  -2    8.91    0.90
   0  -5  -3   11.10    1.02
   0   5   3   10.41    0.48
   0   5   3   10.58    1.03
   0   5   4    3.94    0.71
   0  -5  -4    4.41    0.72
   0  -5  -5   59.28    2.53
   0  -5  -6   11.41    1.14
   0   5   6   13.13    1.26
   0   5   7  125.52    4.02
   0   5   8   22.85    1.66
   0   5   9    1.71    0.65
   0  -5  -9    0.93    0.21
   0  -5 -10    9.39    0.68
   0   5  10   11.13    1.25
   0   5  11   13.58    1.38
   0  -5 -11   11.60    0.86
   0   5  12    7.67    1.09
   0  -5 -12    5.10    0.66
   0  -5 -13    3.96    0.66
   0   5  13    3.71    0.80
   0   5  14    4.27    0.91
   0   5  15    6.76    1.12
   0   5  16    0.85    0.62
   0   6  -9   18.18    2.05
   0   6  -8    7.63    1.31
   0   6  -7    9.30    1.44
   0   6  -6   -0.18    0.67
   0   6  -5   18.52    1.69
   0   6  -4    5.97    0.99
   0   6  -4    5.20    0.40
   0   6  -4    5.94    0.55
   0   6  -3   24.99    1.22
   0   6  -3   22.57    0.96
   0   6  -3   25.66    1.76
   0   6  -2    2.70    0.48
   0   6  -2    3.39    0.68
   0   6  -2    3.02    0.42
   0  -6   1   16.39    1.13
   0   6  -1   17.18    0.98
   0   6  -1   18.18    1.28
   0   6  -1   18.71    1.19
   0   6   0   13.17    1.00
   0   6   0   11.75    0.88
   0  -6   0   12.24    1.02
   0   6   0   12.43    1.05
   0   6   1    1.80    0.39
   0   6   1    0.96    0.35
   0   6   1    1.79    0.52
   0  -6  -1    1.84    0.48
   0   6   2    7.38    0.61
   0  -6  -2    6.86    0.87
   0   6   2    7.58    0.91
   0   6   3  133.34    2.62
   0   6   3  126.62    3.93
   0   6   4   35.99    0.87
   0  -6  -4   39.19    2.10
   0   6   5   57.72    2.63
   0   6   6    1.24    0.64
   0   6   7   13.58    1.36
   0   6   8   45.37    2.49
   0   6   9    8.37    1.13
   0   6  10    0.42    0.64
   0   6  11    8.41    1.16
   0   6  12    0.24    0.56
   0   6  13    1.75    0.76
   0   6  14    9.63    1.35
   0   6  15    0.84    0.58
   0   6  16    0.13    0.65
   0   7  -8   -0.17    0.78
   0   7  -7    2.94    1.03
   0   7  -6   13.94    1.64
   0   7  -5   14.91    1.61
   0   7  -4    0.59    0.63
   0   7  -4    0.19    0.31
   0   7  -3   35.37    2.18
   0   7  -3   33.90    1.31
   0   7  -3   36.40    1.63
   0   7  -2   11.45    0.81
   0   7  -2   12.42    1.04
   0   7  -2   11.96    1.19
   0   7  -1   74.94    2.67
   0   7  -1   71.29    2.78
   0   7   0    3.00    0.58
   0   7   0    2.96    0.62
   0  -7   0    2.38    0.58
   0   7   0    2.32    0.47
   0  -7  -1    8.87    0.98
   0   7   1    7.82    0.83
   0   7   1   10.64    0.87
   0   7   1    9.47    1.04
   0   7   2   11.37    0.81
   0   7   2   11.96    1.18
   0   7   3    3.78    0.43
   0   7   3    4.11    0.78
   0   7   4    0.89    0.18
   0   7   4    1.00    0.62
   0   7   5   -0.04    0.44
   0   7   6    1.34    0.64
   0   7   7   43.89    2.52
   0   7   8    5.79    1.04
   0   7   9    4.91    1.00
   0   7  10    9.99    1.28
   0   7  11    9.27    1.31
   0   7  12   19.37    1.86
   0   7  13    0.78    0.78
   0   7  14   -0.55    0.71
   0   7  15    0.09    0.70
   0   8  -7   -0.06    0.75
   0   8  -6    2.45    0.85
   0   8  -5   26.83    2.21
   0   8  -4    5.91    1.16
   0   8  -3   15.30    1.55
   0   8  -3   15.84    1.17
   0   8  -2    0.49    0.53
   0   8  -2    0.63    0.43
   0   8  -1    2.56    0.52
   0   8  -1    4.20    0.79
   0   8  -1    4.01    0.73
   0   8   0    9.81    1.11
   0   8   0    8.84    0.96
   0   8   1   27.22    1.50
   0   8   1   26.62    1.80
   0   8   2   26.54    1.86
   0   8   2   27.00    1.37
   0   8   3    7.83    0.66
   0   8   3    8.32    1.14
   0   8   4    7.96    0.52
   0   8   4    7.97    1.15
   0   8   5    2.35    0.77
   0   8   6   16.47    1.63
   0   8   7    0.85    0.72
   0   8   8    4.21    0.97
   0   8   9   -0.18    0.68
   0   8  10    4.82    1.06
   0   8  11   13.29    1.66
   0   8  12    1.67    0.87
   0   8  13   -0.41    0.68
   0   8  14   -0.51    0.65
   0   9  -6    1.33    0.92
   0   9  -5    0.79    0.84
   0   9  -4    0.82    0.78
   0   9  -3    0.96    0.72
   0   9  -2    0.67    0.48
   0   9  -2    1.08    0.66
   0   9  -1   51.80    2.64
   0   9  -1   60.74    2.76
   0   9   0   13.26    1.37
   0   9   0   15.37    1.35
   0   9   1   10.14    1.01
   0   9   1   10.14    1.22
   0   9   2   26.08    1.42
   0   9   2   23.79    1.92
   0   9   3    6.33    0.64
   0   9   3    6.87    1.06
   0   9   4   28.33    2.16
   0   9   5    0.95    0.76
   0   9   6    7.07    1.20
   0   9   7    5.96    1.17
   0   9   8    3.39    0.98
   0   9   9    1.52    0.88
   0   9  10    4.67    1.21
   0   9  11   -0.17    0.64
   0   9  12   10.10    1.57
   0  10  -4    2.55    0.98
   0  10  -3    0.96    0.73
   0  10  -2    2.89    0.85
   0  10  -1    1.20    0.51
   0  10   0    2.74    0.68
   0  10   0    4.76    0.95
   0  10   1    0.57    0.60
   0  10   2    0.37    0.59
   0  10   3    9.20    1.30
   0  10   4    4.55    1.02
   0  10   5    6.59    1.16
   0  10   6   26.30    2.24
   0  10   7   14.72    1.78
   0  10   8    8.55    1.43
   0  10   9    5.63    1.20
   0  10  10    1.43    1.02
   0  11   2   -0.18    0.69
   0  11   3   -0.12    0.76
   0  11   4    9.74    1.46
   0  11   5   -1.13    0.88
   0  11   6    0.13    0.78
   0  11   7    0.60    0.84
  -1  11   5    2.79    0.88
  -1  11   4   10.16    1.52
  -1  11   3    1.40    0.76
  -1  11   2    0.10    0.66
  -1  10   9   -0.27    0.63
  -1  10   8    1.53    0.73
  -1  10   7    1.87    0.95
  -1  10   6    0.45    0.65
  -1  10   5    3.12    0.94
  -1  10   4    2.06    0.76
  -1  10   3    6.58    1.14
  -1  10   2   12.36    1.48
  -1  10   1   20.85    1.87
  -1  10   0   24.31    1.95
  -1  10  -2    1.23    0.62
  -1  10  -3    3.98    1.00
  -1   9  11   -0.07    0.63
  -1   9  10    2.11    0.94
  -1   9   9   -0.09    0.64
  -1   9   8    2.80    0.93
  -1   9   7    7.78    1.27
  -1   9   6    2.72    0.92
  -1   9   5    3.53    1.04
  -1   9   4   17.88    1.78
  -1   9   3    4.72    0.97
  -1   9   2   11.31    0.96
  -1   9   2   12.19    1.46
  -1   9   1    0.57    0.44
  -1   9   1   -0.96    0.69
  -1   9   0    3.37    0.83
  -1   9   0    1.95    0.59
  -1   9  -1    0.44    0.53
  -1   9  -1   -0.51    0.47
  -1   9  -2    5.48    0.98
  -1   9  -3    6.63    1.13
  -1   9  -4   17.80    1.81
  -1   9  -5    2.26    0.95
  -1   8  13   13.08    1.73
  -1   8  12    3.59    1.01
  -1   8  11    1.66    0.97
  -1   8  10    7.70    1.27
  -1   8   9    5.84    1.20
  -1   8   8   24.95    2.12
  -1   8   7    1.24    0.82
  -1   8   6    3.36    0.91
  -1   8   5    4.95    0.99
  -1   8   4    0.16    0.56
  -1   8   4    0.18    0.17
  -1   8   3    1.36    0.32
  -1   8   3    0.11    0.52
  -1   8   2    0.08    0.55
  -1   8   2    1.18    0.38
  -1   8   1    3.97    0.64
  -1   8   1    3.94    0.81
  -1   8   0   34.29    2.03
  -1   8   0   32.59    1.81
  -1   8  -1   18.90    1.49
  -1   8  -1   22.03    1.57
  -1   8  -2    9.00    1.00
  -1   8  -2   10.31    1.21
  -1   8  -3   21.62    1.43
  -1   8  -3   22.26    1.85
  -1   8  -4   11.43    1.47
  -1   8  -5   18.25    1.87
  -1   8  -6    2.93    1.08
  -1   8  -7    1.97    0.94
  -1   7  15    1.13    0.88
  -1   7  14    4.11    1.06
  -1   7  13    6.08    1.31
  -1   7  12    4.77    1.08
  -1   7  11    1.04    0.81
  -1   7  10    1.50    0.84
  -1   7   9   21.83    1.93
  -1   7   8    7.04    1.22
  -1   7   7    0.23    0.48
  -1   7   6   84.72    3.58
  -1   7   5   38.11    2.31
  -1   7   4   29.55    1.01
  -1   7   4   33.17    2.05
  -1   7   3   11.88    1.24
  -1   7   3   11.91    0.76
  -1   7   2    0.74    0.32
  -1   7   2    1.34    0.56
  -1   7   1   34.51    1.61
  -1   7   1   34.36    1.98
   1  -7   0    1.22    0.46
  -1   7   0    2.17    0.53
  -1   7   0    1.11    0.49
  -1   7  -1   -0.25    0.40
  -1   7  -1   -0.38    0.33
   1  -7   1    0.47    0.43
  -1   7  -1    0.91    0.52
   1  -7   2    3.49    0.58
  -1   7  -2    4.12    0.68
  -1   7  -2    3.34    0.50
  -1   7  -2    4.58    0.82
  -1   7  -3    1.98    0.48
  -1   7  -3    3.31    0.83
  -1   7  -4   21.66    1.83
  -1   7  -4   21.18    1.22
  -1   7  -5    5.27    1.08
  -1   7  -6    6.46    1.21
  -1   7  -7   15.40    1.82
  -1   7  -8   17.22    2.02
  -1   6  16    0.08    0.63
  -1   6  15    1.28    0.69
  -1   6  14    3.17    0.92
  -1   6  13    2.76    0.83
  -1   6  12    0.47    0.55
  -1   6  11    0.08    0.59
  -1   6  10    4.70    0.95
  -1   6   9    1.01    0.56
  -1   6   8   34.31    2.23
  -1   6   7    3.14    0.87
  -1   6   6    0.32    0.52
  -1   6   5   -0.43    0.45
  -1   6   4    0.14    0.10
  -1   6   4    0.97    0.61
  -1   6   3   18.32    0.83
   1  -6  -3   17.95    1.50
  -1   6   3   19.25    1.45
  -1   6   2   86.33    3.07
  -1   6   2   86.92    2.29
   1  -6  -2   84.00    3.31
  -1   6   1   33.84    1.78
  -1   6   1   34.25    1.48
   1  -6  -1   32.30    1.91
   1  -6   0   19.33    1.41
  -1   6   0   22.50    1.32
  -1   6   0   18.73    1.30
  -1   6  -1   17.01    1.25
   1  -6   1   18.66    1.35
  -1   6  -1   18.05    1.22
   1  -6   1   17.05    1.24
  -1   6  -2    7.68    0.79
  -1   6  -2    7.45    0.65
  -1   6  -2    7.94    0.97
   1  -6   2    7.92    0.82
  -1   6  -3   58.26    2.66
  -1   6  -3   59.38    2.04
   1  -6   3   51.44    1.89
  -1   6  -3   52.27    1.63
  -1   6  -4    0.33    0.28
  -1   6  -4    0.26    0.17
  -1   6  -4    0.54    0.49
  -1   6  -5    9.71    1.26
  -1   6  -6    0.65    0.64
  -1   6  -7   -0.31    0.69
  -1   6  -8    6.79    1.30
  -1   6  -9    4.41    1.22
  -1   5  16    1.31    0.74
  -1   5  15    1.25    0.68
  -1   5  14    9.55    1.35
  -1   5  13    7.51    1.14
  -1   5  12   10.79    1.32
   1  -5 -12    7.05    0.71
   1  -5 -11    1.81    0.35
  -1   5  11    2.82    0.82
  -1   5  10    6.82    1.04
   1  -5 -10    4.23    0.40
  -1   5   9   40.40    2.28
  -1   5   8    4.20    0.84
  -1   5   7   -0.11    0.49
  -1   5   6    1.33    0.56
  -1   5   5    2.77    0.71
   1  -5  -5    2.68    0.64
  -1   5   4  117.70    3.70
   1  -5  -4  121.82    3.96
  -1   5   3   27.48    1.63
  -1   5   3   28.92    0.95
   1  -5  -3   29.56    1.80
   1  -5  -2    1.36    0.30
   1  -5  -2    0.82    0.32
  -1   5   2    0.69    0.39
  -1   5   2    1.01    0.24
  -1   5   1  180.29    3.75
   1  -5  -1  174.18    3.87
   1  -5  -1  169.26    4.59
  -1   5   1  175.76    4.33
   1  -5   0   66.68    2.57
   1  -5   0   69.87    2.36
  -1   5   0   71.24    2.41
  -1   5   0   74.03    2.32
  -1   5  -1   70.36    2.29
   1  -5   1   67.98    2.46
  -1   5  -1   74.43    2.50
   1  -5   2   29.49    1.71
   1  -5   2   30.73    1.48
  -1   5  -2   29.77    1.35
  -1   5  -2   30.62    1.67
   1  -5   3    2.46    0.44
  -1   5  -3    2.35    0.32
  -1   5  -3    2.18    0.40
   1  -5   3    2.88    0.67
  -1   5  -3    3.22    0.68
  -1   5  -4   20.28    1.59
  -1   5  -4   19.24    0.98
  -1   5  -4   17.58    0.68
   1  -5   4   19.19    0.91
  -1   5  -5   26.28    1.92
  -1   5  -6    8.37    1.17
  -1   5  -7   16.85    1.73
  -1   5  -8    1.36    0.82
  -1   5  -9    4.36    1.17
  -1   5 -10    6.08    1.35
  -1   4  15    2.92    0.79
  -1   4  14    6.25    1.03
   1  -4 -14    6.61    0.95
  -1   4  13    0.93    0.60
   1  -4 -13    0.87    0.50
   1  -4 -12    8.50    0.90
  -1   4  12    8.60    1.15
  -1   4  11    2.13    0.68
   1  -4 -11    1.68    0.48
  -1   4  10   83.29    3.23
   1  -4 -10   72.26    2.27
  -1   4   9   54.42    2.51
   1  -4  -9   44.46    1.53
   1  -4  -8    1.16    0.25
   1  -4  -8    0.46    0.38
  -1   4   8    1.00    0.53
   1  -4  -7    1.20    0.46
  -1   4   7    1.23    0.52
   1  -4  -7    1.22    0.18
   1  -4  -6    4.44    0.72
   1  -4  -5   85.76    3.07
   1  -4  -4    6.53    0.79
  -1   4   3   67.03    2.44
   1  -4  -3   70.82    2.63
  -1   4   3   68.51    1.47
   1  -4  -3   69.74    1.44
   1  -4  -2    2.32    0.46
  -1   4   2    3.32    0.32
   1  -4  -2    3.36    0.35
  -1   4   2    3.03    0.57
   1  -4  -1    3.43    0.55
   1  -4  -1    3.29    0.43
  -1   4   1    3.00    0.46
  -1   4   1    3.89    0.40
  -1   4   0   66.85    2.15
   1  -4   0   70.11    2.22
  -1   4   0   71.07    2.08
   1  -4   0   65.38    2.32
  -1   4  -1    6.48    0.69
   1  -4   1    5.76    0.63
  -1   4  -1    5.59    0.57
   1  -4   1    6.08    0.70
  -1   4  -2   11.24    0.95
   1  -4   2    9.35    0.74
  -1   4  -2   11.61    0.75
   1  -4   3  236.54    5.59
   1  -4   3  215.76    4.39
  -1   4  -3  224.18    5.35
  -1   4  -3  229.21    4.26
   1  -4   4   32.21    1.12
   1  -4   4   35.64    1.97
  -1   4  -4   28.02    0.78
  -1   4  -4   31.62    1.84
  -1   4  -4   31.61    0.91
  -1   4  -5   38.45    2.16
  -1   4  -6    4.17    0.91
  -1   4  -7    6.17    1.03
  -1   4  -8   26.55    2.11
  -1   4  -9    4.13    1.04
  -1   4 -10    6.59    1.35
  -1   4 -11   -0.55    0.74
   1  -3 -15    4.78    0.95
  -1   3  15    5.29    0.86
  -1   3  14   -0.05    0.44
   1  -3 -14    0.61    0.51
  -1   3  13   12.04    1.25
   1  -3 -13   11.37    1.18
  -1   3  12   12.02    1.19
   1  -3 -12   12.86    1.18
   1  -3 -11    1.11    0.49
  -1   3  11    1.34    0.58
   1  -3 -10    8.92    0.87
  -1   3  10    8.85    1.02
   1  -3 -10    7.99    0.95
  -1   3   9   17.09    1.33
   1  -3  -9   18.13    1.09
   1  -3  -9   16.25    1.28
   1  -3  -8    0.35    0.28
  -1   3   8    0.37    0.39
   1  -3  -8   -0.27    0.38
   1  -3  -7   13.67    0.75
   1  -3  -7   12.16    1.06
   1  -3  -6   78.93    2.77
   1  -3  -6   84.29    1.87
   1  -3  -5  121.42    2.16
   1  -3  -5  118.43    3.42
   1  -3  -4   31.60    1.58
   1  -3  -3   67.75    1.26
   1  -3  -3   70.56    2.40
  -1   3   2   33.71    1.45
   1  -3  -2   33.14    1.51
   1  -3  -2   35.29    0.97
  -1   3   2   35.64    0.97
   1  -3  -1   23.69    0.94
  -1   3   1   23.09    1.11
  -1   3   1   24.76    0.88
   1  -3  -1   23.83    1.21
   1  -3   0   25.54    1.11
  -1   3   0   24.21    1.10
  -1   3   0   26.44    1.07
   1  -3   0   23.25    1.16
  -1   3  -1  222.82    4.16
   1  -3   1  215.97    4.35
   1  -3   1  225.29    4.65
  -1   3  -1  226.36    4.49
   1  -3   2   17.40    1.11
   1  -3   2   16.83    0.86
  -1   3  -2   16.96    0.80
  -1   3  -2   16.90    1.08
   1  -3   3   10.46    0.62
  -1   3  -3    9.58    0.57
  -1   3  -3    9.57    0.89
  -1   3  -4    0.30    0.07
   1  -3   4    0.19    0.14
   1  -3   4    0.11    0.27
  -1   3  -4    0.08    0.06
   1  -3   5    8.30    0.93
  -1   3  -5    8.43    0.99
  -1   3  -6    1.65    0.51
  -1   3  -7   86.44    3.50
  -1   3  -8   19.87    1.73
  -1   3  -9    3.01    0.86
  -1   3 -10    6.94    1.24
  -1   3 -11    8.18    1.36
  -1   3 -12   21.89    2.22
   1  -2 -16    0.50    0.68
   1  -2 -15    0.30    0.64
   1  -2 -14    0.04    0.52
  -1   2  14    0.18    0.41
  -1   2  13   13.82    1.17
   1  -2 -13   11.80    1.29
   1  -2 -12    1.12    0.57
  -1   2  12    1.26    0.52
   1  -2 -11   19.79    1.34
  -1   2  11   22.98    1.48
   1  -2 -11   21.37    1.49
   1  -2 -10   34.41    1.78
   1  -2 -10   33.08    1.69
   1  -2  -9   20.27    1.30
   1  -2  -9   20.51    1.28
   1  -2  -8   27.55    1.51
   1  -2  -8   29.82    1.41
   1  -2  -7    2.09    0.40
   1  -2  -7    1.14    0.34
   1  -2  -6    7.96    0.75
   1  -2  -6    8.16    0.59
  -1   2   6    9.01    0.82
   1  -2  -5  330.29    6.29
   1  -2  -5  331.03    5.43
  -1   2   5  326.78    6.26
   1  -2  -4   36.77    1.50
   1  -2  -3   18.07    1.00
   1  -2  -2  131.51    3.05
   1  -2  -2  139.41    2.31
   1  -2  -1   20.21    0.97
  -1   2   1   21.03    0.69
   1  -2  -1   20.72    0.69
  -1   2   0   11.30    0.64
   1  -2   0   10.65    0.66
  -1   2   0   11.02    0.57
   1  -2   0   12.00    0.63
  -1   2  -1  105.08    2.45
   1  -2   1  101.42    2.24
   1  -2   1  102.81    2.46
  -1   2  -1  100.47    2.17
   1  -2   2   36.44    1.11
  -1   2  -2   37.96    1.49
  -1   2  -2   39.37    1.13
  -1   2  -3   13.85    0.99
  -1   2  -3   13.04    0.47
   1  -2   3   14.26    0.59
  -1   2  -4   17.61    1.21
   1  -2   4   16.97    0.59
  -1   2  -5   31.45    1.71
  -1   2  -6   25.95    1.69
   1  -2   6   26.68    1.69
  -1   2  -7    9.67    1.15
  -1   2  -8   69.56    3.10
  -1   2  -9    0.56    0.55
  -1   2 -10    0.35    0.54
  -1   2 -11   23.47    2.08
  -1   2 -12    0.80    0.74
  -1   2 -13    5.80    1.29
   1  -1 -17    2.62    0.96
   1  -1 -16    0.53    0.76
   1  -1 -15    1.95    0.77
   1  -1 -14    9.47    1.31
   1  -1 -13    3.94    0.90
   1  -1 -12   10.12    1.23
   1  -1 -11    4.87    0.84
   1  -1 -10   15.75    1.30
   1  -1 -10   15.51    1.06
   1  -1  -9    2.14    0.51
   1  -1  -9    3.25    0.53
  -1   1   9    3.00    0.51
  -1   1   8    5.59    0.63
   1  -1  -8    5.13    0.69
   1  -1  -8    4.72    0.59
   1  -1  -7   75.37    2.47
   1  -1  -7   77.67    2.37
   1  -1  -6   56.25    1.91
  -1   1   6   62.26    1.96
   1  -1  -6   58.68    1.91
  -1   1   5    0.51    0.27
   1  -1  -5    0.66    0.24
   1  -1  -5    0.48    0.23
   1  -1  -4    1.20    0.27
   1  -1  -4    1.55    0.28
  -1   1   4    1.03    0.27
   1  -1  -3   82.95    2.02
   1  -1  -2   60.31    1.57
  -1   1   1  405.74    5.99
   1  -1  -1  393.92    6.35
   1  -1   0    1.30    0.21
  -1   1   0    1.04    0.16
  -1   1  -1   45.30    1.15
  -1   1  -1   44.38    1.26
   1  -1   1   45.33    1.19
  -1   1  -2  292.53    4.38
  -1   1  -2  281.57    5.15
   1  -1   2  295.92    4.68
   1  -1   3    1.74    0.21
  -1   1  -3    1.65    0.14
   1  -1   3    1.63    0.17
  -1   1  -3    1.78    0.38
  -1   1  -4  103.57    2.89
  -1   1  -4  102.72    1.67
   1  -1   4   98.29    1.76
   1  -1   5   42.99    0.93
  -1   1  -5   45.54    1.93
  -1   1  -6   33.14    1.75
   1  -1   6   33.52    0.87
   1  -1   6   29.36    0.75
   1  -1   6   32.15    1.74
   1  -1   7   26.88    1.67
  -1   1  -7   25.85    1.66
   1  -1   7   23.50    0.71
   1  -1   8    0.47    0.12
   1  -1   8    0.83    0.13
  -1   1  -8    0.21    0.43
   1  -1   9    2.18    0.20
  -1   1  -9    2.81    0.69
  -1   1 -10    4.02    0.96
  -1   1 -11    7.96    1.27
  -1   1 -12   37.97    2.57
  -1   1 -13    1.30    0.86
  -1   1 -14   -0.49    0.82
   1   0 -16    2.09    0.96
   1   0 -15    0.43    0.70
   1   0 -14    2.97    0.90
   1   0 -13   28.33    2.16
   1   0 -12    0.68    0.61
  -1   0  12   -0.14    0.30
  -1   0  11    9.01    0.70
  -1   0  11    9.27    0.74
   1   0 -11    7.31    1.04
  -1   0  10    1.48    0.36
   1   0 -10    1.22    0.56
   1   0  -9   12.84    0.81
  -1   0   9   14.53    0.90
   1   0  -9   12.92    1.20
  -1   0   8    7.45    0.63
   1   0  -8    7.24    0.60
   1   0  -7   60.83    1.80
  -1   0   7   60.13    1.80
   1   0  -7   58.25    2.31
   1   0  -6   61.89    2.20
  -1   0   6   62.93    1.76
   1   0  -6   61.81    1.75
   1   0  -5   75.75    1.87
  -1   0   5   76.25    1.91
   1   0  -5   75.42    2.24
  -1   0   4    6.03    0.46
   1   0  -4    5.76    0.42
   1   0  -4    6.36    0.55
   1   0  -3  147.96    2.71
  -1   0   3  148.88    2.82
   1   0  -2    0.86    0.16
   1   0  -1   17.36    0.65
  -1   0   0  153.98    2.60
  -1   0  -1    1.04    0.16
  -1   0  -2   15.86    0.49
   1   0   2   15.45    0.50
  -1   0  -2   17.13    0.72
   1   0   3  227.47    3.57
  -1   0  -3  228.42    3.55
  -1   0  -3  224.47    4.27
  -1   0  -4   52.30    1.80
   1   0   4   54.57    1.21
   1   0   4   50.06    1.71
   1   0   5   24.23    0.78
   1   0   5   24.78    0.83
   1   0   5   24.37    1.27
  -1   0  -5   23.32    1.27
   1   0   6  240.15    4.21
   1   0   6  244.17    4.04
   1   0   6  247.82    5.35
  -1   0  -6  230.37    5.26
   1   0   7   21.48    1.38
   1   0   7   20.15    0.89
  -1   0  -7   21.22    1.40
   1   0   7   20.54    0.80
  -1   0  -8   40.37    2.06
   1   0   8   39.47    1.34
   1   0   8   40.87    2.05
   1   0   8   38.09    1.18
  -1   0  -9    3.26    0.76
   1   0   9    2.71    0.36
   1   0   9    3.01    0.34
  -1   0 -10    0.99    0.62
   1   0  10    1.13    0.27
   1   0  10    1.03    0.25
   1   0  11   57.98    1.67
   1   0  11   56.19    1.61
  -1   0 -11   58.68    2.95
  -1   0 -12    1.29    0.67
  -1   0 -13    2.21    0.87
  -1   0 -14    3.00    1.02
  -1   0 -15    4.36    1.16
   1   1 -15    3.71    1.12
   1   1 -14   14.17    1.70
   1   1 -13    8.99    1.39
   1   1 -12    4.44    1.07
  -1  -1  11    7.53    0.62
  -1  -1  11    6.59    0.49
   1   1 -11    7.46    1.15
   1   1 -10   10.74    1.27
  -1  -1  10   10.13    0.72
  -1  -1  10   10.62    0.62
   1   1  -9  118.71    3.99
  -1  -1   9  115.81    2.77
  -1  -1   8    1.70    0.31
   1   1  -8    1.87    0.53
  -1  -1   7   31.87    1.18
   1   1  -7   30.61    0.94
   1   1  -7   31.57    1.76
   1   1  -6   11.16    0.54
   1   1  -6   10.79    0.94
  -1  -1   6   10.44    0.62
   1   1  -5    6.80    0.38
  -1  -1   5    6.91    0.47
   1   1  -5    6.26    0.69
  -1  -1   4   14.78    0.65
   1   1  -4   14.88    0.95
   1   1  -4   14.55    0.52
   1   1  -3  111.24    2.66
  -1  -1   3  113.60    2.18
   1   1  -3  118.33    2.07
   1   1  -2   48.89    1.13
  -1  -1   2   47.68    1.09
   1   1  -1    4.78    0.27
   1   1   0   13.73    0.48
   1   1   1    0.38    0.11
   1   1   2    6.07    0.35
   1   1   2    6.26    0.37
  -1  -1  -2    6.05    0.38
   1   1   3   57.09    1.46
  -1  -1  -3   59.88    1.49
   1   1   3   57.76    1.37
  -1  -1  -3   59.96    1.42
  -1  -1  -4  593.81    9.29
   1   1   4  575.26    9.21
   1   1   4  595.84    9.00
   1   1   4  601.41    8.91
  -1  -1  -5   21.12    1.09
   1   1   5   20.73    0.91
   1   1   5   20.80    1.02
   1   1   5   19.85    0.83
  -1  -1  -6   22.01    1.23
   1   1   6   21.53    1.01
   1   1   6   20.98    0.89
   1   1   6   22.12    1.18
   1   1   7    7.58    0.75
   1   1   7    7.00    0.60
  -1  -1  -7    6.07    0.72
   1   1   8    0.66    0.30
   1   1   8    0.94    0.30
  -1  -1  -8    0.93    0.48
   1   1   8    1.08    0.28
   1   1   9    0.72    0.31
  -1  -1  -9    1.08    0.53
   1   1   9    0.33    0.35
   1   1   9    0.64    0.29
   1   1  10   89.19    2.55
  -1  -1 -10   86.53    3.31
   1   1  10   81.05    2.27
  -1  -1 -11    4.54    0.90
   1   1  11    3.24    0.45
  -1  -1 -12    0.28    0.57
   1   1  12   -0.14    0.25
  -1  -1 -13    2.05    0.79
  -1  -1 -14    2.84    0.84
  -1  -1 -15    8.76    1.41
  -1  -1 -16    1.32    0.74
   1   2 -14    7.54    1.39
   1   2 -13    8.10    1.36
   1   2 -12    0.75    0.68
   1   2 -11    1.29    0.72
   1   2 -10   15.91    1.59
   1   2  -9    2.22    0.73
  -1  -2   8    7.01    0.31
  -1  -2   8    6.47    0.30
  -1  -2   7   82.35    1.54
   1   2  -7   95.79    3.42
  -1  -2   6   73.28    1.40
   1   2  -6   74.56    2.86
   1   2  -5  103.02    3.21
  -1  -2   5  100.52    1.78
  -1  -2   4   64.79    1.27
   1   2  -4   64.64    2.31
   1   2  -3    2.14    0.47
  -1  -2   3    1.79    0.18
   1   2  -3    1.37    0.18
   1   2  -2  759.07   10.93
   1   2  -2  726.01   11.88
   1   2  -1   56.08    1.22
  -1  -2   1   55.09    1.22
   1   2   0   63.83    1.40
   1   2   1    3.82    0.31
   1   2   2   13.34    0.55
   1   2   2   12.86    0.63
   1   2   3  179.24    3.38
  -1  -2  -3  180.91    3.13
   1   2   3  172.83    3.05
   1   2   4    5.59    0.40
  -1  -2  -4    5.06    0.41
   1   2   4    4.59    0.44
   1   2   5    1.63    0.25
   1   2   5    1.46    0.34
   1   2   5    2.04    0.32
  -1  -2  -5    1.61    0.30
   1   2   6   63.37    2.06
   1   2   6   61.44    1.87
   1   2   6   57.12    1.80
  -1  -2  -6   60.15    1.90
   1   2   7   81.24    2.44
   1   2   7   86.07    2.58
   1   2   7   79.03    2.26
  -1  -2  -7   86.86    2.54
   1   2   8  147.07    3.44
   1   2   8  151.30    3.81
  -1  -2  -8  152.29    3.88
  -1  -2  -9    4.80    0.71
   1   2   9    5.02    0.56
   1   2   9    5.28    0.66
  -1  -2 -10   36.75    1.97
   1   2  10   39.96    1.92
   1   2  10   36.95    1.59
  -1  -2 -11   36.59    2.12
   1   2  11   35.58    1.61
   1   2  12   18.66    1.27
  -1  -2 -12   16.20    1.52
   1   2  12   16.25    1.10
   1   2  13    1.61    0.47
  -1  -2 -13    1.03    0.72
  -1  -2 -14   10.12    1.35
  -1  -2 -15    3.06    0.97
  -1  -2 -16    6.42    1.30
  -1  -2 -17    1.43    0.93
   1   3 -13    1.54    0.93
   1   3 -12    1.05    0.93
   1   3 -11   12.68    1.59
   1   3 -10    6.05    1.16
   1   3  -9   35.32    2.38
   1   3  -8   -0.47    0.62
   1   3  -7    1.46    0.52
   1   3  -6    1.08    0.54
   1   3  -5    1.82    0.54
   1   3  -4   47.35    1.11
   1   3  -4   47.13    1.03
   1   3  -3   63.35    2.32
   1   3  -3   64.45    1.49
  -1  -3   3   66.36    1.40
   1   3  -3   64.49    1.38
   1   3  -2  153.36    2.69
   1   3  -2  153.41    2.88
  -1  -3   2  150.12    2.75
   1   3  -2  153.84    3.62
   1   3  -1  115.40    2.25
   1   3  -1  119.80    2.82
   1   3  -1  114.81    2.45
  -1  -3   1  115.35    2.34
   1   3   0  158.78    2.95
   1   3   0  155.98    3.17
   1   3   1  102.72    2.46
   1   3   1  104.48    2.31
   1   3   2  767.26   11.65
   1   3   3   36.43    1.01
   1   3   3   37.55    1.36
   1   3   4   11.94    0.51
   1   3   4   10.26    0.74
  -1  -3  -5   62.31    1.61
   1   3   5   63.25    1.49
   1   3   6   23.19    0.95
   1   3   6   23.25    1.18
  -1  -3  -6   24.50    1.03
  -1  -3  -7   67.65    2.01
   1   3   7   68.25    1.98
   1   3   8    6.93    0.64
   1   3   8    6.61    0.67
  -1  -3  -8    6.12    0.68
  -1  -3  -9   22.85    1.35
   1   3   9   21.13    1.22
   1   3   9   23.78    1.48
   1   3   9   21.03    1.24
   1   3  10   81.86    2.66
  -1  -3 -10   72.87    2.73
   1   3  10   78.27    2.60
  -1  -3 -11    7.47    0.95
   1   3  11    8.61    0.94
   1   3  11    7.45    0.81
   1   3  11    7.95    0.83
   1   3  12   26.68    1.68
  -1  -3 -12   25.25    1.77
   1   3  13    0.50    0.45
  -1  -3 -13    0.58    0.57
   1   3  14    0.46    0.46
  -1  -3 -14    0.71    0.65
  -1  -3 -15   36.49    2.45
  -1  -3 -16    1.44    0.85
   1   4 -12    0.37    0.87
   1   4 -11    9.96    1.55
   1   4 -10    8.47    1.38
   1   4  -9    2.01    0.74
   1   4  -8   10.22    1.36
   1   4  -7    7.93    1.12
   1   4  -6   18.47    1.57
   1   4  -5   88.87    3.38
   1   4  -4    9.42    0.46
   1   4  -4    9.05    1.02
   1   4  -4    9.64    0.48
   1   4  -3   11.20    0.64
   1   4  -3   11.53    1.05
   1   4  -3   11.25    0.54
   1   4  -2  141.90    3.12
   1   4  -2  140.78    3.75
   1   4  -2  143.38    2.73
   1   4  -1   31.00    1.30
   1   4  -1   29.61    1.04
   1   4  -1   30.82    1.44
   1   4   0  278.27    5.23
   1   4   0  285.55    5.40
   1   4   0  275.51    4.90
   1   4   1   83.44    2.10
   1   4   1   82.25    2.16
   1   4   1   82.63    2.45
   1   4   2    9.57    0.82
   1   4   2    9.89    0.72
   1   4   3   72.14    2.20
   1   4   4   19.65    0.66
   1   4   4   19.07    1.10
   1   4   5   50.32    1.12
   1   4   5   46.54    1.85
   1   4   6   65.99    1.50
  -1  -4  -6   64.04    1.59
   1   4   6   61.97    2.23
  -1  -4  -7   34.81    1.26
   1   4   7   34.47    1.16
   1   4   7   36.00    1.90
   1   4   7   33.40    1.61
   1   4   8   19.92    1.44
   1   4   8   19.08    0.94
   1   4   8   18.85    1.22
  -1  -4  -8   18.49    1.01
  -1  -4  -9   40.89    1.68
   1   4   9   43.67    1.59
   1   4   9   40.49    1.90
  -1  -4 -10   13.99    1.07
   1   4  10   17.10    1.40
   1   4  10   15.19    0.98
  -1  -4 -11    2.22    0.52
   1   4  11    2.52    0.69
  -1  -4 -12    4.15    0.75
   1   4  12    3.65    0.73
  -1  -4 -13    1.63    0.62
   1   4  13    0.92    0.53
   1   4  14   23.19    1.71
  -1  -4 -14   19.08    1.65
  -1  -4 -15   -0.02    0.55
   1   4  15    0.26    0.46
   1   5 -11   13.78    1.87
   1   5 -10   21.79    2.27
   1   5  -9    1.20    0.80
   1   5  -8    7.71    1.29
   1   5  -7    8.20    1.24
   1   5  -6   84.22    3.61
   1   5  -5   15.64    0.55
   1   5  -5   21.23    1.71
   1   5  -4   43.23    1.19
   1   5  -4   45.96    2.36
   1   5  -4   46.15    1.34
   1   5  -3    2.33    0.31
   1   5  -3    1.57    0.52
   1   5  -3    2.43    0.38
   1   5  -2    6.55    0.61
   1   5  -2    6.74    0.50
   1   5  -2    6.05    0.80
   1   5  -1   21.57    1.18
   1   5  -1   19.41    1.25
   1   5  -1   20.21    0.94
   1   5   0    0.26    0.34
   1   5   0    0.05    0.27
   1   5   1    7.03    0.64
   1   5   1    8.04    0.68
   1   5   1    7.28    0.77
   1   5   2  231.84    4.83
   1   5   2  242.47    5.36
   1   5   2  229.07    4.33
   1   5   3   53.39    1.41
   1   5   3   54.86    2.00
   1   5   3   51.47    2.21
   1   5   4   57.54    2.40
   1   5   4   54.56    1.31
   1   5   4   54.07    2.10
   1   5   5   22.61    1.32
   1   5   5   20.46    0.53
   1   5   6   31.70    1.68
   1   5   7  106.37    1.96
   1   5   7  103.28    3.28
   1   5   8    0.34    0.54
   1   5   8    0.52    0.16
  -1  -5  -9    0.88    0.30
   1   5   9    0.98    0.57
   1   5  10    2.70    0.70
  -1  -5 -10    2.05    0.42
   1   5  11    0.62    0.59
  -1  -5 -11    0.37    0.31
   1   5  12   19.33    1.62
  -1  -5 -12   16.18    1.26
  -1  -5 -13   13.09    1.23
   1   5  13   14.60    1.45
   1   5  14    1.55    0.70
   1   5  15    2.56    0.75
   1   5  16   -0.29    0.55
   1   6 -10    2.02    1.07
   1   6  -9    4.13    1.23
   1   6  -8    0.48    0.77
   1   6  -7   13.20    1.61
   1   6  -6   18.33    1.77
   1   6  -5    1.33    0.18
   1   6  -5    1.34    0.66
   1   6  -5    1.59    0.24
   1   6  -4   39.79    2.33
   1   6  -4   43.35    1.45
   1   6  -4   40.97    1.28
   1   6  -3   72.30    1.93
   1   6  -3   78.29    2.29
   1   6  -3   72.63    3.03
   1   6  -2   80.65    2.49
   1   6  -2   74.39    2.06
   1   6  -2   76.69    2.97
   1   6  -1   22.36    1.45
   1   6  -1   26.23    1.46
   1   6  -1   23.10    1.11
   1   6   0    8.06    0.86
   1   6   0    6.80    0.76
   1   6   0    7.02    0.65
   1   6   1   57.58    2.39
   1   6   1   54.84    2.03
   1   6   1   59.32    2.05
   1   6   2    2.85    0.58
   1   6   2    3.59    0.53
   1   6   2    2.81    0.43
   1   6   3    1.65    0.30
   1   6   3    1.67    0.55
   1   6   3    1.93    0.44
   1   6   4    2.96    0.52
   1   6   4    2.97    0.64
   1   6   4    3.35    0.31
   1   6   5   41.69    2.24
   1   6   6  126.90    4.16
   1   6   7   15.79    1.44
   1   6   8   -0.51    0.61
   1   6   9   24.23    1.83
   1   6  10    6.17    0.98
   1   6  11   44.40    2.58
   1   6  12    0.19    0.55
   1   6  13    2.03    0.76
   1   6  14    7.90    1.25
   1   6  15    2.72    0.81
   1   6  16    1.40    0.73
   1   7  -8   -0.04    0.81
   1   7  -7    0.47    0.69
   1   7  -6   45.69    2.92
   1   7  -5   16.73    1.70
   1   7  -4   16.34    0.97
   1   7  -4   16.44    1.61
   1   7  -3   -0.25    0.39
   1   7  -3   -0.28    0.26
   1   7  -3   -0.61    0.61
   1   7  -2    0.25    0.47
   1   7  -2    0.93    0.44
   1   7  -2    0.63    0.29
   1   7  -1   13.41    1.20
   1   7  -1   15.95    1.19
   1   7  -1   14.42    0.95
   1   7   0   21.88    1.43
   1   7   0   24.74    1.56
   1   7   0   23.22    1.26
   1   7   1   52.97    2.41
   1   7   1   49.21    1.98
   1   7   1   46.96    1.97
   1   7   2   14.54    0.98
   1   7   2   14.16    1.08
   1   7   2   16.11    1.35
   1   7   3   33.67    2.00
   1   7   3   31.87    1.29
   1   7   4    0.64    0.53
   1   7   4    0.31    0.18
   1   7   5   36.75    2.22
   1   7   5   32.51    0.76
   1   7   6    4.99    0.93
   1   7   7   13.37    1.43
   1   7   8    1.97    0.68
   1   7   9    0.25    0.61
   1   7  10   24.59    1.97
   1   7  11    2.47    0.84
   1   7  12    9.89    1.38
   1   7  13    9.81    1.36
   1   7  14    2.07    0.88
   1   7  15    3.68    0.98
   1   7  16    1.30    0.76
   1   8  -7    0.03    0.80
   1   8  -6    1.05    0.84
   1   8  -5    1.45    0.79
   1   8  -4    2.01    0.77
   1   8  -3    1.31    0.62
   1   8  -3    2.60    0.55
   1   8  -2   33.49    2.11
   1   8  -2   28.56    1.40
   1   8  -2   33.78    1.77
   1   8  -1   32.00    1.55
   1   8  -1   35.10    2.03
   1   8   0    8.72    0.98
   1   8   0   11.03    1.16
   1   8   1   47.38    2.43
   1   8   1   49.03    2.12
   1   8   2   16.03    1.10
   1   8   2   16.48    1.47
   1   8   3   35.75    1.48
   1   8   3   34.22    2.18
   1   8   4    1.47    0.72
   1   8   4    0.63    0.24
   1   8   5   14.54    0.61
   1   8   5   16.54    0.57
   1   8   6    8.45    1.22
   1   8   7   24.98    2.03
   1   8   8    0.30    0.64
   1   8   9   13.61    1.57
   1   8  10    5.75    1.15
   1   8  11   11.03    1.47
   1   8  12    4.99    1.07
   1   8  13    1.10    0.81
   1   8  14    0.75    0.68
   1   9  -6   -0.46    0.79
   1   9  -5    3.28    1.00
   1   9  -4   -0.41    0.69
   1   9  -3    0.33    0.58
   1   9  -2   -0.52    0.59
   1   9  -2   -0.31    0.45
   1   9  -1    8.68    1.05
   1   9  -1    7.61    1.06
   1   9   0   -0.32    0.47
   1   9   0    0.07    0.52
   1   9   1    1.27    0.62
   1   9   1    0.37    0.38
   1   9   2   14.31    1.08
   1   9   2   15.05    1.49
   1   9   3   16.93    1.65
   1   9   3   18.75    1.10
   1   9   4    2.52    0.87
   1   9   4    1.73    0.35
   1   9   5   31.88    2.31
   1   9   6   24.62    2.07
   1   9   7   10.81    1.44
   1   9   8    1.07    0.73
   1   9   9   -0.25    0.72
   1   9  10    6.98    1.28
   1   9  11    0.51    0.80
   1   9  12    4.21    1.19
   1  10  -4    1.02    0.75
   1  10  -3   15.39    1.65
   1  10  -2   -0.33    0.54
   1  10  -1    5.50    0.98
   1  10   0    0.15    0.55
   1  10   0    1.81    0.67
   1  10   1    4.93    1.01
   1  10   1    4.27    0.78
   1  10   2    1.43    0.66
   1  10   3    9.97    1.37
   1  10   4    1.38    0.74
   1  10   5    0.91    0.83
   1  10   6   -0.01    0.70
   1  10   7    0.43    0.66
   1  10   8    1.75    1.03
   1  10   9    9.69    1.46
   1  10  10    4.75    1.17
   1  11   1    2.10    0.76
   1  11   2   -0.94    0.76
   1  11   3    4.37    1.06
   1  11   4    6.41    1.23
   1  11   5    0.09    0.67
   1  11   6    0.77    0.88
   1  11   7    1.41    0.87
   1  11   8    2.38    1.05
   1  12   3    2.26    0.87
   1  12   4    5.03    1.11
  -2  11   4    1.31    0.96
  -2  11   3    2.38    1.00
  -2  10   7    0.17    0.78
  -2  10   6   -0.52    0.79
  -2  10   5    4.89    1.20
  -2  10   4    2.34    0.87
  -2  10   3    5.45    1.11
  -2  10   2    0.55    0.71
  -2  10   1    0.15    0.60
  -2   9  10    3.11    1.13
  -2   9   9   11.46    1.66
  -2   9   8    1.15    0.83
  -2   9   7    0.80    0.79
  -2   9   6    2.25    0.93
  -2   9   5   -0.54    0.67
  -2   9   4   -0.73    0.79
  -2   9   3    2.06    0.81
  -2   9   2    2.12    0.83
  -2   9   1    9.72    1.29
  -2   9   1    8.54    0.95
  -2   9   0    1.65    0.60
  -2   9   0    1.72    0.72
  -2   9  -1    4.91    0.97
  -2   9  -1    5.47    0.97
  -2   9  -2    7.67    1.16
  -2   9  -3    3.30    0.91
  -2   9  -4    8.40    1.34
  -2   9  -5    0.42    0.75
  -2   8  12    1.02    0.89
  -2   8  11    0.95    0.69
  -2   8  10    2.78    1.00
  -2   8   9    4.71    1.20
  -2   8   8    1.69    0.91
  -2   8   7   18.95    1.88
  -2   8   6   14.97    1.66
  -2   8   5   22.30    1.98
  -2   8   4   11.68    0.75
  -2   8   4   12.86    1.48
  -2   8   3    0.16    0.31
  -2   8   3    1.07    0.60
  -2   8   2   15.77    1.10
  -2   8   2   17.36    1.60
  -2   8   1   -0.18    0.50
  -2   8   1   -0.04    0.39
  -2   8   0    9.80    1.19
  -2   8   0    7.45    0.93
  -2   8  -1   -0.05    0.48
  -2   8  -1   -0.27    0.48
  -2   8  -2    1.69    0.64
  -2   8  -2    0.65    0.42
  -2   8  -3    4.13    0.94
  -2   8  -4    0.13    0.60
  -2   8  -5   -0.31    0.74
  -2   8  -6    8.80    1.44
  -2   7  14    0.27    0.66
  -2   7  13    0.25    0.76
  -2   7  12   -0.22    0.72
  -2   7  11    0.72    0.87
  -2   7  10    0.98    0.90
  -2   7   9   21.67    1.99
  -2   7   8    1.40    0.75
  -2   7   7    0.69    0.75
  -2   7   6    7.87    1.16
  -2   7   5    0.10    0.57
  -2   7   4    5.15    0.50
  -2   7   4    5.33    0.90
  -2   7   3   44.74    2.48
  -2   7   3   48.23    1.74
  -2   7   2   21.37    1.66
  -2   7   2   21.02    1.21
   2  -7  -1   13.91    1.15
  -2   7   1   11.81    0.98
  -2   7   1   11.85    1.25
  -2   7   0   40.42    1.95
   2  -7   0   36.21    1.99
  -2   7   0   38.86    2.10
  -2   7  -1    5.83    0.86
  -2   7  -1    7.66    0.96
  -2   7  -2   43.14    2.09
   2  -7   2   39.50    2.06
  -2   7  -2   42.64    2.32
  -2   7  -3   -0.68    0.61
  -2   7  -3    0.80    0.39
  -2   7  -4    1.72    0.73
  -2   7  -5   -0.66    0.63
  -2   7  -6    1.40    0.75
  -2   7  -7   -0.09    0.81
  -2   6  16    0.27    0.66
  -2   6  15    6.33    1.17
  -2   6  14    1.12    0.75
  -2   6  13    0.27    0.59
  -2   6  12    0.95    0.81
  -2   6  11    0.71    0.77
  -2   6  10    9.97    1.39
  -2   6   9    0.01    0.70
  -2   6   8   12.35    1.44
  -2   6   7    0.41    0.50
  -2   6   6    0.52    0.48
  -2   6   5   42.17    2.39
  -2   6   4    2.09    0.66
   2  -6  -4    2.68    0.33
   2  -6  -3    8.10    0.65
  -2   6   3    7.62    0.66
  -2   6   3    8.07    1.02
  -2   6   2   91.48    2.54
   2  -6  -2   93.40    2.73
  -2   6   2   92.98    3.35
  -2   6   1    7.66    0.93
   2  -6  -1    8.11    1.02
  -2   6   1    8.93    0.81
   2  -6   0   14.86    1.22
   2  -6   0   12.85    1.24
  -2   6   0   15.65    1.15
  -2   6   0   14.58    1.19
   2  -6   1   -0.24    0.46
  -2   6  -1   -0.14    0.37
  -2   6  -1    0.02    0.41
   2  -6   1    0.34    0.37
  -2   6  -2    2.59    0.66
   2  -6   2    3.38    0.63
  -2   6  -2    2.78    0.55
  -2   6  -3    3.02    0.75
   2  -6   3    2.74    0.54
  -2   6  -3    2.66    0.54
  -2   6  -4   28.27    1.21
  -2   6  -4   28.81    2.03
  -2   6  -4   25.62    1.05
   2  -6   4   25.90    1.36
  -2   6  -5    6.08    1.12
  -2   6  -6    9.60    1.37
  -2   6  -7    4.51    1.11
  -2   6  -8    4.17    1.20
  -2   6  -9    2.80    1.09
  -2   5  16    0.19    0.61
  -2   5  15    7.92    1.29
  -2   5  14    0.45    0.59
  -2   5  13    6.00    1.14
  -2   5  12    0.88    0.67
  -2   5  11   33.98    2.30
   2  -5 -11   24.95    1.10
  -2   5  10   20.71    1.78
   2  -5 -10   14.36    0.69
  -2   5   9    2.90    0.83
  -2   5   8   39.44    2.34
  -2   5   7    4.64    0.86
  -2   5   6   23.61    1.72
  -2   5   5    0.36    0.47
   2  -5  -4   16.96    1.45
   2  -5  -4   18.20    0.77
  -2   5   4   19.14    1.45
   2  -5  -3   23.16    1.67
  -2   5   3   23.27    1.05
   2  -5  -3   22.94    1.03
  -2   5   3   21.28    1.51
   2  -5  -2    3.94    0.49
  -2   5   2    4.29    0.70
  -2   5   2    4.91    0.54
   2  -5  -2    4.65    0.78
  -2   5   1   22.90    1.42
   2  -5  -1   20.35    1.24
  -2   5   1   22.56    1.16
   2  -5  -1   21.66    1.53
   2  -5   0    8.55    0.94
  -2   5   0    9.21    0.92
  -2   5   0    9.66    0.82
   2  -5   1    4.64    0.72
   2  -5   1    5.82    0.78
  -2   5  -1    5.59    0.73
  -2   5  -1    5.27    0.69
  -2   5  -2  159.67    3.91
  -2   5  -2  166.99    4.45
   2  -5   2  154.17    4.17
   2  -5   2  163.40    4.66
  -2   5  -3   65.75    2.77
   2  -5   3   59.63    2.26
  -2   5  -3   65.29    2.19
  -2   5  -4   21.78    0.99
  -2   5  -4   21.69    1.67
   2  -5   4   20.03    1.15
  -2   5  -5   16.35    0.64
   2  -5   5   20.92    1.02
  -2   5  -5   23.54    1.81
  -2   5  -5   16.82    0.61
  -2   5  -6    4.77    1.02
  -2   5  -7   30.64    2.32
  -2   5  -8    4.66    1.16
  -2   5  -9    1.63    0.80
  -2   5 -10    2.48    1.08
  -2   4  15    0.56    0.55
  -2   4  14   -0.55    0.60
   2  -4 -13    1.41    0.52
  -2   4  13    2.40    0.78
  -2   4  12    0.24    0.53
   2  -4 -12    0.72    0.42
   2  -4 -11    9.89    0.88
  -2   4  11   11.51    1.30
  -2   4  10   28.89    1.97
   2  -4 -10   27.62    1.31
  -2   4   9   -0.14    0.47
   2  -4  -9    0.95    0.28
  -2   4   8    9.70    1.15
   2  -4  -8    9.06    0.59
   2  -4  -7   37.89    1.10
  -2   4   7   38.40    2.13
  -2   4   6   63.12    2.64
   2  -4  -6   57.02    1.27
   2  -4  -6   58.27    2.62
   2  -4  -5    4.92    0.33
   2  -4  -5    5.44    0.81
   2  -4  -4  150.95    2.79
   2  -4  -4  151.33    4.34
  -2   4   3  103.62    3.26
   2  -4  -3  107.80    3.50
   2  -4  -3  109.33    2.36
   2  -4  -2    8.09    0.89
  -2   4   2    8.43    0.86
  -2   4   2    8.31    0.64
   2  -4  -2    8.09    0.60
  -2   4   1   14.07    1.05
   2  -4  -1   13.77    1.11
   2  -4  -1   14.33    0.89
  -2   4   1   15.63    0.89
  -2   4   0    3.15    0.56
  -2   4   0    3.26    0.49
   2  -4   0    2.05    0.46
   2  -4   0    1.98    0.41
  -2   4  -1   33.09    1.59
  -2   4  -1   31.30    1.45
   2  -4   1   31.16    1.57
   2  -4   2    7.81    0.76
  -2   4  -2    8.73    0.89
  -2   4  -2    7.95    0.73
  -2   4  -3   26.36    1.62
   2  -4   3   24.96    1.61
  -2   4  -3   23.41    1.06
   2  -4   3   22.04    1.22
  -2   4  -3   24.69    1.21
  -2   4  -4    1.03    0.55
  -2   4  -4    1.71    0.30
   2  -4   4    1.34    0.35
   2  -4   5    7.23    0.58
  -2   4  -5    5.52    0.33
  -2   4  -5    7.59    1.05
  -2   4  -6  103.53    3.96
   2  -4   6   98.17    2.14
  -2   4  -7    5.78    1.09
  -2   4  -8    0.06    0.63
  -2   4  -9   32.75    2.50
  -2   4 -10   16.47    1.93
  -2   4 -11    9.35    1.63
  -2   3  15    1.05    0.56
  -2   3  14    2.60    0.71
   2  -3 -14    2.93    0.73
  -2   3  13    0.74    0.52
   2  -3 -13    1.41    0.55
  -2   3  12   28.62    1.89
   2  -3 -12   26.06    1.64
  -2   3  11   24.21    1.75
   2  -3 -11   21.91    1.41
  -2   3  10    5.28    0.85
   2  -3 -10    4.01    0.60
   2  -3  -9   -0.19    0.28
  -2   3   9    0.35    0.44
  -2   3   8   21.55    1.52
   2  -3  -8   20.82    1.49
   2  -3  -8   17.45    1.00
  -2   3   7    3.54    0.71
   2  -3  -7    2.78    0.58
   2  -3  -7    2.47    0.37
   2  -3  -6  171.05    4.53
   2  -3  -5   24.83    1.52
   2  -3  -4    1.56    0.25
   2  -3  -4    1.46    0.42
   2  -3  -3   20.39    0.81
   2  -3  -3   22.49    1.33
  -2   3   2    0.69    0.32
  -2   3   2    0.49    0.22
   2  -3  -2    0.84    0.20
   2  -3  -2    0.62    0.29
  -2   3   1   21.75    0.98
   2  -3  -1   20.81    0.96
   2  -3  -1   20.13    1.21
  -2   3   1   20.81    1.16
  -2   3   0  159.91    3.43
  -2   3   0  154.14    3.55
   2  -3   0  151.81    3.44
   2  -3   0  151.09    3.71
  -2   3  -1  116.05    2.87
   2  -3   1  111.93    3.00
   2  -3   1  109.53    2.95
  -2   3  -1  120.42    3.04
   2  -3   2    1.41    0.34
  -2   3  -2    1.73    0.48
  -2   3  -2    1.31    0.34
  -2   3  -3    4.16    0.42
  -2   3  -3    4.99    0.69
   2  -3   3    4.59    0.50
   2  -3   4    0.55    0.26
  -2   3  -4    0.09    0.16
  -2   3  -4    0.91    0.44
   2  -3   4    0.55    0.38
  -2   3  -5    6.45    0.34
   2  -3   5    8.36    0.57
  -2   3  -5    8.80    1.08
   2  -3   6    0.92    0.19
  -2   3  -6    0.12    0.48
  -2   3  -7   48.61    2.68
  -2   3  -8    3.06    0.89
  -2   3  -9    0.14    0.61
  -2   3 -10    4.12    1.02
  -2   3 -11    3.43    1.06
  -2   3 -12    2.60    1.10
   2  -2 -16    2.16    0.83
   2  -2 -15    5.56    1.03
   2  -2 -14    4.54    0.92
  -2   2  14    5.71    0.88
  -2   2  13    7.78    0.98
   2  -2 -13    7.97    1.08
  -2   2  12   21.99    1.55
   2  -2 -12   16.95    1.45
   2  -2 -11   18.25    1.40
  -2   2  11   20.17    1.45
   2  -2 -11   19.46    1.44
   2  -2 -10   -0.55    0.40
  -2   2  10    0.06    0.47
   2  -2 -10   -0.78    0.43
  -2   2   9    1.83    0.55
   2  -2  -9    1.70    0.43
   2  -2  -9    1.43    0.41
   2  -2  -8   18.01    1.27
   2  -2  -8   17.78    1.09
   2  -2  -7   86.29    2.84
   2  -2  -7   85.30    2.37
   2  -2  -6   14.10    1.05
   2  -2  -5    1.32    0.37
   2  -2  -4   80.38    2.50
   2  -2  -3   13.81    0.95
   2  -2  -3   14.11    0.69
   2  -2  -2  583.45    9.83
   2  -2  -2  593.55    9.08
  -2   2   1  317.69    5.92
   2  -2  -1  324.74    6.11
   2  -2  -1  326.25    5.50
  -2   2   1  333.42    5.60
  -2   2   0    6.28    0.59
  -2   2   0    7.26    0.57
   2  -2   0    6.20    0.60
   2  -2   0    6.43    0.53
   2  -2   1  278.40    5.28
   2  -2   1  276.94    5.20
  -2   2  -1  282.62    5.23
  -2   2  -1  280.04    5.16
   2  -2   2  100.62    2.55
  -2   2  -2   98.46    2.30
   2  -2   2  102.03    2.77
  -2   2  -2  106.46    2.81
   2  -2   3   34.13    1.32
  -2   2  -3   35.75    1.66
  -2   2  -3   35.50    1.12
  -2   2  -4   23.57    0.77
   2  -2   4   20.75    0.98
  -2   2  -4   22.54    1.40
   2  -2   5   34.05    1.21
  -2   2  -5   34.67    0.88
  -2   2  -5   36.28    1.94
   2  -2   6   53.07    1.47
  -2   2  -6   50.86    1.02
  -2   2  -7    3.14    0.76
   2  -2   7    3.92    0.32
  -2   2  -8   15.48    1.54
  -2   2  -9    1.45    0.67
  -2   2 -10   -0.20    0.57
  -2   2 -11   29.26    2.38
  -2   2 -12   -0.07    0.65
  -2   2 -13    2.24    1.05
   2  -1 -16    2.39    0.92
   2  -1 -15    0.54    0.66
   2  -1 -14   13.72    1.52
   2  -1 -13    1.59    0.70
  -2   1  13    1.37    0.52
  -2   1  12   23.34    1.49
   2  -1 -12   19.97    1.34
   2  -1 -12   19.57    1.61
   2  -1 -11    2.48    0.52
   2  -1 -11    3.05    0.69
   2  -1 -10    9.70    0.92
   2  -1 -10    9.14    1.00
   2  -1  -9    4.34    0.64
   2  -1  -9    4.02    0.60
   2  -1  -8   35.85    1.74
   2  -1  -8   37.15    1.68
  -2   1   7  182.05    4.22
   2  -1  -7  171.69    4.06
   2  -1  -7  171.34    4.02
  -2   1   6   62.40    2.14
   2  -1  -6   58.12    2.00
  -2   1   5    0.62    0.34
   2  -1  -5    0.80    0.31
  -2   1   4    1.18    0.32
   2  -1  -4    0.99    0.28
   2  -1  -3    9.46    0.70
   2  -1  -2   82.95    2.27
   2  -1  -1 1000.00   14.66
   2  -1  -1  999.52   15.07
  -2   1   0  298.78    5.18
   2  -1   0  298.40    5.40
  -2   1   0  294.65    5.31
  -2   1  -1  129.61    2.71
  -2   1  -1  132.58    2.85
   2  -1   1  125.38    2.90
  -2   1  -2  190.25    3.49
  -2   1  -2  199.24    4.05
   2  -1   2  196.14    3.87
  -2   1  -3   53.74    1.33
   2  -1   3   54.51    1.52
  -2   1  -3   55.88    1.96
  -2   1  -4    2.11    0.24
  -2   1  -4    1.88    0.47
   2  -1   4    1.91    0.26
   2  -1   5  389.78    6.22
  -2   1  -5  393.76    5.92
  -2   1  -6   83.85    1.70
   2  -1   6   82.78    1.88
   2  -1   7    4.99    0.40
   2  -1   7    5.09    0.81
  -2   1  -7    4.01    0.74
   2  -1   8    0.22    0.14
   2  -1   8    0.35    0.16
  -2   1  -9   -0.25    0.55
   2  -1   9    0.28    0.12
   2  -1   9    0.35    0.16
   2  -1  10   23.73    0.73
   2  -1  10   22.27    0.83
  -2   1 -11    7.65    1.24
  -2   1 -12   16.41    1.83
  -2   1 -13    0.01    0.75
  -2   1 -14    0.37    0.66
   2   0 -16    2.27    1.00
   2   0 -15    8.32    1.36
   2   0 -14    8.60    1.32
   2   0 -13    5.03    0.97
  -2   0  13    5.38    0.75
   2   0 -12   14.79    1.51
  -2   0  12   16.59    1.23
   2   0 -11   13.35    1.39
   2   0 -11   13.10    0.96
   2   0 -10   36.06    2.13
   2   0 -10   37.34    1.64
  -2   0  10   41.51    1.79
   2   0  -9    5.39    0.82
   2   0  -9    5.57    0.64
  -2   0   9    7.71    0.77
  -2   0   8   22.17    1.22
   2   0  -8   18.71    1.09
   2   0  -8   19.29    1.36
   2   0  -7   78.72    2.67
  -2   0   7   82.17    2.42
   2   0  -6   10.09    0.71
   2   0  -6   11.64    0.93
  -2   0   6   11.59    0.83
  -2   0   5    0.56    0.29
   2   0  -5    0.27    0.19
   2   0  -4  102.61    2.45
  -2   0   4   98.82    2.56
   2   0  -3  145.40    3.12
  -2   0   3  142.07    3.18
   2   0  -2  231.75    4.34
   2   0  -1    0.89    0.24
   2   0   0   22.34    0.91
  -2   0  -1   29.74    0.98
   2   0   1   30.53    1.03
  -2   0  -1   32.50    1.17
   2   0   2   50.54    1.35
  -2   0  -2   51.76    1.58
  -2   0  -2   51.78    1.31
  -2   0  -3  311.10    4.97
   2   0   3  311.67    5.05
  -2   0  -3  304.29    5.64
   2   0   4   37.26    1.11
  -2   0  -4   36.93    1.57
  -2   0  -4   38.96    1.10
   2   0   5   13.03    0.65
   2   0   5   12.49    0.92
  -2   0  -5   11.74    0.96
  -2   0  -5   12.72    0.61
   2   0   6   41.75    1.26
  -2   0  -6   42.00    1.96
   2   0   6   39.66    1.81
  -2   0  -6   42.44    1.24
   2   0   7    5.03    0.44
   2   0   7    5.59    0.72
  -2   0  -7    6.73    0.86
   2   0   8    3.50    0.43
   2   0   8    3.97    0.42
  -2   0  -8    2.87    0.70
   2   0   8    3.79    0.65
   2   0   9   70.19    1.86
   2   0   9   75.74    2.09
  -2   0  -9   70.06    3.08
   2   0  10   47.31    1.48
   2   0  10   50.74    1.68
  -2   0 -10   49.81    2.69
   2   0  11    9.90    0.64
   2   0  11   11.38    0.73
  -2   0 -11   11.86    1.44
  -2   0 -12    3.49    0.95
  -2   0 -13    5.67    1.21
  -2   0 -14    5.47    1.22
  -2   0 -15    1.26    0.92
   2   1 -15    9.64    1.59
   2   1 -14    2.75    0.98
   2   1 -13    0.43    0.59
   2   1 -12    3.41    0.88
  -2  -1  11   12.71    0.96
   2   1 -11   10.87    1.33
  -2  -1  10   25.95    1.35
   2   1 -10   23.80    1.84
   2   1 -10   22.94    1.02
   2   1  -9   21.91    1.69
   2   1  -9   23.91    1.10
  -2  -1   8   53.23    1.90
   2   1  -8   49.96    2.42
   2   1  -8   47.27    1.58
   2   1  -7   72.98    2.78
  -2  -1   7   75.76    2.27
   2   1  -7   73.07    1.94
  -2  -1   6  130.62    3.11
   2   1  -6  126.64    2.71
   2   1  -6  132.24    3.63
   2   1  -5  104.54    2.34
  -2  -1   5  102.39    2.59
   2   1  -4    2.30    0.32
  -2  -1   4    2.30    0.35
  -2  -1   3  445.70    7.30
   2   1  -3  451.64    7.25
  -2  -1   2   73.54    1.81
   2   1  -2   72.13    1.84
   2   1  -1   33.83    1.09
   2   1   0   33.50    1.04
   2   1   1   73.62    1.69
  -2  -1  -2   84.38    1.88
   2   1   2   88.20    1.93
  -2  -1  -2   87.34    2.17
  -2  -1  -3    0.56    0.20
   2   1   3    0.33    0.16
  -2  -1  -3    0.76    0.25
   2   1   4  179.43    3.35
  -2  -1  -4  171.56    3.73
  -2  -1  -4  178.77    3.29
   2   1   4  171.38    3.65
   2   1   5   16.68    0.97
  -2  -1  -5   15.49    0.98
  -2  -1  -5   15.40    0.75
   2   1   5   15.24    0.76
  -2  -1  -6   21.62    1.30
   2   1   6   21.63    1.21
   2   1   6   21.71    0.95
   2   1   7   85.37    2.18
   2   1   7   83.05    2.73
  -2  -1  -7   88.15    2.95
   2   1   7   88.30    2.28
   2   1   8    3.91    0.50
   2   1   8    3.39    0.43
   2   1   8    3.29    0.61
  -2  -1  -8    3.51    0.66
   2   1   9    2.71    0.46
   2   1   9    4.51    0.73
   2   1   9    3.07    0.44
  -2  -1  -9    4.53    0.84
   2   1  10   48.56    1.87
   2   1  10   49.60    1.70
  -2  -1 -10   51.38    2.61
   2   1  11    0.19    0.23
  -2  -1 -11   -0.25    0.54
  -2  -1 -12    1.92    0.82
  -2  -1 -13   13.79    1.60
  -2  -1 -14    1.13    0.87
  -2  -1 -15    5.48    1.26
  -2  -1 -16    2.06    1.04
   2   2 -14    0.80    0.85
   2   2 -13    1.87    0.99
   2   2 -12    3.41    0.98
   2   2 -11   20.60    1.86
  -2  -2  10   18.71    0.86
   2   2 -10   17.57    1.68
   2   2  -9   -0.49    0.69
  -2  -2   9   -0.37    0.24
  -2  -2   8   23.70    0.99
   2   2  -8   19.82    1.61
   2   2  -8   20.78    0.77
   2   2  -7    3.69    0.33
  -2  -2   7    3.39    0.40
   2   2  -6   -0.15    0.46
  -2  -2   6    0.20    0.18
   2   2  -6    0.26    0.13
   2   2  -5  141.20    2.74
   2   2  -5  144.75    3.86
  -2  -2   5  141.35    2.87
  -2  -2   4   71.09    1.77
   2   2  -4   76.62    1.83
  -2  -2   3  246.99    4.22
   2   2  -3  241.64    4.34
  -2  -2   2   11.95    0.61
   2   2  -2   14.34    0.68
  -2  -2   1   32.34    1.04
   2   2  -1   32.31    1.03
   2   2   0   85.53    1.92
   2   2   1  494.41    7.68
   2   2   2  202.45    3.83
   2   2   2  199.48    3.67
   2   2   3    6.26    0.50
  -2  -2  -3    5.76    0.51
   2   2   3    5.70    0.47
  -2  -2  -4  149.71    3.32
   2   2   4  151.93    3.21
  -2  -2  -4  160.91    3.22
   2   2   4  156.76    3.19
   2   2   5   18.47    0.95
  -2  -2  -5   17.35    0.99
  -2  -2  -5   18.85    0.94
   2   2   5   17.20    0.88
   2   2   6   35.17    1.44
  -2  -2  -6   35.83    1.54
   2   2   6   33.28    1.31
   2   2   6   37.71    1.45
  -2  -2  -7    6.50    0.75
   2   2   7    6.05    0.64
   2   2   7    5.15    0.53
   2   2   7    5.91    0.63
   2   2   8   96.25    2.95
  -2  -2  -8  102.03    3.17
   2   2   8   96.55    2.60
  -2  -2  -9   74.27    2.87
   2   2   9   77.95    2.78
   2   2   9   74.81    2.29
   2   2  10    3.47    0.51
   2   2  10    3.12    0.62
  -2  -2 -10    3.09    0.71
   2   2  11    0.61    0.34
  -2  -2 -11    0.11    0.51
   2   2  12    2.04    0.51
   2   2  12    0.61    0.34
  -2  -2 -12    1.57    0.69
   2   2  13    0.56    0.40
  -2  -2 -13    0.24    0.60
  -2  -2 -14   28.39    2.26
  -2  -2 -15   -0.79    0.82
  -2  -2 -16    0.65    0.86
  -2  -2 -17    0.18    0.77
   2   3 -13    0.06    0.80
   2   3 -12    1.98    1.00
   2   3 -11   20.61    2.04
   2   3 -10    6.97    1.21
   2   3  -9   44.72    2.72
   2   3  -8    1.67    0.67
  -2  -3   8    1.55    0.19
   2   3  -7    5.28    0.93
  -2  -3   7    5.34    0.36
   2   3  -6   18.02    0.58
  -2  -3   6   19.27    0.72
   2   3  -6   19.19    1.53
  -2  -3   5    8.79    0.50
   2   3  -5    8.20    0.95
   2   3  -5    7.91    0.47
   2   3  -4   20.58    0.90
   2   3  -4   21.23    1.38
  -2  -3   4   21.16    0.82
   2   3  -3  140.05    2.79
  -2  -3   3  135.88    2.70
  -2  -3   2    1.45    0.25
   2   3  -2    1.32    0.22
   2   3  -1  117.99    2.48
  -2  -3   1  119.67    2.51
  -2  -3   0    0.90    0.24
   2   3   0    0.89    0.22
   2   3   1   65.44    1.74
   2   3   2  154.23    3.20
   2   3   3   47.15    1.49
   2   3   3   47.14    1.52
   2   3   4  195.84    3.81
   2   3   4  195.72    3.97
  -2  -3  -5   73.91    2.10
   2   3   5   76.49    2.00
   2   3   5   71.45    2.13
   2   3   6  168.95    3.50
  -2  -3  -6  169.82    3.74
  -2  -3  -7   12.21    0.91
   2   3   7   11.68    0.85
   2   3   7   12.40    0.83
   2   3   8   70.30    2.26
  -2  -3  -8   69.51    2.42
   2   3   8   68.12    2.25
   2   3   9   42.83    1.86
   2   3   9   46.83    2.07
   2   3   9   42.76    1.78
  -2  -3  -9   44.32    2.05
   2   3  10    0.85    0.38
   2   3  10    0.66    0.34
  -2  -3 -10   -0.06    0.41
   2   3  10    0.30    0.43
   2   3  11    4.35    0.60
   2   3  11    3.82    0.61
  -2  -3 -11    4.73    0.84
   2   3  11    4.46    0.76
   2   3  12   10.69    1.06
  -2  -3 -12    9.48    1.19
   2   3  13   19.15    1.44
  -2  -3 -13   17.69    1.67
  -2  -3 -14   -0.27    0.62
   2   3  14    0.22    0.43
  -2  -3 -15    4.43    1.00
  -2  -3 -16    0.13    0.72
   2   4 -12    9.51    1.61
   2   4 -11   34.72    2.70
   2   4 -10   -0.22    0.75
   2   4  -9   32.88    2.48
   2   4  -8   21.69    1.95
   2   4  -7   21.15    1.83
   2   4  -6   29.80    2.03
  -2  -4   6   32.00    0.89
   2   4  -5   81.42    3.26
   2   4  -5   81.97    1.97
   2   4  -5   79.37    1.80
  -2  -4   5   82.10    1.79
   2   4  -4   32.93    1.15
   2   4  -4   30.52    1.83
   2   4  -4   32.51    1.08
  -2  -4   4   31.34    1.05
  -2  -4   3    0.09    0.18
   2   4  -3    0.21    0.34
   2   4  -3    0.18    0.17
   2   4  -3    0.07    0.17
   2   4  -2   30.49    1.11
  -2  -4   2   29.59    1.11
   2   4  -2   30.08    1.17
  -2  -4   1    0.34    0.23
   2   4  -1    0.02    0.17
  -2  -4   0   73.42    2.01
   2   4   0   69.36    1.89
   2   4   1   61.38    1.82
  -2  -4  -1   66.59    1.96
   2   4   1   61.54    1.99
   2   4   2   81.15    2.37
   2   4   2   79.26    2.18
   2   4   3   34.57    1.43
   2   4   4   24.59    1.04
   2   4   4   24.66    1.21
   2   4   5    1.93    0.41
   2   4   5    1.65    0.29
   2   4   6  166.23    3.29
  -2  -4  -6  156.97    3.44
   2   4   6  157.70    3.85
   2   4   7    5.81    0.68
   2   4   7    6.42    0.81
  -2  -4  -7    5.20    0.60
   2   4   7    6.06    0.52
  -2  -4  -8   22.92    1.30
   2   4   8   25.55    1.57
   2   4   8   24.33    1.15
   2   4   8   23.30    1.37
   2   4   9    0.28    0.37
   2   4   9    0.24    0.26
  -2  -4  -9    0.38    0.33
   2   4   9   -0.65    0.56
  -2  -4 -10    0.06    0.37
   2   4  10   -0.37    0.55
   2   4  10    0.06    0.25
   2   4  11    0.54    0.33
  -2  -4 -11    0.34    0.47
   2   4  11    1.03    0.54
   2   4  12   32.50    2.02
   2   4  12   34.05    1.80
  -2  -4 -12   30.37    1.97
   2   4  13   12.05    1.27
  -2  -4 -13    8.37    1.13
   2   4  14    8.39    1.08
  -2  -4 -14    6.76    1.10
  -2  -4 -15   -1.71    0.86
   2   4  15    0.63    0.60
   2   5 -11    4.33    1.14
   2   5 -10   -0.12    0.84
   2   5  -9    2.17    0.82
   2   5  -8    9.41    1.45
   2   5  -7   36.02    2.52
   2   5  -6    4.29    0.98
   2   5  -5   23.64    0.96
   2   5  -5   24.29    0.92
   2   5  -5   22.98    1.82
   2   5  -4  155.20    3.14
   2   5  -4  150.12    3.29
   2   5  -4  151.98    4.69
   2   5  -3   52.60    1.80
   2   5  -3   53.22    1.60
   2   5  -3   51.95    2.42
   2   5  -2  112.17    2.62
   2   5  -2  114.23    3.53
   2   5  -2  117.77    2.98
   2   5  -1    2.01    0.53
   2   5  -1    1.22    0.32
   2   5  -1    1.37    0.38
   2   5   0   55.20    1.75
   2   5   0   56.23    2.03
   2   5   1   34.83    1.62
   2   5   1   35.37    1.42
   2   5   2   82.28    2.67
   2   5   2   83.69    2.42
   2   5   3    3.05    0.46
   2   5   3    3.87    0.63
   2   5   4    6.24    0.53
   2   5   4    7.97    0.77
   2   5   5  123.80    2.65
   2   5   5  115.45    3.32
   2   5   6    9.80    0.59
   2   5   6    9.58    1.02
   2   5   6    8.47    0.84
   2   5   7    8.87    0.99
   2   5   7    7.76    0.54
   2   5   8   73.31    1.98
   2   5   8   79.03    3.06
  -2  -5  -9   23.49    1.33
   2   5   9   24.11    1.13
   2   5   9   25.13    1.75
   2   5  10   51.59    2.59
  -2  -5 -10   50.14    2.11
   2   5  10   50.61    1.84
   2   5  11    2.52    0.46
   2   5  11    4.08    0.85
  -2  -5 -11    3.00    0.64
  -2  -5 -12    1.09    0.53
   2   5  12    1.18    0.62
  -2  -5 -13   19.26    1.60
   2   5  13   19.82    1.68
  -2  -5 -14    1.64    0.71
   2   5  14    2.29    0.73
   2   5  15    0.66    0.62
   2   5  16    2.07    0.77
   2   6 -10    0.93    0.75
   2   6  -9    1.18    0.84
   2   6  -8    5.33    1.22
   2   6  -7   28.64    2.35
   2   6  -6    3.06    0.85
   2   6  -5    9.80    0.61
   2   6  -5    8.65    0.61
   2   6  -5    8.24    1.24
   2   6  -4   15.56    0.84
   2   6  -4   14.37    1.46
   2   6  -4   16.44    0.97
   2   6  -3   15.08    1.01
   2   6  -3   13.91    1.34
   2   6  -3   14.57    0.85
   2   6  -2   11.56    0.78
   2   6  -2   12.88    1.19
   2   6  -2   11.89    0.96
   2   6  -1   52.60    1.79
   2   6  -1   52.28    2.32
   2   6  -1   56.11    2.20
   2   6   0  198.86    4.72
   2   6   0  201.59    4.85
   2   6   0  192.66    4.19
   2   6   1   13.73    0.98
   2   6   1   11.97    0.86
   2   6   1   12.65    1.09
   2   6   2   79.31    2.89
   2   6   2   76.71    2.46
   2   6   3   15.24    1.26
   2   6   3   17.62    1.16
   2   6   4   61.26    2.64
   2   6   4   57.40    2.25
   2   6   5   33.52    1.98
   2   6   5   32.67    1.19
   2   6   6   16.95    0.74
   2   6   6   16.49    1.42
   2   6   7    6.56    0.43
   2   6   7    6.10    0.92
   2   6   8    2.11    0.27
   2   6   8    2.21    0.64
   2   6   9    1.34    0.25
   2   6   9    1.14    0.54
   2   6  10    0.71    0.71
   2   6  10    0.63    0.22
   2   6  11    0.88    0.56
   2   6  12   20.32    1.75
  -2  -6 -12   17.20    1.29
   2   6  13    4.13    0.93
   2   6  14    1.39    0.75
   2   6  15    0.48    0.59
   2   6  16    1.08    0.72
   2   7  -8    2.03    0.99
   2   7  -7    0.26    0.74
   2   7  -6   15.62    1.77
   2   7  -5    0.39    0.21
   2   7  -5    0.00    0.64
   2   7  -4    1.30    0.70
   2   7  -4    1.76    0.38
   2   7  -4    2.32    0.47
   2   7  -3   24.06    1.17
   2   7  -3   25.44    1.42
   2   7  -3   24.71    1.89
   2   7  -2   30.45    1.64
   2   7  -2   26.69    1.87
   2   7  -2   28.37    1.32
   2   7  -1    2.20    0.42
   2   7  -1    2.16    0.52
   2   7  -1    2.59    0.66
   2   7   0   67.73    2.67
   2   7   0   65.94    2.23
   2   7   0   70.09    2.79
   2   7   1   25.18    1.48
   2   7   1   23.72    1.35
   2   7   1   26.17    1.70
   2   7   2   11.44    0.94
   2   7   2    9.08    1.05
   2   7   2   12.21    1.00
   2   7   3   -0.32    0.59
   2   7   3    0.38    0.29
   2   7   4   22.31    1.69
   2   7   4   21.73    1.04
   2   7   5   13.03    1.34
   2   7   5   13.61    0.71
   2   7   5   13.51    0.76
   2   7   6    5.37    0.93
   2   7   6    6.79    0.44
   2   7   7   15.65    1.51
   2   7   7   14.78    0.51
   2   7   8    4.20    0.98
   2   7   9   22.21    1.89
   2   7  10   37.95    2.47
   2   7  11    2.55    0.82
   2   7  12    3.67    0.99
   2   7  13    4.19    1.03
   2   7  14   -0.43    0.69
   2   7  15    3.57    1.01
   2   7  16    2.99    0.92
   2   8  -7    2.10    0.94
   2   8  -6    9.42    1.47
   2   8  -5    2.11    0.93
   2   8  -4    5.37    1.06
   2   8  -3    7.27    1.14
   2   8  -3    7.97    0.85
   2   8  -2   39.33    1.70
   2   8  -2   37.27    2.33
   2   8  -2   43.86    2.09
   2   8  -1    1.46    0.59
   2   8  -1    1.14    0.38
   2   8  -1    0.93    0.43
   2   8   0    6.72    0.93
   2   8   0    4.23    0.77
   2   8   1    1.00    0.51
   2   8   1    1.26    0.47
   2   8   2   10.58    0.97
   2   8   2    9.91    1.20
   2   8   3    3.07    0.49
   2   8   3    3.52    0.77
   2   8   4   69.63    2.16
   2   8   4   75.13    3.34
   2   8   5   77.23    2.05
   2   8   5   75.24    2.01
   2   8   5   75.93    3.44
   2   8   6    0.27    0.14
   2   8   6    0.39    0.56
   2   8   6    0.25    0.13
   2   8   7   30.70    2.23
   2   8   8    0.90    0.69
   2   8   9   17.90    1.78
   2   8  10    1.32    0.83
   2   8  11    5.98    1.14
   2   8  12   -0.03    0.69
   2   8  13    0.47    0.65
   2   8  14    4.72    1.04
   2   9  -6   -0.03    0.73
   2   9  -5    6.18    1.21
   2   9  -4   27.46    2.30
   2   9  -3    0.28    0.58
   2   9  -2   16.49    1.35
   2   9  -2   15.65    1.58
   2   9  -1   31.83    1.96
   2   9  -1   26.27    1.92
   2   9   0    2.51    0.69
   2   9   0    1.19    0.54
   2   9   1    2.45    0.58
   2   9   1    3.52    0.82
   2   9   2    5.97    1.01
   2   9   2    5.06    0.73
   2   9   3   -0.15    0.56
   2   9   3   -0.22    0.38
   2   9   4   -1.15    0.75
   2   9   4   -0.34    0.32
   2   9   5    5.67    0.50
   2   9   5    5.18    1.09
   2   9   6    1.97    0.74
   2   9   7   -0.32    0.80
   2   9   8   11.68    1.53
   2   9   9   13.26    1.59
   2   9  10    2.21    0.84
   2   9  11    8.89    1.44
   2   9  12    1.52    0.92
   2   9  13    5.31    1.23
   2  10  -4   12.47    1.69
   2  10  -3    9.28    1.37
   2  10  -2    0.36    0.55
   2  10  -1    1.05    0.64
   2  10  -1    2.24    0.70
   2  10   0    3.55    0.80
   2  10   0    4.91    0.91
   2  10   1   -0.56    0.51
   2  10   1    0.45    0.69
   2  10   2    3.81    0.70
   2  10   2    5.33    1.06
   2  10   3   24.08    2.01
   2  10   4    0.10    0.62
   2  10   5    5.76    1.19
   2  10   6    4.79    1.11
   2  10   7    1.76    0.87
   2  10   8    1.70    0.92
   2  10   9   13.20    1.74
   2  10  10    1.37    0.89
   2  10  11    1.30    0.83
   2  11   1   31.49    2.29
   2  11   2    1.14    0.74
   2  11   3    9.62    1.45
   2  11   4    1.19    0.85
   2  11   5    2.29    0.95
   2  11   6   -0.39    0.69
   2  11   7    8.10    1.39
   2  11   8    2.39    0.95
   2  12   3    2.28    0.91
   2  12   4    2.62    1.01
   2  12   5    8.51    1.44
  -3  10   5    0.09    0.77
  -3  10   4   -0.33    0.72
  -3  10   3    0.88    0.75
  -3  10   2    2.19    0.91
  -3  10   1    1.26    0.79
  -3   9   9    0.01    0.81
  -3   9   8   10.66    1.70
  -3   9   7   16.17    1.91
  -3   9   6    6.12    1.33
  -3   9   5    7.86    1.34
  -3   9   4    7.03    1.24
  -3   9   3    9.30    1.36
  -3   9   2    1.39    0.83
  -3   9   1    0.85    0.64
  -3   9   0    1.41    0.78
  -3   9  -1    0.34    0.50
  -3   9  -2    0.41    0.58
  -3   9  -3    0.52    0.62
  -3   9  -4    0.19    0.65
  -3   8  11   -0.54    0.72
  -3   8  10    2.63    1.02
  -3   8   9   -0.52    0.86
  -3   8   8   -0.28    0.73
  -3   8   7    4.88    1.11
  -3   8   6    0.24    0.66
  -3   8   5   -0.08    0.65
  -3   8   4    6.53    1.16
  -3   8   3   15.17    1.61
  -3   8   3   14.86    1.10
  -3   8   2    3.53    0.63
  -3   8   2    3.93    0.97
  -3   8   1   14.15    1.51
  -3   8   1   15.68    1.26
  -3   8   0   15.28    1.54
  -3   8   0   15.00    1.36
  -3   8  -1   22.17    1.69
  -3   8  -1   22.34    1.80
  -3   8  -2    2.33    0.80
  -3   8  -2    0.24    0.50
  -3   8  -3    0.28    0.67
  -3   8  -4    0.79    0.66
  -3   8  -5   -0.08    0.69
  -3   7  13    2.47    1.03
  -3   7  12    0.90    0.86
  -3   7  11    5.35    1.24
  -3   7  10    0.26    0.59
  -3   7   9    4.09    1.11
  -3   7   8    0.59    0.80
  -3   7   7    3.52    0.92
  -3   7   6    6.70    1.14
  -3   7   5    3.62    0.93
  -3   7   4    2.27    0.80
   3  -7  -4    1.52    0.39
  -3   7   3   39.05    2.34
  -3   7   3   40.49    1.66
  -3   7   2   15.81    1.51
  -3   7   2   15.50    1.14
  -3   7   1   16.03    1.49
   3  -7  -1   15.14    1.31
  -3   7   1   16.48    1.24
  -3   7   0    0.47    0.52
  -3   7   0   -0.37    0.47
  -3   7  -1    0.33    0.47
  -3   7  -1    1.29    0.60
  -3   7  -2    3.71    0.87
  -3   7  -2    3.08    0.74
  -3   7  -3   10.48    1.29
  -3   7  -3    8.64    0.86
  -3   7  -4   18.15    1.79
  -3   7  -5    7.61    1.27
  -3   7  -6    0.97    0.83
  -3   7  -7   -0.60    0.75
  -3   6  15    1.21    0.83
  -3   6  14    1.07    0.73
  -3   6  13   -0.49    0.79
  -3   6  12   18.74    1.93
  -3   6  11   19.44    1.96
  -3   6  10    1.57    0.84
  -3   6   9   21.55    2.00
  -3   6   8    6.39    1.14
  -3   6   7   24.75    1.99
  -3   6   6    3.65    0.82
   3  -6  -6    3.31    0.25
  -3   6   5    7.10    1.03
   3  -6  -5    7.40    0.56
  -3   6   4    5.00    0.91
   3  -6  -4    5.17    0.54
  -3   6   3   10.03    1.21
   3  -6  -3    8.92    0.81
  -3   6   3   10.91    0.87
  -3   6   2    3.03    0.53
  -3   6   2    3.26    0.74
  -3   6   1    4.94    0.88
   3  -6  -1    5.37    0.76
  -3   6   1    5.23    0.70
   3  -6   0    2.26    0.54
  -3   6   0    3.18    0.64
  -3   6   0    2.36    0.63
  -3   6  -1   79.84    3.00
  -3   6  -1   79.48    2.96
   3  -6   2   32.49    1.99
  -3   6  -2   34.26    2.04
  -3   6  -2   33.46    1.84
   3  -6   3    2.93    0.65
  -3   6  -3    3.47    0.84
  -3   6  -3    2.85    0.53
  -3   6  -4   24.04    1.25
  -3   6  -4   23.85    1.90
  -3   6  -5    9.49    1.40
  -3   6  -6   11.33    1.56
  -3   6  -7    0.73    0.67
  -3   6  -8    3.67    1.17
  -3   5  16    0.80    0.75
  -3   5  15    0.88    0.64
  -3   5  14    1.32    0.82
  -3   5  13   -0.14    0.66
  -3   5  12    3.74    0.97
  -3   5  11   18.25    1.81
   3  -5 -10    0.04    0.18
  -3   5  10    0.29    0.62
   3  -5  -9    5.74    0.44
   3  -5  -9    4.76    0.47
  -3   5   8    7.15    1.16
   3  -5  -8    6.25    0.46
   3  -5  -8    6.19    0.43
  -3   5   7   23.54    1.82
   3  -5  -7   21.10    0.81
  -3   5   6    1.14    0.64
   3  -5  -6    0.77    0.21
  -3   5   5   44.10    2.40
   3  -5  -5   48.36    1.49
  -3   5   4   80.04    3.22
   3  -5  -4   84.41    2.26
  -3   5   3   19.50    1.52
   3  -5  -3   19.07    1.09
  -3   5   3   21.37    1.14
   3  -5  -2   11.50    0.90
  -3   5   2   12.45    0.97
  -3   5   2   13.00    1.19
   3  -5  -1    4.27    0.76
  -3   5   1    4.27    0.63
  -3   5   1    3.94    0.74
  -3   5   0   10.14    1.02
   3  -5   0   10.24    0.97
  -3   5   0    9.53    0.90
   3  -5   0    9.36    1.09
   3  -5   1    1.32    0.51
   3  -5   1    1.84    0.53
  -3   5  -1    1.81    0.54
  -3   5  -1    1.64    0.53
   3  -5   2   18.13    1.39
  -3   5  -2   18.06    1.43
  -3   5  -2   18.11    1.25
   3  -5   3    3.08    0.60
  -3   5  -3    3.11    0.78
  -3   5  -3    2.80    0.48
   3  -5   4    1.44    0.44
  -3   5  -4    1.33    0.38
  -3   5  -4    1.25    0.57
  -3   5  -5   19.81    0.91
  -3   5  -5   22.12    1.88
   3  -5   5   19.79    1.24
  -3   5  -6    6.70    1.16
  -3   5  -7    3.45    1.07
  -3   5  -8   21.63    2.15
  -3   5  -9   14.53    1.83
  -3   4  15    1.93    0.82
  -3   4  14   -0.47    0.66
  -3   4  13    0.09    0.58
  -3   4  12    2.69    0.84
   3  -4 -12    3.08    0.62
  -3   4  11   22.12    1.86
   3  -4 -11   18.31    1.18
  -3   4  10    0.08    0.61
   3  -4 -10    0.05    0.31
  -3   4   9    5.21    1.02
   3  -4  -9    3.54    0.50
  -3   4   8    1.75    0.69
   3  -4  -8    2.46    0.39
  -3   4   7   69.62    3.05
   3  -4  -7   70.27    2.03
  -3   4   6   35.99    2.10
   3  -4  -6   35.36    1.32
  -3   4   5    2.05    0.58
   3  -4  -5    2.32    0.36
  -3   4   4    6.95    0.92
   3  -4  -4    6.32    0.55
   3  -4  -4    5.98    0.87
  -3   4   3    1.55    0.59
   3  -4  -3    2.05    0.37
   3  -4  -3    1.77    0.52
  -3   4   2   -0.08    0.39
   3  -4  -2    0.33    0.26
  -3   4   2    0.23    0.27
   3  -4  -2   -0.21    0.35
  -3   4   1   55.98    2.30
   3  -4  -1   58.74    2.53
   3  -4  -1   57.97    2.06
  -3   4   1   59.40    2.10
  -3   4   0  116.91    3.43
   3  -4   0  117.45    3.68
  -3   4   0  123.02    3.30
  -3   4  -1    1.20    0.47
   3  -4   1    0.57    0.40
   3  -4   1    0.06    0.31
  -3   4  -1    0.53    0.37
  -3   4  -2   28.80    1.40
   3  -4   2   29.36    1.61
   3  -4   2   29.88    1.73
  -3   4  -2   31.99    1.75
  -3   4  -2   28.19    1.51
   3  -4   3    0.57    0.28
  -3   4  -3    0.94    0.30
  -3   4  -4   14.87    0.88
  -3   4  -4   14.69    1.38
   3  -4   4   15.11    1.07
  -3   4  -5    4.44    0.43
  -3   4  -5    5.59    0.99
   3  -4   5    4.88    0.58
  -3   4  -6   23.17    0.77
   3  -4   6   24.21    1.19
  -3   4  -7    1.03    0.67
  -3   4  -8    0.02    0.63
  -3   4  -9    0.74    0.80
  -3   4 -10   -0.57    0.88
  -3   3  15    2.51    0.79
   3  -3 -14    0.87    0.55
  -3   3  14    0.36    0.56
   3  -3 -13    2.82    0.69
  -3   3  13    3.57    0.86
  -3   3  12   18.19    1.65
   3  -3 -12   16.45    1.33
   3  -3 -11   -0.23    0.45
  -3   3  11    0.17    0.48
  -3   3  10    1.50    0.61
   3  -3 -10    1.26    0.41
  -3   3   9    0.42    0.56
   3  -3  -9    0.88    0.36
  -3   3   8   21.83    1.61
   3  -3  -8   20.16    1.09
  -3   3   7   10.74    1.13
   3  -3  -7   10.48    1.10
  -3   3   6   19.17    1.43
   3  -3  -6   17.75    1.39
   3  -3  -5   34.50    1.91
   3  -3  -5   34.12    1.37
   3  -3  -4   21.25    1.45
   3  -3  -4   20.30    1.04
   3  -3  -3  307.65    6.66
   3  -3  -3  303.72    5.56
  -3   3   2   15.69    1.17
  -3   3   2   15.36    0.93
   3  -3  -2   14.18    1.15
   3  -3  -2   14.74    0.89
   3  -3  -1    4.30    0.66
   3  -3  -1    4.49    0.52
  -3   3   1    4.84    0.58
  -3   3   1    4.16    0.64
   3  -3   0  155.26    4.15
   3  -3   0  156.04    3.75
  -3   3   0  161.27    3.77
  -3   3   0  156.53    3.91
   3  -3   1   47.88    2.06
  -3   3  -1   47.43    1.93
  -3   3  -1   47.62    1.88
   3  -3   2    8.38    0.86
  -3   3  -2    8.75    0.72
  -3   3  -2    9.29    0.92
   3  -3   3    8.58    0.82
  -3   3  -3    9.29    0.73
   3  -3   3    9.14    0.95
  -3   3  -3    9.60    1.01
  -3   3  -4   12.02    0.74
   3  -3   4   12.49    0.96
  -3   3  -4   12.02    1.22
  -3   3  -5    4.47    0.43
   3  -3   5    4.24    0.56
  -3   3  -5    3.85    0.78
   3  -3   6    7.16    0.64
  -3   3  -6    7.79    1.12
  -3   3  -6    7.16    0.44
  -3   3  -7   15.16    1.56
   3  -3   7   15.42    0.83
  -3   3  -7   11.91    0.39
  -3   3  -8    0.52    0.63
  -3   3  -9   -0.55    0.69
  -3   3 -10   21.61    2.14
  -3   3 -11    0.98    0.86
   3  -2 -15    2.79    0.88
   3  -2 -14   -0.61    0.60
  -3   2  14   -0.33    0.49
   3  -2 -13   11.49    1.30
  -3   2  13   13.11    1.34
   3  -2 -12   -0.26    0.54
  -3   2  12    0.42    0.52
   3  -2 -11    0.10    0.43
  -3   2  11   -0.51    0.48
   3  -2 -10    2.79    0.61
  -3   2  10    1.81    0.66
   3  -2  -9   35.08    1.73
   3  -2  -9   35.24    2.00
  -3   2   8   94.95    3.34
   3  -2  -8   93.51    2.78
   3  -2  -8   91.75    3.21
   3  -2  -7    9.20    0.95
  -3   2   7    9.43    1.04
   3  -2  -6   21.43    1.40
   3  -2  -5   27.67    1.55
   3  -2  -4   -0.10    0.35
   3  -2  -3    4.97    0.69
   3  -2  -3    4.31    0.53
   3  -2  -2   10.88    0.93
   3  -2  -2   10.39    0.76
   3  -2  -1   87.52    2.80
   3  -2  -1   87.51    2.43
  -3   2   1   84.63    2.66
   3  -2   0   31.59    1.58
   3  -2   0   34.06    1.44
  -3   2   0   30.92    1.50
  -3   2   0   33.81    1.46
   3  -2   1   25.94    1.40
  -3   2  -1   26.81    1.25
   3  -2   1   27.30    1.34
  -3   2  -1   27.34    1.35
   3  -2   2  109.02    3.10
  -3   2  -2  111.81    2.77
  -3   2  -2  110.15    3.11
   3  -2   3   14.02    1.03
  -3   2  -3   15.47    0.85
  -3   2  -3   15.11    1.18
   3  -2   4  304.50    6.23
  -3   2  -4  323.07    5.52
   3  -2   4  326.82    6.85
  -3   2  -4  324.72    6.94
  -3   2  -5   93.50    2.13
   3  -2   5   89.36    2.69
   3  -2   5   91.94    3.23
  -3   2  -5   93.26    3.39
  -3   2  -6    1.99    0.62
  -3   2  -6    2.53    0.30
   3  -2   6    2.05    0.37
   3  -2   7   21.63    1.11
  -3   2  -7   20.51    1.76
  -3   2  -7   22.44    0.77
   3  -2   8    1.75    0.33
  -3   2  -8    0.38    0.54
   3  -2   9   21.68    0.85
  -3   2  -9   19.08    1.91
   3  -2   9   18.75    0.75
  -3   2 -10   -0.70    0.78
  -3   2 -11    8.70    1.46
  -3   2 -12    4.42    1.27
   3  -1 -16    2.16    0.86
   3  -1 -15    2.45    0.89
   3  -1 -14    9.27    1.29
  -3   1  14   13.24    1.33
   3  -1 -13    2.93    0.83
  -3   1  13    3.30    0.72
  -3   1  12    6.49    0.92
   3  -1 -12    4.77    0.90
   3  -1 -11    5.48    0.89
   3  -1 -11    4.95    0.78
  -3   1  11    7.35    0.92
   3  -1 -10    8.20    1.00
   3  -1 -10    6.63    0.82
   3  -1  -9    7.12    0.84
   3  -1  -9    6.79    0.89
  -3   1   9    8.49    0.96
   3  -1  -8   12.68    1.04
   3  -1  -8   10.78    0.97
   3  -1  -7    4.85    0.66
   3  -1  -6   61.27    2.26
   3  -1  -5   35.99    1.68
   3  -1  -4  115.64    3.22
  -3   1   4  119.21    3.33
   3  -1  -3    0.80    0.33
   3  -1  -2   90.02    2.73
   3  -1  -2   91.07    2.39
   3  -1  -1  117.73    3.18
   3  -1  -1  119.63    2.92
   3  -1   0    0.62    0.26
  -3   1   0    0.86    0.34
  -3   1   0    0.82    0.27
   3  -1   0    1.02    0.37
  -3   1  -1   21.44    1.08
  -3   1  -1   21.74    1.15
   3  -1   1   20.57    1.17
  -3   1  -2   64.61    1.86
  -3   1  -2   65.19    2.18
   3  -1   2   63.22    2.19
  -3   1  -3    0.03    0.19
  -3   1  -3    0.04    0.28
   3  -1   3   -0.44    0.29
   3  -1   3    0.34    0.26
  -3   1  -4   26.47    1.04
   3  -1   4   25.38    1.19
  -3   1  -4   25.85    1.52
  -3   1  -5    9.80    0.60
   3  -1   5    8.82    0.69
  -3   1  -5   10.29    1.05
   3  -1   6   13.45    0.83
  -3   1  -6   14.60    1.35
   3  -1   6   14.66    1.23
  -3   1  -6   14.98    0.72
  -3   1  -7    5.40    0.44
  -3   1  -7    5.44    0.93
   3  -1   7    4.09    0.47
   3  -1   8   89.52    2.31
  -3   1  -8   85.25    3.59
   3  -1   9   15.23    0.82
  -3   1  -9   14.54    1.58
   3  -1   9   14.34    0.78
   3  -1   9   15.25    0.99
   3  -1  10    2.16    0.32
  -3   1 -10    3.05    0.94
  -3   1 -11   25.80    2.24
  -3   1 -12   15.84    1.89
  -3   1 -13    4.22    1.14
   3   0 -16    5.09    1.30
   3   0 -15    5.12    1.19
   3   0 -14    1.08    0.76
   3   0 -13    5.44    1.10
  -3   0  13    5.15    0.80
  -3   0  12   -0.18    0.46
   3   0 -12   -0.69    0.69
   3   0 -11   -0.33    0.58
  -3   0  11   -0.40    0.50
   3   0 -11   -0.52    0.41
  -3   0  10   25.19    1.59
   3   0 -10   22.96    1.73
   3   0 -10   20.34    1.34
   3   0  -9   38.80    1.79
   3   0  -9   41.60    2.18
   3   0  -8   74.30    2.79
   3   0  -8   74.22    2.45
   3   0  -7   16.33    1.06
   3   0  -6   44.51    1.77
  -3   0   6   44.19    1.91
   3   0  -5   24.53    1.27
  -3   0   5   23.73    1.32
  -3   0   5   22.49    1.32
   3   0  -4  195.09    4.35
  -3   0   4  202.05    4.49
   3   0  -3  159.33    3.73
   3   0  -2    4.03    0.53
   3   0  -1    6.51    0.63
   3   0   0    1.89    0.34
  -3   0  -1    0.85    0.24
   3   0   1    1.04    0.29
  -3   0  -1    0.99    0.35
  -3   0  -2   45.89    1.46
   3   0   2   48.19    1.58
  -3   0  -2   48.44    1.79
  -3   0  -3  142.20    2.97
   3   0   3  143.06    3.12
  -3   0  -3  140.01    3.49
  -3   0  -4   66.58    1.79
   3   0   4   68.57    1.92
  -3   0  -4   64.77    2.32
   3   0   5   33.20    1.29
  -3   0  -5   35.47    1.22
  -3   0  -5   36.19    1.80
   3   0   6    9.55    0.68
   3   0   6   10.26    0.98
  -3   0  -6   10.06    1.07
  -3   0  -6   10.36    0.65
  -3   0  -7    0.02    0.20
   3   0   7    0.49    0.36
   3   0   7    0.26    0.22
  -3   0  -7    0.38    0.48
   3   0   8    0.73    0.25
  -3   0  -8    1.21    0.57
   3   0   9   79.68    2.20
  -3   0  -9   81.45    3.51
   3   0   9   82.34    2.28
   3   0  10    0.22    0.25
   3   0  10    0.95    0.33
  -3   0 -10   -0.16    0.59
  -3   0 -11    1.33    0.73
   3   0  11    0.06    0.28
  -3   0 -12    1.44    0.89
  -3   0 -13    0.29    0.75
  -3   0 -14    2.61    1.01
   3   1 -15    0.91    0.87
   3   1 -14    7.70    1.32
   3   1 -13    1.84    0.84
  -3  -1  12    5.15    0.76
   3   1 -12    2.17    0.80
   3   1 -11   13.37    1.52
   3   1 -10    1.14    0.61
   3   1 -10   -0.63    0.38
   3   1  -9   33.18    2.08
   3   1  -9   34.07    1.50
   3   1  -8   16.64    1.41
   3   1  -8   16.96    1.02
   3   1  -7    4.96    0.80
   3   1  -7    4.69    0.53
   3   1  -6    0.53    0.29
  -3  -1   6   -0.17    0.35
   3   1  -5   41.20    1.59
  -3  -1   5   39.82    1.69
  -3  -1   4  122.10    3.15
   3   1  -4  121.71    3.03
  -3  -1   3   18.35    1.03
   3   1  -3   16.47    0.96
   3   1  -2  219.58    4.43
   3   1  -1  391.55    6.78
   3   1   0  525.77    8.50
   3   1   1  295.61    5.27
   3   1   2   15.26    0.82
  -3  -1  -2   15.17    0.97
  -3  -1  -2   14.38    0.78
  -3  -1  -3  202.47    3.85
   3   1   3  202.37    3.90
  -3  -1  -3  196.34    4.36
   3   1   4   39.93    1.40
   3   1   4   39.11    1.64
  -3  -1  -4   38.90    1.68
  -3  -1  -4   40.66    1.37
   3   1   5    9.45    0.68
   3   1   5    8.65    0.80
  -3  -1  -5    9.13    0.86
  -3  -1  -5    8.58    0.62
   3   1   6    6.18    0.58
   3   1   6    5.60    0.69
  -3  -1  -6    5.65    0.78
  -3  -1  -6    5.89    0.54
   3   1   7   42.18    1.55
   3   1   7   47.17    2.09
  -3  -1  -7   44.73    2.16
  -3  -1  -7   45.57    1.57
   3   1   8   93.38    2.53
  -3  -1  -8   98.25    3.51
   3   1   8  101.16    3.31
   3   1   9    2.48    0.42
  -3  -1  -9    2.25    0.67
   3   1  10    0.39    0.27
  -3  -1 -10    1.08    0.68
   3   1  11    0.91    0.34
  -3  -1 -11    0.89    0.70
  -3  -1 -12    5.66    1.16
  -3  -1 -13   27.01    2.33
  -3  -1 -14    0.61    0.74
  -3  -1 -15    0.30    0.85
   3   2 -14    0.18    0.77
   3   2 -13   -0.20    0.82
   3   2 -12    5.09    1.15
   3   2 -11    0.48    0.60
   3   2 -10   27.87    2.18
   3   2 -10   28.85    1.19
   3   2  -9    0.99    0.26
  -3  -2   9    0.54    0.30
   3   2  -9    1.34    0.75
  -3  -2   8   -0.09    0.33
   3   2  -8    0.47    0.24
   3   2  -7    2.23    0.35
  -3  -2   7    1.66    0.38
   3   2  -7    2.42    0.68
   3   2  -6    0.90    0.28
  -3  -2   6    1.04    0.30
   3   2  -5   75.25    2.15
  -3  -2   5   73.10    2.19
  -3  -2   4  105.06    2.63
   3   2  -4  100.14    2.63
  -3  -2   3   52.12    1.68
   3   2  -3   48.63    1.69
  -3  -2   2   28.86    1.17
   3   2  -2   30.68    1.25
   3   2  -1    5.24    0.50
   3   2   0   26.64    1.08
   3   2   1  245.87    4.55
   3   2   2  109.28    2.56
   3   2   2  106.99    2.82
   3   2   3  285.46    5.14
   3   2   3  275.44    5.50
  -3  -2  -3  276.46    5.43
  -3  -2  -3  282.81    5.08
   3   2   4   19.48    0.99
   3   2   4   19.12    1.09
  -3  -2  -4   21.34    1.16
  -3  -2  -4   19.97    0.97
   3   2   5   37.49    1.44
   3   2   5   35.40    1.56
  -3  -2  -5   37.64    1.65
  -3  -2  -5   36.86    1.40
  -3  -2  -6    0.90    0.31
   3   2   6    1.17    0.32
   3   2   6    0.96    0.37
  -3  -2  -6    0.80    0.41
   3   2   7   97.45    2.65
   3   2   7   97.16    2.97
  -3  -2  -7   98.03    3.13
  -3  -2  -7   97.53    2.68
   3   2   8   87.24    2.54
   3   2   8   91.48    3.00
  -3  -2  -8   92.18    3.21
   3   2   9   16.78    1.05
   3   2   9   16.51    1.28
  -3  -2  -9   17.42    1.46
   3   2  10    1.50    0.40
  -3  -2 -10    1.53    0.62
   3   2  10    1.24    0.41
   3   2  11    5.33    0.72
  -3  -2 -11    3.16    0.84
   3   2  11    4.87    0.64
   3   2  12   20.26    1.25
   3   2  12   22.48    1.46
   3   2  13   -0.04    0.40
  -3  -2 -13    0.73    0.70
  -3  -2 -14   15.85    1.83
  -3  -2 -15    0.59    0.81
  -3  -2 -16    0.87    0.81
   3   3 -13    4.90    1.26
   3   3 -12   23.46    2.25
   3   3 -11    2.71    0.97
  -3  -3  10    4.65    0.44
   3   3 -10    4.70    1.09
  -3  -3   9   31.56    1.21
   3   3  -9   29.85    2.25
  -3  -3   8   33.09    1.28
   3   3  -8   27.64    2.09
   3   3  -8   29.13    1.02
  -3  -3   7   78.68    2.12
   3   3  -7   73.05    1.89
   3   3  -7   77.11    3.29
  -3  -3   6   44.40    1.51
   3   3  -6   44.98    2.32
   3   3  -6   42.54    1.45
  -3  -3   5   58.78    1.78
   3   3  -5   59.17    1.81
  -3  -3   4   44.82    1.51
   3   3  -4   42.13    1.59
  -3  -3   3   18.78    0.94
   3   3  -3   19.83    1.01
  -3  -3   2   11.70    0.74
   3   3  -2   11.98    0.76
  -3  -3   1   78.16    2.07
   3   3  -1   72.96    2.02
   3   3   0  446.88    7.45
  -3  -3   0  452.50    7.50
   3   3   1  130.10    2.93
   3   3   2    3.66    0.43
   3   3   3   36.94    1.40
   3   3   3   37.25    1.54
   3   3   4  145.76    3.51
  -3  -3  -4  150.29    3.43
   3   3   4  151.66    3.41
   3   3   5  165.68    3.88
  -3  -3  -5  169.72    3.98
  -3  -3  -5  173.50    3.84
   3   3   5  171.20    3.80
  -3  -3  -6   -0.16    0.30
   3   3   6    0.08    0.21
  -3  -3  -6    0.66    0.33
   3   3   6    0.16    0.22
   3   3   7   34.77    1.58
  -3  -3  -7   32.97    1.71
   3   3   7   33.67    1.52
   3   3   8   24.42    1.40
  -3  -3  -8   22.65    1.48
   3   3   8   25.16    1.41
   3   3   8   23.12    1.29
   3   3   9    1.44    0.48
   3   3   9    1.60    0.46
   3   3   9    1.25    0.42
  -3  -3  -9    1.64    0.55
  -3  -3 -10    4.02    0.77
   3   3  10    2.86    0.54
   3   3  10    3.84    0.62
   3   3  10    3.88    0.68
  -3  -3 -11   16.50    1.51
   3   3  11   17.82    1.37
   3   3  12   14.09    1.24
  -3  -3 -12   11.90    1.39
  -3  -3 -13   17.92    1.77
   3   3  13   20.88    1.56
   3   3  14    0.51    0.48
  -3  -3 -14   -1.30    0.88
  -3  -3 -15    4.16    1.04
  -3  -3 -16    2.36    1.02
   3   4 -12    7.93    1.55
   3   4 -11    4.54    1.17
   3   4 -10    2.28    0.87
   3   4  -9    1.75    0.87
   3   4  -8   10.28    1.39
  -3  -4   8   10.14    0.57
   3   4  -7    9.68    0.52
   3   4  -7    8.91    1.26
  -3  -4   7   10.54    0.63
   3   4  -6   29.29    2.04
  -3  -4   6   32.09    1.18
   3   4  -6   30.40    1.15
   3   4  -5  259.01    6.37
   3   4  -5  250.85    5.00
  -3  -4   5  259.65    4.72
   3   4  -4   86.84    2.37
  -3  -4   4   83.40    2.20
   3   4  -3   37.90    1.45
  -3  -4   3   39.27    1.43
   3   4  -2    3.45    0.43
  -3  -4   2    3.21    0.44
   3   4  -1  184.19    3.86
  -3  -4   1  192.69    3.91
   3   4   0  127.07    2.96
  -3  -4   0  129.22    3.03
   3   4   1   51.33    1.71
   3   4   2   32.02    1.35
   3   4   3   10.89    0.81
   3   4   3   11.32    0.81
   3   4   4   37.61    1.57
   3   4   4   39.19    1.60
   3   4   5   25.43    1.26
  -3  -4  -5   24.04    1.34
   3   4   5   25.66    1.32
   3   4   6   29.54    1.35
   3   4   6   31.76    1.61
  -3  -4  -6   29.40    1.54
   3   4   6   29.49    1.46
   3   4   7   67.57    2.17
  -3  -4  -7   60.48    2.32
   3   4   7   65.32    2.42
   3   4   7   64.53    2.29
   3   4   8   64.61    2.19
   3   4   8   66.31    2.53
  -3  -4  -8   64.17    2.44
   3   4   8   59.38    2.28
   3   4   9   27.12    1.45
   3   4   9   29.21    1.70
  -3  -4  -9   26.55    1.63
   3   4  10    0.69    0.47
   3   4  10    1.18    0.36
  -3  -4 -10    1.12    0.51
   3   4  11    6.90    0.91
   3   4  11    7.29    0.85
  -3  -4 -11    6.84    1.00
  -3  -4 -12   32.94    2.16
   3   4  12   31.63    1.98
   3   4  13    2.15    0.63
  -3  -4 -13    1.93    0.74
   3   4  14    1.38    0.61
  -3  -4 -14   -0.16    0.65
   3   4  15    1.66    0.58
  -3  -4 -15    0.96    0.75
  -3  -4 -16   -0.44    0.80
   3   5 -11    1.61    0.86
   3   5 -10   -0.67    0.93
   3   5  -9    0.99    0.87
   3   5  -8   33.70    2.59
   3   5  -7   21.35    2.01
  -3  -5   7   24.09    0.90
   3   5  -6    0.58    0.22
  -3  -5   6    1.10    0.28
   3   5  -6    0.65    0.22
   3   5  -6    1.32    0.71
   3   5  -5   20.85    1.11
   3   5  -5   22.94    1.85
   3   5  -5   22.48    1.00
  -3  -5   5   23.16    1.03
   3   5  -4    6.45    0.62
  -3  -5   4    5.48    0.54
   3   5  -4    5.91    0.96
   3   5  -4    4.84    0.53
   3   5  -3   29.75    1.29
   3   5  -3   28.88    1.83
  -3  -5   3   28.64    1.26
   3   5  -2    9.50    0.71
  -3  -5   2    9.91    0.77
   3   5  -1  232.07    4.62
   3   5   0    2.65    0.42
   3   5   1   52.71    1.83
   3   5   2   76.62    2.34
   3   5   3  106.49    3.14
   3   5   3  104.49    2.91
   3   5   4  151.89    3.58
   3   5   4  146.44    3.73
   3   5   5   50.60    1.83
   3   5   5   47.07    1.94
   3   5   6    1.53    0.54
   3   5   6    1.08    0.32
   3   5   6    0.56    0.31
   3   5   7    2.91    0.63
   3   5   7    4.02    0.49
   3   5   8    7.00    0.66
   3   5   8    6.53    0.92
   3   5   9    3.02    0.72
   3   5   9    2.97    0.47
  -3  -5  -9    3.26    0.65
   3   5  10   27.94    1.44
  -3  -5 -10   29.03    1.78
   3   5  10   31.52    2.00
   3   5  11   19.31    1.28
  -3  -5 -11   21.04    1.59
   3   5  11   18.76    1.60
  -3  -5 -12   16.86    1.51
   3   5  12   16.88    1.56
   3   5  13   -0.21    0.57
  -3  -5 -13   -0.69    0.63
   3   5  14   -0.09    0.57
  -3  -5 -14    0.22    0.57
   3   5  15   -0.01    0.54
   3   6 -10    0.14    0.72
   3   6  -9    3.91    1.25
   3   6  -8   14.16    1.85
   3   6  -7   19.37    2.02
   3   6  -6    2.37    0.32
   3   6  -6    1.70    0.78
   3   6  -5    3.37    0.89
   3   6  -5    3.51    0.48
   3   6  -5    3.96    0.54
   3   6  -4   54.70    1.92
   3   6  -4   52.68    2.80
   3   6  -4   55.77    2.01
   3   6  -3   32.56    1.40
   3   6  -3   30.33    1.98
   3   6  -3   31.96    1.52
   3   6  -2    0.89    0.37
   3   6  -2    0.96    0.34
   3   6  -1  110.52    2.91
   3   6  -1  107.42    3.11
   3   6   0   89.28    2.58
   3   6   0   86.36    2.79
   3   6   1   56.61    2.26
  -3  -6  -1   63.00    2.32
   3   6   1   56.70    2.05
   3   6   2   11.80    1.04
   3   6   2   10.91    0.88
   3   6   3   55.17    2.35
   3   6   3   57.65    2.16
   3   6   4   36.77    1.95
   3   6   4   35.18    1.72
   3   6   5   16.79    1.04
   3   6   5   16.62    1.33
   3   6   6   76.79    2.27
   3   6   6   80.15    3.08
   3   6   7   20.05    1.03
   3   6   7   19.01    1.54
   3   6   8   29.54    1.98
   3   6   8   29.16    1.26
   3   6   9   18.07    1.00
   3   6   9   18.96    1.60
   3   6  10   19.78    1.69
   3   6  10   20.36    1.12
   3   6  11   32.79    2.23
   3   6  12    4.49    0.88
  -3  -6 -12    4.97    0.88
   3   6  13   -0.62    0.65
  -3  -6 -13    0.29    0.48
   3   6  14    1.60    0.80
   3   6  15    3.17    0.97
   3   6  16    3.84    0.96
   3   7  -8    1.98    0.94
   3   7  -7    0.28    0.80
   3   7  -6    9.37    1.46
   3   7  -5    9.42    0.77
   3   7  -5    6.58    1.14
   3   7  -4   10.71    0.84
   3   7  -4   11.22    0.95
   3   7  -4    9.44    1.27
   3   7  -3   12.46    0.91
   3   7  -3   12.31    1.05
   3   7  -3   10.76    1.31
   3   7  -2    2.21    0.52
   3   7  -2    1.50    0.37
   3   7  -2    1.46    0.60
   3   7  -1   12.59    0.93
   3   7  -1   13.35    1.26
   3   7  -1   12.43    1.12
   3   7   0    0.63    0.46
   3   7   0    0.70    0.36
   3   7   0    0.72    0.48
   3   7   1   40.55    2.13
   3   7   1   39.78    1.76
   3   7   2    1.18    0.51
   3   7   3   94.37    3.47
   3   7   4  150.92    4.64
   3   7   5    0.24    0.27
   3   7   5   -0.07    0.49
   3   7   6   73.31    2.22
   3   7   6   74.67    3.23
   3   7   7   -0.37    0.55
   3   7   7    0.28    0.19
   3   7   8   36.08    1.30
   3   7   8   35.60    2.30
   3   7   9    3.95    0.43
   3   7   9    1.92    0.70
   3   7  10   27.03    2.12
   3   7  11    0.73    0.64
   3   7  12    0.20    0.70
   3   7  13    0.02    0.67
   3   7  14    5.40    1.13
   3   7  15    2.06    0.76
   3   7  16    1.70    0.80
   3   8  -7    2.78    1.05
   3   8  -6   -0.62    0.83
   3   8  -5   21.35    2.07
   3   8  -4    1.82    0.74
   3   8  -4    1.70    0.47
   3   8  -3    8.81    1.27
   3   8  -3   10.67    1.05
   3   8  -2   54.37    2.09
   3   8  -2   48.78    2.73
   3   8  -2   51.51    2.40
   3   8  -1   12.23    1.22
   3   8  -1   10.71    1.27
   3   8   0   22.77    1.64
   3   8   0   24.06    1.71
   3   8   1    3.77    0.71
   3   8   1    3.57    0.74
   3   8   2    0.20    0.37
   3   8   2    0.11    0.53
   3   8   3   20.02    1.27
   3   8   3   18.63    1.63
   3   8   4    0.07    0.47
   3   8   5    4.26    0.56
   3   8   5    4.01    0.91
   3   8   6    2.91    0.46
   3   8   6    2.68    0.71
   3   8   7   36.10    1.29
   3   8   7   32.64    2.34
   3   8   8   22.34    1.97
   3   8   9    0.84    0.78
   3   8  10   28.41    2.26
   3   8  11   10.92    1.50
   3   8  12    7.47    1.24
   3   8  13    5.48    1.21
   3   8  14    5.51    1.20
   3   9  -6    0.84    0.85
   3   9  -5    6.12    1.25
   3   9  -4   27.76    2.35
   3   9  -3   -0.32    0.69
   3   9  -2    3.85    0.78
   3   9  -2    4.34    0.96
   3   9  -1    2.17    0.52
   3   9  -1    1.91    0.66
   3   9   0   -0.36    0.64
   3   9   0   -0.40    0.55
   3   9   1    7.99    1.11
   3   9   1    7.26    1.00
   3   9   2   50.59    2.79
   3   9   2   48.26    2.29
   3   9   3   -0.04    0.70
   3   9   3    1.64    0.48
   3   9   4    6.94    0.76
   3   9   4    6.07    1.00
   3   9   5    0.61    0.31
   3   9   5   -0.08    0.72
   3   9   6    7.06    0.59
   3   9   6    7.06    1.23
   3   9   7   14.97    1.68
   3   9   8    9.72    1.36
   3   9   9    1.15    0.65
   3   9  10    3.61    0.98
   3   9  11   -0.11    0.83
   3   9  12    4.75    1.18
   3   9  13   -0.04    0.73
   3  10  -4    2.91    0.99
   3  10  -3    3.52    0.92
   3  10  -2    7.52    1.21
   3  10  -1   16.85    1.65
   3  10  -1   19.64    1.65
   3  10   0   39.63    2.42
   3  10   0   37.36    2.35
   3  10   1    0.32    0.57
   3  10   1    1.13    0.56
   3  10   2   26.28    1.76
   3  10   2   27.53    2.15
   3  10   3   18.08    1.36
   3  10   3   20.60    1.92
   3  10   4    0.56    0.74
   3  10   5    1.35    0.66
   3  10   6    4.12    1.02
   3  10   7    0.33    0.67
   3  10   8    1.42    0.80
   3  10   9    3.94    1.14
   3  10  10   -1.80    0.96
   3  10  11    1.92    1.02
   3  11  -3    0.38    0.69
   3  11  -2    0.53    0.58
   3  11  -1    0.77    0.57
   3  11   1    0.35    0.61
   3  11   2    5.51    1.11
   3  11   3    3.05    0.88
   3  11   4   16.44    1.88
   3  11   5    5.10    1.21
   3  11   6   19.77    2.08
   3  11   7   23.80    2.35
   3  11   8    0.06    0.78
   3  12   2    1.81    0.86
   3  12   3    1.23    0.84
   3  12   4    2.46    0.94
   3  12   5    1.01    0.75
  -4  10   2    0.43    0.78
  -4   9   6    1.98    0.97
  -4   9   5   -0.37    0.72
  -4   9   4    4.85    1.24
  -4   9   3    1.12    0.84
  -4   9   2    6.40    1.18
  -4   9   1   16.05    1.75
  -4   9   0    7.51    1.22
  -4   8   9   -1.10    0.88
  -4   8   8   -0.90    0.90
  -4   8   7    0.76    0.73
  -4   8   6    3.02    1.09
  -4   8   5   -0.30    0.61
  -4   8   4   21.70    2.06
  -4   8   3    5.22    1.06
  -4   8   2    4.00    1.00
  -4   8   1    1.82    0.64
  -4   8   1    2.18    0.74
  -4   8   0   -0.85    0.59
  -4   8   0    0.88    0.62
  -4   8  -1    3.62    0.91
  -4   8  -1    1.67    0.70
  -4   8  -2    9.38    1.34
  -4   8  -3    6.15    1.12
  -4   8  -4    2.61    0.96
  -4   7  11   -1.71    1.03
  -4   7  10    2.86    0.96
  -4   7   9    4.60    1.10
  -4   7   8    0.69    0.68
  -4   7   7    0.64    0.75
  -4   7   6    3.73    0.96
  -4   7   5    2.62    0.88
  -4   7   4    0.91    0.72
  -4   7   3    2.74    0.82
  -4   7   2    6.91    0.87
  -4   7   2    7.02    1.17
  -4   7   1    2.67    0.67
  -4   7   1    2.53    0.74
  -4   7   0   15.76    1.40
  -4   7   0   16.35    1.58
  -4   7  -1   24.65    1.69
  -4   7  -1   23.71    1.78
  -4   7  -1   21.51    1.73
  -4   7  -2    7.09    1.10
  -4   7  -2    7.52    0.93
  -4   7  -3   23.45    1.98
  -4   7  -4    7.50    1.28
  -4   7  -5    4.69    1.13
  -4   7  -6    3.16    1.13
  -4   6  13    3.18    1.03
  -4   6  12    5.40    1.27
  -4   6  11    0.22    0.68
  -4   6  10    1.86    0.93
  -4   6   9    0.61    0.69
  -4   6   8    7.57    1.32
  -4   6   7   -0.62    0.73
  -4   6   6   14.48    1.62
  -4   6   5   41.07    2.58
   4  -6  -5   40.57    1.66
   4  -6  -4    2.09    0.44
  -4   6   4    3.38    0.91
  -4   6   3    3.99    0.85
   4  -6  -2    1.79    0.50
  -4   6   2    2.75    0.57
  -4   6   2    2.25    0.65
  -4   6   1    6.28    0.83
  -4   6   1    6.24    0.95
   4  -6  -1    5.69    0.83
  -4   6   0    0.47    0.44
  -4   6   0    0.21    0.46
  -4   6  -1    4.45    0.82
  -4   6  -1    4.23    0.74
  -4   6  -1    4.49    0.79
  -4   6  -2   -0.49    0.57
  -4   6  -2    0.03    0.37
  -4   6  -3    0.84    0.63
  -4   6  -3    1.19    0.47
  -4   6  -4    8.30    1.25
  -4   6  -5   14.07    1.64
  -4   6  -6    1.77    0.92
  -4   6  -7   19.33    2.12
  -4   5  15   -0.12    0.71
  -4   5  14    0.61    0.64
  -4   5  13    0.47    0.75
  -4   5  12    4.76    1.12
  -4   5  11    3.47    0.99
  -4   5  10    0.91    0.79
  -4   5   9    9.99    1.38
   4  -5  -9    8.93    0.69
  -4   5   8   24.76    2.04
   4  -5  -8   23.18    1.16
  -4   5   7   13.31    1.49
   4  -5  -7   14.71    0.91
  -4   5   6   -0.43    0.60
   4  -5  -6   -0.23    0.26
  -4   5   5   24.32    1.92
   4  -5  -5   24.29    1.25
   4  -5  -4    8.03    0.77
  -4   5   4    7.65    1.10
  -4   5   3    0.54    0.57
  -4   5   2    4.75    0.70
  -4   5   2    3.11    0.76
  -4   5   1   33.02    1.81
   4  -5  -1   36.53    1.90
  -4   5   1   33.26    2.00
   4  -5   0   -0.14    0.36
  -4   5   0   -0.12    0.39
  -4   5   0    0.03    0.43
  -4   5  -1    3.10    0.73
  -4   5  -1    2.78    0.59
  -4   5  -1    3.29    0.68
  -4   5  -2   25.69    1.52
   4  -5   2   24.70    1.78
  -4   5  -2   27.02    1.81
  -4   5  -3    1.83    0.68
  -4   5  -3    1.65    0.47
   4  -5   3    1.01    0.44
  -4   5  -4    0.72    0.65
  -4   5  -4    0.67    0.41
   4  -5   4    0.76    0.45
  -4   5  -5   17.72    1.01
  -4   5  -5   18.54    1.81
  -4   5  -6    0.99    0.78
  -4   5  -7    2.21    1.03
  -4   5  -8    1.56    0.92
  -4   4  15    0.17    0.70
  -4   4  14    3.37    0.96
  -4   4  13   11.46    1.52
  -4   4  12    1.18    0.77
   4  -4 -11   -0.17    0.39
  -4   4  11    0.31    0.72
   4  -4 -10    0.27    0.32
  -4   4  10   -0.28    0.75
   4  -4  -9    3.14    0.54
  -4   4   9    2.06    0.81
   4  -4  -8    8.96    0.82
  -4   4   8   11.42    1.35
   4  -4  -7   12.80    0.97
  -4   4   7   14.49    1.47
  -4   4   6   21.59    1.74
   4  -4  -6   19.70    1.18
  -4   4   5   58.61    2.79
   4  -4  -5   60.07    2.13
  -4   4   4   24.17    1.74
   4  -4  -4   23.71    1.28
  -4   4   3   65.89    2.82
   4  -4  -3   68.75    2.34
  -4   4   2   40.25    1.81
  -4   4   2   36.85    2.04
   4  -4  -1  158.79    4.80
  -4   4   1  160.11    4.12
  -4   4   1  147.64    4.32
   4  -4   0   98.52    3.60
   4  -4   0   95.05    3.15
  -4   4   0   97.22    3.16
  -4   4   0   91.52    3.23
   4  -4   1   10.01    1.12
   4  -4   1   11.85    1.11
  -4   4  -1   11.13    1.11
  -4   4  -1    9.97    0.93
   4  -4   2    1.32    0.48
  -4   4  -2    1.40    0.55
  -4   4  -2    2.16    0.48
   4  -4   3    0.18    0.38
  -4   4  -3    0.51    0.55
  -4   4  -3    0.47    0.38
   4  -4   4    5.02    0.76
  -4   4  -4    5.70    0.65
  -4   4  -4    4.85    0.94
  -4   4  -5    1.40    0.37
   4  -4   5    1.50    0.46
  -4   4  -5    1.87    0.77
  -4   4  -6   19.73    0.94
  -4   4  -6   17.59    1.76
  -4   4  -7    0.26    0.63
  -4   4  -8   -0.39    0.77
  -4   4  -9    3.81    1.17
  -4   4 -10    1.26    0.87
  -4   3  15    0.02    0.55
  -4   3  14   11.36    1.39
   4  -3 -13    1.02    0.57
  -4   3  13    1.77    0.80
   4  -3 -12   -1.13    0.57
  -4   3  12    0.48    0.54
   4  -3 -11    7.64    0.94
  -4   3  11    8.43    1.25
   4  -3 -10    7.83    0.86
  -4   3  10    9.96    1.30
  -4   3   9   36.24    2.28
  -4   3   8    3.78    0.84
  -4   3   7    2.77    0.77
  -4   3   6   18.11    1.53
   4  -3  -6   15.34    1.09
   4  -3  -5    0.75    0.35
  -4   3   5    0.59    0.55
   4  -3  -4    7.28    0.73
   4  -3  -4    6.77    0.94
  -4   3   4    7.70    0.96
   4  -3  -3   59.86    2.70
   4  -3  -3   58.93    2.11
  -4   3   3   56.23    2.50
   4  -3  -2    0.76    0.43
  -4   3   2    0.65    0.35
   4  -3  -2    0.53    0.33
   4  -3  -1   69.97    2.86
  -4   3   1   65.92    2.42
  -4   3   1   62.11    2.51
   4  -3   0    9.31    1.03
  -4   3   0    8.94    0.89
  -4   3   0   10.30    0.96
  -4   3   0    9.34    0.96
   4  -3   1   43.45    2.18
  -4   3  -1   41.45    1.84
   4  -3   1   42.29    2.00
  -4   3  -1   42.52    2.00
   4  -3   2   36.29    2.01
  -4   3  -2   37.59    1.71
   4  -3   2   38.51    1.95
  -4   3  -2   37.53    1.95
  -4   3  -3  174.60    4.03
  -4   3  -3  181.33    4.90
  -4   3  -4  104.82    2.80
   4  -3   4  102.71    3.39
  -4   3  -4  109.84    3.84
   4  -3   5    2.35    0.57
  -4   3  -5    3.62    0.49
  -4   3  -5    2.50    0.78
  -4   3  -6   33.17    1.27
   4  -3   6   32.53    1.69
  -4   3  -6   33.29    2.30
   4  -3   7   19.58    1.23
  -4   3  -7   19.89    1.91
  -4   3  -7   21.89    0.91
  -4   3  -8    7.62    1.31
  -4   3  -9   -0.73    0.92
  -4   3 -10   10.21    1.62
  -4   3 -11    1.56    0.91
  -4   2  15    2.86    0.91
   4  -2 -14    2.14    0.78
  -4   2  14    3.24    0.82
   4  -2 -13    8.70    1.18
  -4   2  13   11.68    1.33
   4  -2 -12    2.49    0.71
  -4   2  12    5.46    0.98
   4  -2 -11    1.70    0.59
  -4   2  11    2.13    0.71
  -4   2  10    5.13    0.91
   4  -2 -10    4.89    0.81
  -4   2   9   19.68    1.65
  -4   2   8   33.28    2.04
  -4   2   7   34.69    2.03
   4  -2  -6    1.26    0.54
  -4   2   6    2.02    0.66
   4  -2  -5   18.34    1.41
  -4   2   5   17.44    1.42
   4  -2  -4   -0.02    0.32
   4  -2  -4    0.11    0.23
   4  -2  -3    9.14    0.98
   4  -2  -3    6.90    0.72
   4  -2  -2  272.52    6.24
   4  -2  -2  272.79    5.62
   4  -2  -1   68.37    2.66
  -4   2   1   62.37    2.32
   4  -2   0    6.87    0.85
  -4   2   0    7.80    0.81
  -4   2   0    8.24    0.80
   4  -2   1   49.37    2.24
  -4   2  -1   50.59    1.98
  -4   2  -1   52.86    2.17
   4  -2   2    0.58    0.34
  -4   2  -2    0.62    0.35
  -4   2  -2   -0.22    0.39
   4  -2   2    0.78    0.42
   4  -2   3   55.28    2.36
  -4   2  -3   54.50    1.93
   4  -2   3   54.39    2.33
  -4   2  -3   54.27    2.39
   4  -2   4   52.38    2.27
  -4   2  -4   47.35    1.71
  -4   2  -4   50.88    2.42
  -4   2  -5    0.13    0.25
  -4   2  -5    0.21    0.43
   4  -2   5    0.40    0.37
  -4   2  -6   40.37    1.44
   4  -2   6   37.24    1.87
  -4   2  -6   38.07    2.36
   4  -2   7   59.22    2.34
  -4   2  -7   53.75    2.97
  -4   2  -7   60.58    1.73
   4  -2   8   27.08    1.45
  -4   2  -8   26.02    2.19
  -4   2  -8   28.03    1.05
  -4   2  -9    4.17    1.07
  -4   2 -10   24.10    2.30
  -4   2 -11   17.84    2.02
  -4   2 -12    4.62    1.36
   4  -1 -15    0.34    0.64
   4  -1 -14    8.42    1.30
  -4   1  14   10.38    1.27
   4  -1 -13   -0.84    0.73
  -4   1  13    0.34    0.55
   4  -1 -12    1.74    0.63
  -4   1  12    3.17    0.82
   4  -1 -11    1.11    0.64
  -4   1  11    1.17    0.53
   4  -1 -10    8.53    1.02
  -4   1  10   10.75    1.23
   4  -1  -9   63.69    2.65
  -4   1   9   61.58    2.76
   4  -1  -8    0.12    0.38
  -4   1   8   -0.52    0.46
   4  -1  -7   32.98    1.83
  -4   1   7   32.33    1.88
   4  -1  -6   27.66    1.66
  -4   1   6   27.90    1.71
   4  -1  -5  176.91    4.65
   4  -1  -4  148.65    4.12
   4  -1  -3   51.14    2.23
   4  -1  -2   13.26    1.11
   4  -1  -2   14.13    1.00
   4  -1  -1   37.47    1.85
  -4   1   1   39.08    1.76
   4  -1  -1   39.94    1.73
   4  -1   0    0.58    0.36
  -4   1   0    0.75    0.39
  -4   1   0    1.03    0.42
   4  -1   0    0.97    0.43
  -4   1  -1   10.95    0.88
  -4   1  -1   11.47    0.99
   4  -1   1   12.26    1.04
  -4   1  -2   53.95    1.92
  -4   1  -2   60.97    2.32
   4  -1   2   56.82    2.30
  -4   1  -3   20.44    1.11
  -4   1  -3   23.01    1.46
   4  -1   3   21.92    1.41
  -4   1  -4    6.66    0.61
  -4   1  -4    6.94    0.91
   4  -1   4    6.54    0.81
   4  -1   4    6.45    0.78
   4  -1   4    5.78    0.68
  -4   1  -5   -0.06    0.25
   4  -1   5   -0.32    0.39
   4  -1   5    0.17    0.32
  -4   1  -5   -0.03    0.49
  -4   1  -6    0.65    0.32
  -4   1  -6    1.08    0.65
   4  -1   6    0.63    0.33
  -4   1  -7    0.35    0.24
  -4   1  -7   -0.02    0.58
   4  -1   7    0.22    0.34
   4  -1   7    0.24    0.33
   4  -1   8   34.35    1.54
  -4   1  -8   35.31    2.43
  -4   1  -8   36.25    1.34
   4  -1   8   36.57    1.82
  -4   1  -9    4.64    1.00
   4  -1   9    5.26    0.70
  -4   1 -10   26.18    2.31
  -4   1 -11    2.08    0.96
  -4   1 -12    0.12    0.71
  -4   1 -13    0.03    0.95
   4   0 -15    5.92    1.23
   4   0 -14    2.54    0.85
   4   0 -13    0.31    0.74
  -4   0  13   -0.11    0.48
   4   0 -12   -0.05    0.63
  -4   0  12   -0.04    0.46
   4   0 -11   -0.60    0.53
  -4   0  11   -0.54    0.53
  -4   0  10   52.21    2.48
   4   0 -10   46.85    2.50
   4   0 -10   44.48    2.16
   4   0  -9    4.30    0.83
   4   0  -9    4.84    0.71
  -4   0   9    5.10    0.79
   4   0  -8    0.52    0.36
  -4   0   8    0.12    0.44
   4   0  -7    4.56    0.69
  -4   0   7    5.07    0.74
   4   0  -6    2.15    0.49
  -4   0   6    0.69    0.37
   4   0  -5   78.07    2.71
   4   0  -4    0.29    0.33
   4   0  -3   55.75    2.21
   4   0  -2  163.81    4.14
   4   0  -1  174.34    4.11
   4   0  -1  181.74    4.34
  -4   0   0  233.93    4.93
   4   0   0  237.00    5.10
  -4   0  -1   -0.25    0.34
  -4   0  -1    0.43    0.39
   4   0   1    0.15    0.26
  -4   0  -2  162.24    3.68
   4   0   2  169.11    3.95
  -4   0  -2  171.76    4.23
  -4   0  -3  183.34    3.91
   4   0   3  185.64    4.19
  -4   0  -3  183.13    4.54
  -4   0  -4    2.15    0.40
  -4   0  -4    3.17    0.65
   4   0   4    2.70    0.50
  -4   0  -5    1.82    0.35
   4   0   5    1.63    0.48
  -4   0  -5    2.20    0.62
   4   0   5    1.27    0.40
   4   0   6   21.62    1.20
  -4   0  -6   19.57    1.52
  -4   0  -6   21.53    1.07
   4   0   7   20.10    1.17
  -4   0  -7   21.92    1.71
  -4   0  -7   21.49    1.07
   4   0   8   16.89    1.08
  -4   0  -8   16.84    1.61
  -4   0  -8   19.19    1.04
   4   0   9    7.11    0.71
  -4   0  -9    8.69    1.24
  -4   0  -9    6.83    0.65
  -4   0 -10   -0.17    0.68
   4   0  10    1.35    0.41
  -4   0 -11    1.29    0.73
  -4   0 -12   21.09    2.17
  -4   0 -13   -1.56    0.92
  -4   0 -14    1.07    0.96
   4   1 -14    0.24    0.77
   4   1 -13   -0.63    0.75
   4   1 -12    3.77    1.01
  -4  -1  12    5.62    0.84
  -4  -1  11   27.58    1.74
   4   1 -11   22.99    1.99
   4   1 -10    4.11    0.63
   4   1 -10    4.18    0.95
  -4  -1  10    4.80    0.78
   4   1  -9    1.08    0.62
  -4  -1   9    0.56    0.47
   4   1  -9    0.41    0.31
   4   1  -8    3.52    0.57
  -4  -1   8    3.85    0.68
   4   1  -7    9.16    0.86
   4   1  -6  123.21    3.42
   4   1  -5   63.15    2.32
   4   1  -4   22.19    1.30
   4   1  -3    8.44    0.81
   4   1  -2    0.50    0.27
   4   1  -1   11.96    0.92
   4   1   0   34.33    1.49
   4   1   1    0.10    0.26
  -4  -1  -2  277.93    5.37
   4   1   2  291.85    5.54
  -4  -1  -2  283.02    5.88
  -4  -1  -3   36.24    1.42
   4   1   3   36.00    1.51
  -4  -1  -3   36.34    1.74
  -4  -1  -4  206.93    4.22
   4   1   4  209.74    4.40
  -4  -1  -4  197.17    4.86
   4   1   5   23.89    1.24
   4   1   5   23.25    1.45
  -4  -1  -5   23.36    1.50
  -4  -1  -5   23.05    1.14
   4   1   6  148.25    3.56
  -4  -1  -6  150.62    4.28
   4   1   6  146.73    4.13
  -4  -1  -6  150.42    3.42
   4   1   7  171.01    3.97
  -4  -1  -7  174.49    4.96
  -4  -1  -7  180.27    3.90
  -4  -1  -8    5.95    0.65
   4   1   8    5.63    0.64
  -4  -1  -8    5.97    1.01
   4   1   9   13.47    0.96
  -4  -1  -9   11.56    1.37
  -4  -1  -9   13.42    0.97
   4   1  10    6.51    0.72
   4   1  10    8.17    0.82
  -4  -1 -10    6.78    1.13
   4   1  11   17.96    1.21
  -4  -1 -11   15.85    1.77
   4   1  12    2.12    0.51
  -4  -1 -12    3.01    1.04
  -4  -1 -13   10.84    1.63
  -4  -1 -14    3.75    1.17
  -4  -1 -15    2.01    0.89
   4   2 -14    2.16    1.04
   4   2 -13    6.89    1.32
   4   2 -12    1.96    0.94
   4   2 -11    0.60    0.71
  -4  -2  11    1.48    0.49
  -4  -2  10   55.72    2.27
   4   2 -10   49.14    2.95
   4   2  -9    4.36    0.58
   4   2  -9    5.54    1.05
   4   2  -8   14.19    1.01
   4   2  -8   15.33    1.48
   4   2  -7   32.52    1.54
   4   2  -6    1.70    0.44
   4   2  -5   23.63    1.32
   4   2  -4   95.52    2.84
   4   2  -3   10.93    0.91
   4   2  -2   61.50    2.16
   4   2  -1    7.49    0.73
   4   2   0   11.18    0.84
   4   2   1   38.06    1.54
   4   2   2   71.43    2.16
   4   2   2   67.01    2.41
  -4  -2  -3   47.79    1.69
   4   2   3   46.98    1.71
   4   2   3   48.59    2.01
   4   2   4   32.40    1.43
   4   2   4   29.75    1.58
  -4  -2  -4   32.77    1.65
  -4  -2  -4   30.49    1.35
   4   2   5   24.84    1.26
   4   2   5   23.79    1.43
  -4  -2  -5   23.76    1.47
  -4  -2  -5   22.84    1.18
   4   2   6   97.22    2.77
   4   2   6   95.10    3.08
  -4  -2  -6   91.10    3.18
  -4  -2  -6   96.29    2.66
  -4  -2  -7    4.94    0.63
   4   2   7    4.21    0.59
   4   2   7    5.18    0.72
  -4  -2  -7    5.62    0.85
  -4  -2  -8    0.40    0.33
   4   2   8    0.47    0.37
  -4  -2  -8    1.14    0.60
   4   2   9   21.84    1.30
  -4  -2  -9   22.40    1.76
  -4  -2  -9   20.58    1.30
   4   2  10   12.76    1.02
  -4  -2 -10   14.05    1.49
   4   2  10   14.87    1.15
   4   2  11   47.79    2.03
  -4  -2 -11   48.81    2.87
   4   2  11   51.90    2.22
   4   2  12    3.14    0.63
  -4  -2 -12    3.00    0.81
  -4  -2 -13    1.25    0.84
   4   2  13    2.89    0.59
  -4  -2 -14   10.63    1.58
  -4  -2 -15   -0.89    0.99
   4   3 -13    0.44    0.92
   4   3 -12    5.75    1.26
   4   3 -11   11.50    1.64
   4   3 -10    1.45    0.83
   4   3  -9    3.70    1.03
   4   3  -9    3.32    0.46
   4   3  -8    2.71    0.44
   4   3  -8    3.28    0.99
   4   3  -7   10.82    0.83
   4   3  -7   11.08    1.29
   4   3  -6  187.48    4.26
   4   3  -5    0.94    0.38
   4   3  -4   65.86    2.33
   4   3  -3   51.50    1.95
   4   3  -2   39.59    1.64
   4   3  -1  119.27    3.04
   4   3   0   57.63    1.93
   4   3   1    7.62    0.67
   4   3   2    3.47    0.51
   4   3   2    3.71    0.57
   4   3   3   14.61    0.96
   4   3   3   14.00    1.06
   4   3   4   47.51    1.78
   4   3   4   44.78    1.94
  -4  -3  -4   44.56    1.73
   4   3   5   51.59    1.93
   4   3   5   50.84    2.10
  -4  -3  -5   52.86    2.15
  -4  -3  -5   51.45    1.91
   4   3   6   89.61    2.70
   4   3   6   91.53    2.94
  -4  -3  -6   84.08    2.95
  -4  -3  -6   88.91    2.69
   4   3   7   86.42    2.70
   4   3   7   89.38    2.95
  -4  -3  -7   80.70    3.05
  -4  -3  -7   87.22    2.71
   4   3   8   12.04    0.99
   4   3   8   11.74    1.08
  -4  -3  -8   11.38    1.14
  -4  -3  -8   12.80    1.03
   4   3   9    8.73    0.86
   4   3   9   12.08    1.06
  -4  -3  -9   10.93    1.20
   4   3  10    0.83    0.46
  -4  -3 -10    1.07    0.66
  -4  -3 -11   34.87    2.35
   4   3  11   36.84    1.98
   4   3  12    6.07    0.89
  -4  -3 -12    5.95    1.14
  -4  -3 -13    4.61    1.10
   4   3  13    6.30    0.89
   4   3  14    1.33    0.52
  -4  -3 -14    1.00    0.87
  -4  -3 -15   -0.84    0.87
  -4  -3 -16    2.56    1.07
   4   4 -12    7.47    1.52
   4   4 -11    1.57    0.78
   4   4 -10   -0.95    1.02
  -4  -4   9    4.66    0.54
   4   4  -9    4.51    1.15
   4   4  -8    5.25    0.51
   4   4  -8    5.83    1.16
   4   4  -7   14.19    0.90
   4   4  -7   15.05    1.66
   4   4  -6    2.68    0.85
   4   4  -6    0.53    0.29
   4   4  -5   18.40    1.18
   4   4  -4    3.47    0.54
   4   4  -3    1.18    0.37
   4   4  -2  197.55    4.33
   4   4  -1   14.61    0.94
   4   4   0   46.67    1.75
   4   4   1  316.54    6.05
   4   4   2   38.70    1.61
   4   4   3   82.90    2.53
   4   4   3   78.66    2.65
   4   4   4   25.40    1.33
   4   4   4   22.90    1.37
   4   4   5   13.24    0.97
   4   4   5   12.51    1.01
  -4  -4  -5   12.49    1.02
   4   4   6   61.36    2.25
   4   4   6   58.63    2.30
  -4  -4  -6   60.89    2.29
   4   4   7    2.38    0.50
  -4  -4  -7    1.86    0.47
   4   4   7    2.00    0.45
  -4  -4  -7    1.73    0.52
   4   4   8    2.35    0.63
   4   4   8    1.59    0.45
  -4  -4  -8    1.44    0.58
  -4  -4  -8    0.78    0.44
   4   4   9   13.82    1.13
   4   4   9   13.79    1.21
  -4  -4  -9   12.48    1.25
  -4  -4 -10   36.38    2.19
   4   4  10   37.25    2.00
  -4  -4 -11   20.78    1.75
   4   4  11   18.71    1.50
   4   4  12    2.90    0.68
  -4  -4 -12    3.36    0.91
  -4  -4 -13    4.35    1.07
   4   4  13    2.93    0.74
   4   4  14    1.61    0.60
  -4  -4 -14    2.68    0.94
  -4  -4 -15    5.87    1.29
  -4  -4 -16    0.06    0.83
   4   5 -11   -0.14    0.92
   4   5 -10   -0.82    0.96
   4   5  -9    5.96    1.31
   4   5  -8   28.17    2.40
  -4  -5   8   32.76    1.23
   4   5  -7    1.76    0.89
   4   5  -6    7.18    1.18
   4   5  -6    7.94    0.72
   4   5  -5    7.72    0.81
   4   5  -5    8.79    1.21
   4   5  -4   27.79    1.45
   4   5  -3   13.72    0.99
   4   5  -2   76.14    2.39
   4   5  -1  146.19    3.54
   4   5   0    0.49    0.30
   4   5   1    8.48    0.78
  -4  -5  -1    8.96    0.81
   4   5   2    8.11    0.79
  -4  -5  -2    7.09    0.77
   4   5   3   51.01    1.99
  -4  -5  -3   51.20    2.08
   4   5   4    8.13    0.80
   4   5   4    6.94    0.78
   4   5   5   81.59    2.77
  -4  -5  -5   87.36    2.90
   4   5   5   86.09    2.78
  -4  -5  -6    0.27    0.36
   4   5   6    0.44    0.35
   4   5   7   16.99    1.18
   4   5   7   18.48    1.38
  -4  -5  -7   16.36    1.30
   4   5   8    0.84    0.56
   4   5   8    0.29    0.29
   4   5   9    3.45    0.79
   4   5   9    2.69    0.53
  -4  -5  -9    3.99    0.77
   4   5  10   11.84    1.06
  -4  -5 -10   11.26    1.21
   4   5  10   11.23    1.20
   4   5  11   15.67    1.47
  -4  -5 -11   13.07    1.36
   4   5  12    2.11    0.70
  -4  -5 -12    0.98    0.60
  -4  -5 -13    0.05    0.58
   4   5  13   -0.98    0.76
   4   5  14    0.66    0.64
  -4  -5 -14    0.87    0.69
   4   5  15    2.55    0.77
  -4  -5 -15    2.83    1.02
   4   6  -9   -0.94    1.07
   4   6  -8    1.94    0.98
   4   6  -7   43.45    3.00
   4   6  -6    5.36    1.13
   4   6  -6    5.92    0.59
   4   6  -5   14.88    1.09
   4   6  -5   15.50    1.64
   4   6  -5   14.21    0.95
   4   6  -4   22.08    1.31
   4   6  -4   20.73    1.81
   4   6  -4   20.82    1.20
   4   6  -3    1.07    0.36
   4   6  -2   37.65    1.67
  -4  -6   2   34.87    1.65
   4   6  -1   14.60    1.03
  -4  -6   1   13.83    1.06
   4   6   0   11.22    0.90
  -4  -6   0   10.65    0.95
  -4  -6  -1    0.42    0.41
   4   6   1    0.54    0.35
   4   6   2   45.26    1.89
  -4  -6  -2   44.09    2.01
  -4  -6  -3  195.10    4.84
  -4  -6  -4    0.07    0.44
   4   6   4    1.32    0.62
   4   6   4    0.72    0.38
   4   6   5   47.21    2.02
   4   6   5   47.87    2.31
  -4  -6  -5   52.83    2.36
   4   6   6   71.81    2.51
   4   6   6   71.75    2.91
   4   6   7   22.36    1.34
   4   6   7   24.31    1.71
   4   6   8   19.29    1.21
   4   6   8   17.84    1.55
   4   6   9   33.32    1.62
   4   6   9   31.54    2.05
   4   6  10    9.55    0.89
   4   6  10    9.27    1.18
   4   6  11    1.58    0.62
  -4  -6 -12    0.17    0.53
   4   6  12   -0.68    0.62
   4   6  13   -0.53    0.75
  -4  -6 -13   -0.05    0.61
   4   6  14    2.77    0.83
   4   6  15    3.57    0.98
   4   6  16   -0.25    0.65
   4   7  -8    4.22    1.14
   4   7  -7    0.58    0.92
   4   7  -6   20.28    2.14
   4   7  -5    2.61    0.48
   4   7  -5    1.84    0.84
   4   7  -4    2.18    0.86
   4   7  -4    3.40    0.60
   4   7  -4    2.95    0.57
   4   7  -3  161.09    4.03
   4   7  -3  149.38    4.98
   4   7  -3  155.80    4.16
  -4  -7   3  158.56    4.03
   4   7  -2    5.15    0.95
  -4  -7   2    5.77    0.74
   4   7  -2    5.88    0.78
   4   7  -2    5.06    0.65
  -4  -7   1    0.59    0.38
   4   7  -1    0.37    0.33
   4   7  -1    0.43    0.40
   4   7   0    2.15    0.60
  -4  -7   0    1.83    0.54
   4   7   1    0.57    0.40
  -4  -7  -1    0.30    0.44
   4   7   2   28.79    1.81
  -4  -7  -2   31.06    1.83
   4   7   3   43.71    2.24
   4   7   4   21.82    1.63
   4   7   5    9.87    0.93
   4   7   5   10.00    1.15
   4   7   6    2.18    0.72
   4   7   6    1.61    0.46
   4   7   7   40.78    1.79
   4   7   7   35.89    2.23
   4   7   8    4.04    0.58
   4   7   8    3.98    0.89
   4   7   9   13.43    0.97
   4   7   9   13.58    1.50
   4   7  10   42.17    2.60
   4   7  11    2.12    0.84
   4   7  12    2.86    0.88
   4   7  13    1.17    0.64
   4   7  14   15.89    1.77
   4   7  15    1.67    0.81
   4   8  -7    1.19    0.90
   4   8  -6   14.56    1.85
   4   8  -5   32.13    2.57
   4   8  -4    1.64    0.53
   4   8  -4    1.62    0.88
   4   8  -3    5.17    1.02
   4   8  -3    5.77    0.85
   4   8  -2    5.17    0.84
   4   8  -2    5.79    1.06
   4   8  -1    0.41    0.48
   4   8  -1    0.10    0.55
   4   8   0    1.67    0.68
   4   8   0    1.52    0.54
   4   8   1   63.14    2.88
   4   8   2    1.10    0.55
   4   8   3    1.78    0.68
   4   8   4   12.58    1.36
   4   8   5    0.29    0.60
   4   8   5    0.13    0.30
   4   8   6   -0.49    0.60
   4   8   6    0.51    0.33
   4   8   7   24.97    1.35
   4   8   7   27.73    2.13
   4   8   8   11.91    1.47
   4   8   9    7.85    1.28
   4   8  10    2.46    0.90
   4   8  11   -0.54    0.85
   4   8  12    0.50    0.76
   4   8  13   -0.97    0.78
   4   8  14   12.65    1.66
   4   9  -6    4.51    1.19
   4   9  -5    1.90    0.93
   4   9  -4   -1.06    0.88
   4   9  -3   12.48    1.57
   4   9  -2    4.82    1.03
   4   9  -2    4.03    0.78
   4   9  -1   38.70    2.45
   4   9  -1   45.77    2.49
   4   9   0    4.18    0.82
   4   9   0    5.22    0.99
   4   9   1   22.81    1.68
   4   9   1   19.99    1.75
   4   9   2   54.76    2.94
   4   9   2   52.15    2.44
   4   9   3    0.86    0.71
   4   9   3    0.60    0.43
   4   9   4    7.38    1.23
   4   9   5   12.90    1.56
   4   9   6   -0.11    0.71
   4   9   7    8.20    1.31
   4   9   8   13.03    1.61
   4   9   9   -1.16    0.88
   4   9  10    0.00    0.66
   4   9  11    5.45    1.24
   4   9  12    0.68    0.74
   4  10  -4    2.22    0.91
   4  10  -3   -0.05    0.69
   4  10  -2    0.40    0.65
   4  10  -1    4.47    0.84
   4  10  -1    5.75    1.08
   4  10   0    6.94    1.08
   4  10   0    6.28    1.08
   4  10   1   12.44    1.36
   4  10   1   12.35    1.48
   4  10   2   -0.19    0.48
   4  10   2    0.48    0.69
   4  10   3   15.05    1.30
   4  10   3   16.36    1.75
   4  10   4    2.67    0.60
   4  10   4    2.57    0.90
   4  10   5   14.10    1.71
   4  10   6   36.91    2.74
   4  10   7   -0.87    0.89
   4  10   8    5.54    1.10
   4  10   9    1.17    0.65
   4  10  10    1.79    0.86
   4  11  -3    2.47    0.99
   4  11  -2    2.91    0.93
   4  11  -1   -0.32    0.60
   4  11   0    9.95    1.35
   4  11   1   -1.33    0.81
   4  11   2    1.33    0.68
   4  11   3    0.53    0.65
   4  11   4    3.39    0.85
   4  11   5    5.77    1.26
   4  11   6    3.55    1.09
   4  11   7   -0.53    0.91
   4  11   8    2.53    0.93
   4  12   2    1.68    0.77
   4  12   3    0.36    0.83
   4  12   4    3.55    1.10
  -5   9   3    2.48    0.97
  -5   9   2    0.34    0.68
  -5   9   1   -0.75    0.78
  -5   8   7    0.60    0.79
  -5   8   6    0.47    0.73
  -5   8   5    0.44    0.71
  -5   8   4    3.08    1.07
  -5   8   3   -0.25    0.71
  -5   8   2    0.39    0.79
  -5   8   1    2.93    0.96
  -5   8   1    3.10    0.86
  -5   8   0    4.21    0.93
  -5   8  -1    0.21    0.62
  -5   8  -2    4.47    1.06
  -5   8  -3    6.08    1.23
  -5   7  10    1.37    0.70
  -5   7   9    3.21    1.09
  -5   7   8    2.88    0.92
  -5   7   7   10.60    1.66
  -5   7   6   23.76    2.20
  -5   7   5    7.08    1.35
  -5   7   4    1.62    0.79
  -5   7   3    8.30    1.37
  -5   7   2    0.61    0.55
  -5   7   2    2.19    0.60
  -5   7   1    0.22    0.61
  -5   7   1    0.92    0.52
  -5   7   0    3.74    0.82
  -5   7   0    4.10    0.84
  -5   7  -1    1.54    0.66
  -5   7  -1    0.57    0.49
  -5   7  -2    0.33    0.58
  -5   7  -3    0.27    0.60
  -5   7  -4    1.36    0.82
  -5   7  -5    1.07    0.95
  -5   6  12    2.59    1.09
  -5   6  11    1.76    0.95
  -5   6  10    1.37    0.99
  -5   6   9    1.70    0.92
  -5   6   8    1.54    0.88
  -5   6   7    1.67    0.86
  -5   6   6    2.95    1.03
  -5   6   5    0.77    0.77
  -5   6   4    1.82    0.74
  -5   6   3    9.54    1.31
  -5   6   2   33.93    1.93
  -5   6   2   32.67    2.24
  -5   6   1    4.73    1.02
  -5   6   1    5.32    0.92
  -5   6   0   11.90    1.27
  -5   6   0   13.64    1.33
  -5   6  -1   26.17    1.74
  -5   6  -1   24.76    1.86
  -5   6  -2    1.55    0.73
  -5   6  -2    0.46    0.46
  -5   6  -3    2.31    0.61
  -5   6  -3    2.58    0.83
  -5   6  -4    1.67    0.82
  -5   6  -5   -0.10    0.70
  -5   6  -6   -0.48    0.88
  -5   5  13    0.32    0.74
  -5   5  12   -1.24    0.77
  -5   5  11    0.90    0.84
  -5   5  10    0.26    0.78
  -5   5   9    1.63    0.94
  -5   5   8    7.56    1.27
  -5   5   7    0.68    0.70
  -5   5   6    9.52    1.33
  -5   5   5    3.28    0.86
  -5   5   4   16.48    1.62
   5  -5  -3    2.88    0.62
  -5   5   3    2.65    0.77
   5  -5  -2   17.14    1.35
  -5   5   2   15.72    1.52
  -5   5   1   28.82    1.88
  -5   5   1   31.74    1.94
  -5   5   1   33.30    2.08
  -5   5   0    0.26    0.47
  -5   5   0    0.43    0.52
  -5   5  -1   -0.46    0.59
  -5   5  -1   -0.11    0.48
  -5   5  -2    2.43    0.76
  -5   5  -2    3.28    0.67
  -5   5  -3    0.45    0.46
  -5   5  -3    1.04    0.64
  -5   5  -4    4.38    0.67
  -5   5  -4    3.50    0.91
  -5   5  -5   16.64    1.81
  -5   5  -6    0.96    0.72
  -5   5  -7    1.14    0.81
  -5   4  15    1.75    0.86
  -5   4  14    0.94    0.76
  -5   4  13    0.42    0.71
  -5   4  12    5.08    1.11
  -5   4  11    3.35    1.00
   5  -4 -10   17.74    1.28
  -5   4  10   21.01    2.01
  -5   4   9   -0.50    0.74
  -5   4   8    2.62    0.84
  -5   4   7   34.26    2.39
  -5   4   6    1.47    0.69
  -5   4   5    0.42    0.53
  -5   4   4   24.71    1.86
   5  -4  -3   25.00    1.53
  -5   4   3   21.10    1.67
   5  -4  -2    5.99    0.80
  -5   4   2    8.24    1.09
   5  -4  -1    0.42    0.39
  -5   4   1    0.09    0.42
  -5   4   1    0.35    0.45
  -5   4   0   15.01    1.26
  -5   4   0   14.97    1.32
  -5   4  -1    8.24    1.06
  -5   4  -1    8.57    0.96
  -5   4  -2   61.90    2.50
  -5   4  -2   58.40    2.81
  -5   4  -3   49.81    2.14
  -5   4  -3   50.33    2.67
   5  -4   4    2.03    0.62
  -5   4  -4    2.47    0.56
  -5   4  -4    3.29    0.85
  -5   4  -5   12.93    0.98
  -5   4  -5   12.57    1.55
  -5   4  -6   10.25    0.81
  -5   4  -6   11.45    1.58
  -5   4  -7    0.50    0.76
  -5   4  -8    1.25    0.88
  -5   4  -9    3.37    1.18
  -5   3  15    0.08    0.67
  -5   3  14    1.67    0.67
  -5   3  13   -0.21    0.69
   5  -3 -12   -0.47    0.53
  -5   3  12   -0.66    0.71
   5  -3 -11    0.82    0.53
  -5   3  11    0.77    0.66
  -5   3  10    4.97    1.10
  -5   3   9    1.91    0.75
  -5   3   8   24.04    1.99
  -5   3   7    2.46    0.80
  -5   3   6   20.17    1.74
  -5   3   5   10.25    1.24
  -5   3   4   16.39    1.46
  -5   3   3   88.92    3.45
   5  -3  -2    1.05    0.38
  -5   3   2    1.40    0.48
  -5   3   2    1.29    0.54
   5  -3  -1    0.89    0.40
  -5   3   1    1.44    0.51
   5  -3   0    2.90    0.57
  -5   3   0    4.43    0.78
  -5   3   0    2.44    0.59
   5  -3   1    1.95    0.62
  -5   3  -1    1.55    0.56
  -5   3  -1    2.46    0.56
   5  -3   2    1.77    0.62
  -5   3  -2    2.65    0.62
  -5   3  -2    1.94    0.65
   5  -3   3   28.32    1.89
  -5   3  -3   26.61    1.50
  -5   3  -3   27.42    1.89
   5  -3   4    0.29    0.41
  -5   3  -4   -0.05    0.32
  -5   3  -4   -0.37    0.47
  -5   3  -5   14.03    1.02
   5  -3   5   15.11    1.35
  -5   3  -5   16.11    1.64
   5  -3   6    5.58    0.83
  -5   3  -6    5.43    0.61
  -5   3  -6    5.57    1.09
  -5   3  -7   11.61    1.59
  -5   3  -7   12.22    0.83
  -5   3  -8   -0.08    0.63
  -5   3  -9    7.27    1.44
  -5   3 -10    9.54    1.66
  -5   2  15    5.07    1.02
   5  -2 -14   -0.36    0.64
  -5   2  14   -0.79    0.73
   5  -2 -13   -1.53    0.80
  -5   2  13   -0.30    0.60
   5  -2 -12    0.62    0.52
  -5   2  12    1.66    0.72
   5  -2 -11    0.88    0.51
  -5   2  11    1.65    0.72
  -5   2  10   23.96    1.93
  -5   2   9   -0.50    0.57
  -5   2   8    6.16    0.98
  -5   2   7   54.25    2.76
  -5   2   6   23.58    1.79
  -5   2   5   44.77    2.42
  -5   2   4    0.33    0.49
  -5   2   4    0.42    0.53
  -5   2   3   11.85    1.14
   5  -2  -2    5.54    0.89
  -5   2   2    5.44    0.82
   5  -2  -1    7.74    1.01
   5  -2  -1    8.73    0.92
  -5   2   1    8.12    0.93
   5  -2   0    5.33    0.86
   5  -2   0    5.94    0.79
  -5   2   0    6.08    0.81
  -5   2   0    5.64    0.80
   5  -2   1   62.58    2.79
  -5   2  -1   59.33    2.37
   5  -2   1   59.46    2.51
  -5   2  -1   57.80    2.52
  -5   2  -2    0.64    0.42
  -5   2  -2    0.34    0.43
   5  -2   2    1.44    0.52
  -5   2  -3    2.70    0.51
  -5   2  -3    4.12    0.80
   5  -2   3    2.95    0.73
  -5   2  -4    1.22    0.39
  -5   2  -4    0.94    0.48
   5  -2   4    1.94    0.62
  -5   2  -5    6.74    0.71
  -5   2  -5    5.10    0.89
   5  -2   5    6.67    0.93
  -5   2  -6    1.07    0.34
  -5   2  -6    0.90    0.71
   5  -2   6    1.26    0.56
   5  -2   7   54.82    2.54
  -5   2  -7   50.95    3.03
  -5   2  -7   53.16    1.87
  -5   2  -8    3.11    0.48
  -5   2  -8    2.71    1.01
  -5   2  -9    3.13    1.06
  -5   2 -10    8.00    1.54
  -5   2 -11    0.06    0.87
   5  -1 -15    1.61    0.77
   5  -1 -14    0.01    0.76
  -5   1  14   -0.05    0.63
   5  -1 -13   -0.27    0.72
  -5   1  13    1.08    0.66
   5  -1 -12    1.12    0.73
  -5   1  12    1.33    0.65
  -5   1  11   23.39    1.90
   5  -1 -11   21.41    1.75
   5  -1 -10    3.07    0.81
  -5   1  10    2.30    0.74
  -5   1   9    2.14    0.74
  -5   1   8    1.44    0.58
  -5   1   7   14.57    1.40
  -5   1   6   28.15    1.82
  -5   1   5    1.62    0.62
   5  -1  -4   25.96    1.72
  -5   1   4   24.83    1.66
   5  -1  -3  148.20    4.40
  -5   1   3  146.07    4.28
   5  -1  -2  135.42    4.15
  -5   1   2  133.00    3.90
   5  -1  -1  120.84    3.85
  -5   1   1  113.11    3.50
   5  -1   0   25.59    1.67
  -5   1   0   29.23    1.60
   5  -1   0   24.90    1.52
  -5   1  -1  117.14    3.42
   5  -1   1  124.64    3.75
  -5   1  -1  123.99    3.76
  -5   1  -2   92.01    2.85
   5  -1   2   94.30    3.22
  -5   1  -2   92.08    3.25
   5  -1   2  100.99    3.45
  -5   1  -3    6.56    0.72
   5  -1   3    6.39    0.88
   5  -1   3    6.43    0.88
  -5   1  -3    6.14    0.87
  -5   1  -4   -0.26    0.33
   5  -1   4    0.25    0.43
  -5   1  -4    0.04    0.41
  -5   1  -5    2.09    0.48
   5  -1   5    1.57    0.56
  -5   1  -5    1.24    0.54
  -5   1  -6    7.41    0.72
   5  -1   6    7.05    0.95
  -5   1  -6    7.70    1.15
  -5   1  -7    2.29    0.42
   5  -1   7    3.41    0.71
  -5   1  -8   19.95    1.91
  -5   1  -8   20.36    1.13
   5  -1   8   18.13    1.43
  -5   1  -9    3.29    0.50
  -5   1  -9    3.31    1.08
  -5   1 -10   10.20    1.57
  -5   1 -11    6.41    1.44
  -5   1 -12    0.46    0.88
   5   0 -15   -0.01    0.77
   5   0 -14    0.72    0.70
   5   0 -13    0.02    0.77
  -5   0  13   -0.07    0.56
  -5   0  12   24.57    1.86
   5   0 -12   23.18    2.04
   5   0 -11    0.66    0.54
  -5   0  11   -0.34    0.55
   5   0 -10    2.15    0.75
  -5   0  10    2.07    0.64
  -5   0   9   19.82    1.63
  -5   0   8    8.30    1.04
   5   0  -7   16.42    1.34
  -5   0   7   14.46    1.36
   5   0  -6    4.29    0.73
  -5   0   6    3.49    0.67
   5   0  -5    8.01    0.97
  -5   0   5    8.08    1.00
   5   0  -4   42.48    2.12
  -5   0   4   41.18    2.10
   5   0  -3   16.73    1.30
   5   0  -2    3.73    0.65
   5   0  -1   24.15    1.54
  -5   0   0    0.10    0.39
   5   0   0    0.92    0.46
  -5   0  -1  238.05    5.22
   5   0   1  239.21    5.53
  -5   0  -2    5.32    0.65
  -5   0  -2    5.40    0.79
   5   0   2    4.66    0.69
  -5   0  -3   20.99    1.21
   5   0   3   21.64    1.40
  -5   0  -3   22.59    1.54
  -5   0  -4   37.24    1.62
   5   0   4   35.72    1.82
   5   0   4   38.10    2.02
  -5   0  -4   41.52    2.17
  -5   0  -5  103.00    2.89
   5   0   5  107.44    3.28
  -5   0  -5  104.36    3.73
   5   0   6   77.33    2.71
  -5   0  -6   74.96    3.27
  -5   0  -6   76.45    2.40
   5   0   7   12.82    1.10
  -5   0  -7   15.50    1.56
  -5   0  -7   14.06    0.99
   5   0   8   18.86    1.33
  -5   0  -8   20.56    1.88
  -5   0  -8   21.57    1.22
  -5   0  -9    0.12    0.32
  -5   0  -9    0.60    0.83
   5   0   9    0.29    0.36
  -5   0 -10    1.03    0.91
  -5   0 -10    2.02    0.47
  -5   0 -11   -0.65    0.85
  -5   0 -12    9.14    1.56
  -5   0 -13    2.80    1.09
   5   1 -14    1.87    0.94
   5   1 -13    0.39    0.79
   5   1 -12   -0.37    0.81
  -5  -1  12    2.59    0.74
  -5  -1  11   29.41    1.94
   5   1 -11   28.69    2.24
   5   1 -10    0.56    0.69
  -5  -1  10    0.98    0.56
   5   1  -9    7.85    0.91
  -5  -1   9    9.32    1.13
   5   1  -8    0.30    0.35
  -5  -1   8    0.13    0.47
   5   1  -7   11.83    1.12
  -5  -1   7   12.77    1.24
   5   1  -6   46.23    2.20
  -5  -1   6   47.23    2.31
   5   1  -5   51.81    2.30
  -5  -1   5   47.84    2.28
  -5  -1   4    7.82    0.92
   5   1  -4    8.36    0.94
  -5  -1   3    1.13    0.49
   5   1  -3    1.85    0.54
   5   1  -2    6.58    0.75
   5   1  -2    9.95    0.97
   5   1  -1   26.28    1.53
   5   1   0   34.41    1.74
  -5  -1  -1   60.04    2.15
   5   1   1   67.10    2.42
  -5  -1  -2   58.99    2.14
   5   1   2   66.90    2.39
  -5  -1  -3   37.65    1.63
   5   1   3   38.64    1.79
  -5  -1  -3   38.51    1.97
  -5  -1  -4    3.65    0.53
   5   1   4    3.71    0.68
   5   1   4    4.20    0.64
  -5  -1  -4    4.73    0.80
  -5  -1  -5   29.16    1.43
   5   1   5   29.81    1.57
   5   1   5   27.33    1.72
  -5  -1  -5   29.71    1.83
   5   1   6   39.02    1.80
  -5  -1  -6   34.55    2.10
  -5  -1  -6   37.28    1.63
  -5  -1  -7    6.54    0.73
   5   1   7    6.98    0.79
  -5  -1  -7    7.59    1.12
   5   1   8   61.40    2.37
  -5  -1  -8   65.13    3.18
  -5  -1  -8   68.20    2.32
   5   1   9   11.83    1.01
  -5  -1  -9   14.19    1.59
  -5  -1  -9   13.63    1.03
   5   1  10   13.02    1.07
  -5  -1 -10   14.52    1.69
  -5  -1 -10   13.59    1.07
  -5  -1 -11    3.98    1.11
  -5  -1 -12   -0.04    0.88
  -5  -1 -13   12.89    1.78
  -5  -1 -14   -1.43    1.10
   5   2 -13    2.59    1.05
   5   2 -12   14.33    1.81
   5   2 -11    1.69    0.91
  -5  -2  11    0.77    0.46
   5   2 -10    1.56    0.82
  -5  -2  10   -0.22    0.50
   5   2  -9    1.05    0.45
  -5  -2   9    0.19    0.47
   5   2  -8    0.88    0.44
  -5  -2   8    0.19    0.51
   5   2  -7  168.23    4.43
  -5  -2   7  159.82    4.51
   5   2  -6   11.04    1.04
  -5  -2   6    9.56    1.00
  -5  -2   5   35.99    1.85
   5   2  -5   37.55    1.91
  -5  -2   4   71.98    2.65
   5   2  -4   81.70    2.81
   5   2  -3   45.93    2.07
   5   2  -2  232.53    5.34
   5   2  -1  134.73    3.71
   5   2   0    3.58    0.58
   5   2   1   81.01    2.63
  -5  -2  -2    0.38    0.35
   5   2   2    0.40    0.33
  -5  -2  -3    6.40    0.67
   5   2   3    5.76    0.68
   5   2   3    6.04    0.81
   5   2   4   24.83    1.39
   5   2   4   22.60    1.50
  -5  -2  -4   22.55    1.51
  -5  -2  -4   22.06    1.25
   5   2   5   28.20    1.50
   5   2   5   27.82    1.71
  -5  -2  -5   26.81    1.73
  -5  -2  -5   27.24    1.41
   5   2   6   89.45    2.83
  -5  -2  -6   83.61    3.24
  -5  -2  -6   88.18    2.72
  -5  -2  -7    0.75    0.39
   5   2   7    0.84    0.44
  -5  -2  -7    0.39    0.51
  -5  -2  -8    3.82    0.65
   5   2   8    3.40    0.59
  -5  -2  -8    4.15    0.91
  -5  -2  -9    2.68    0.57
   5   2   9    2.86    0.61
  -5  -2  -9    3.68    0.88
  -5  -2 -10   27.39    2.22
  -5  -2 -10   26.68    1.60
   5   2  11    6.66    0.90
  -5  -2 -11    6.56    1.26
   5   2  12   16.77    1.32
  -5  -2 -12   16.92    1.94
  -5  -2 -13    0.21    0.78
  -5  -2 -14    2.39    1.02
   5   3 -12    2.94    0.96
   5   3 -11   -0.97    0.95
   5   3 -10   -0.49    0.80
  -5  -3  10    0.66    0.45
   5   3  -9    4.08    1.00
  -5  -3   9    3.72    0.66
  -5  -3   8   26.28    1.59
   5   3  -8   24.93    1.44
   5   3  -8   27.77    2.19
   5   3  -7   10.96    0.99
  -5  -3   7    9.69    0.98
   5   3  -6   41.34    1.97
  -5  -3   6   42.02    1.95
  -5  -3   5    0.53    0.39
   5   3  -5    0.51    0.38
  -5  -3   4    8.41    0.87
   5   3  -4    7.67    0.87
  -5  -3   3  123.93    3.47
   5   3  -3  122.58    3.59
   5   3  -2    2.46    0.53
   5   3  -1    6.60    0.76
   5   3   0  284.72    5.92
   5   3   1   86.81    2.73
   5   3   2  144.55    3.69
   5   3   2  133.38    3.94
  -5  -3  -3   -0.01    0.31
   5   3   3    0.34    0.35
   5   3   3    0.29    0.30
   5   3   4   20.20    1.25
   5   3   4   18.37    1.35
  -5  -3  -4   17.90    1.17
   5   3   5   72.25    2.52
   5   3   5   67.48    2.67
  -5  -3  -5   67.15    2.36
   5   3   6   13.88    1.10
   5   3   6   12.06    1.14
  -5  -3  -6   12.92    1.26
  -5  -3  -6   11.90    1.01
  -5  -3  -7    1.75    0.53
   5   3   7    0.56    0.36
  -5  -3  -7    0.80    0.57
  -5  -3  -8    0.49    0.43
  -5  -3  -8    1.12    0.59
  -5  -3  -9   11.24    1.34
  -5  -3  -9   12.54    1.15
  -5  -3 -10   30.22    2.22
   5   3  11    9.29    1.06
  -5  -3 -11    8.00    1.33
   5   3  12    3.33    0.73
  -5  -3 -12    3.11    1.00
   5   3  13    4.60    0.87
  -5  -3 -13    5.94    1.26
  -5  -3 -14   12.39    1.80
  -5  -3 -15    1.22    0.99
   5   4 -11    1.69    0.98
   5   4 -10    2.13    0.94
  -5  -4   9   24.02    1.39
   5   4  -9   24.34    2.26
   5   4  -8    7.72    1.31
  -5  -4   8    5.09    0.70
  -5  -4   7    4.61    0.67
   5   4  -7    5.06    0.68
  -5  -4   6    0.14    0.34
   5   4  -6   -0.19    0.37
  -5  -4   5    2.02    0.51
   5   4  -5    2.56    0.56
  -5  -4   4   11.04    0.97
   5   4  -4    9.48    0.96
  -5  -4   3   43.64    1.90
   5   4  -3   44.47    2.01
  -5  -4   2  137.96    3.64
   5   4  -2  138.63    3.76
  -5  -4   1    8.32    0.84
   5   4  -1    8.88    0.87
   5   4   0   22.19    1.30
  -5  -4   0   20.15    1.25
  -5  -4  -1    2.69    0.55
   5   4   1    2.72    0.49
   5   4   2    3.47    0.56
   5   4   3    1.17    0.41
   5   4   3    1.60    0.48
   5   4   4  292.08    6.07
   5   4   4  273.65    6.33
  -5  -4  -4  279.99    5.89
   5   4   5   39.27    1.85
   5   4   5   40.60    2.01
  -5  -4  -5   38.02    1.82
   5   4   6   42.97    2.08
  -5  -4  -6   37.50    1.87
  -5  -4  -7    3.05    0.65
   5   4   7    2.80    0.58
  -5  -4  -8   10.45    1.19
  -5  -4  -8   11.10    1.10
  -5  -4  -9  109.92    3.99
  -5  -4  -9   99.16    3.43
  -5  -4 -10    2.31    0.75
   5   4  10    4.35    0.84
  -5  -4 -11    2.33    0.81
   5   4  11    2.80    0.72
   5   4  12    5.68    0.98
  -5  -4 -12    3.70    1.00
   5   4  13    1.57    0.62
  -5  -4 -13    1.49    0.78
   5   4  14    2.42    0.73
  -5  -4 -14    2.95    1.07
  -5  -4 -15    4.24    1.23
  -5  -4 -16    0.69    0.90
   5   5 -10    1.56    0.92
   5   5  -9   -0.13    0.86
   5   5  -8   36.36    2.76
  -5  -5   8   49.51    1.89
  -5  -5   7    1.09    0.47
   5   5  -7    4.57    1.06
   5   5  -6    7.33    0.82
  -5  -5   6    8.67    0.86
   5   5  -5   15.85    1.26
  -5  -5   5   16.57    1.16
  -5  -5   4    0.45    0.35
   5   5  -4   -0.38    0.46
   5   5  -3   39.03    1.87
  -5  -5   3   38.02    1.79
   5   5  -2   29.66    1.56
  -5  -5   2   29.54    1.57
  -5  -5   1    1.83    0.49
   5   5  -1    1.98    0.48
  -5  -5   0    0.31    0.38
   5   5   0    0.51    0.34
   5   5   1   27.36    1.47
  -5  -5  -1   25.65    1.48
   5   5   2  218.12    5.06
  -5  -5  -2  222.46    5.09
   5   5   3   12.10    1.12
  -5  -5  -3   11.55    1.06
   5   5   4   43.70    2.11
  -5  -5  -4   45.62    2.08
   5   5   5   51.84    2.33
  -5  -5  -5   52.36    2.26
  -5  -5  -6    5.93    0.82
   5   5   6    6.48    0.84
  -5  -5  -7    6.48    0.91
   5   5   7    7.80    0.91
   5   5   8   59.02    2.51
  -5  -5  -8   53.57    2.51
   5   5   9    3.37    0.82
   5   5  10    3.53    0.87
  -5  -5 -10    2.86    0.75
   5   5  11   12.96    1.34
  -5  -5 -11   11.00    1.42
  -5  -5 -12    6.99    1.26
   5   5  12    8.25    1.19
   5   5  13   10.99    1.36
  -5  -5 -13   10.19    1.48
  -5  -5 -14    3.86    1.05
   5   5  14    4.92    1.01
   5   5  15    1.04    0.66
  -5  -5 -15    0.45    0.78
   5   6  -9    5.60    1.41
   5   6  -8    3.17    1.12
  -5  -6   7    4.39    0.58
   5   6  -7    2.92    1.04
  -5  -6   6    4.76    0.65
   5   6  -6    2.59    0.92
   5   6  -5    6.31    1.18
  -5  -6   5    5.33    0.68
   5   6  -5    5.80    0.79
   5   6  -4  115.36    3.54
  -5  -6   4  112.45    3.29
   5   6  -3   16.45    1.23
  -5  -6   3   14.57    1.15
   5   6  -2   11.89    1.00
  -5  -6   2   10.84    1.00
  -5  -6   1   38.77    1.87
  -5  -6   0    0.79    0.48
  -5  -6  -1   31.96    1.76
  -5  -6  -2   10.89    1.04
  -5  -6  -3   12.65    1.16
   5   6   4   52.75    2.35
  -5  -6  -4   56.74    2.45
  -5  -6  -5    0.26    0.49
   5   6   5    1.24    0.45
   5   6   6   70.37    2.74
  -5  -6  -6   65.60    2.80
  -5  -6  -7    7.04    1.01
   5   6   7    7.88    0.94
   5   6   8   23.64    1.54
   5   6   8   23.81    1.76
   5   6   9   91.93    3.21
   5   6   9   97.45    3.66
   5   6  10    0.28    0.59
   5   6  11   11.57    1.37
   5   6  12    0.35    0.65
   5   6  13    4.42    0.99
  -5  -6 -13    3.57    0.98
  -5  -6 -14    1.88    0.90
   5   6  14    0.44    0.72
   5   6  15    2.31    0.77
   5   7  -8    2.73    1.10
   5   7  -7   -0.75    0.94
   5   7  -6   20.10    2.06
  -5  -7   5    1.46    0.48
   5   7  -5    1.09    0.72
   5   7  -5    1.91    0.53
  -5  -7   4    1.93    0.52
   5   7  -4    2.01    0.48
   5   7  -4    2.16    0.89
  -5  -7   3    9.36    0.97
  -5  -7   2    5.68    0.80
  -5  -7   1    1.78    0.57
  -5  -7   0  109.77    3.53
  -5  -7  -1   18.59    1.41
  -5  -7  -2    3.85    0.73
  -5  -7  -3   46.51    2.34
  -5  -7  -4    2.69    0.72
   5   7   4    2.98    0.63
   5   7   5   32.92    1.85
   5   7   5   35.94    2.13
  -5  -7  -5   37.05    2.18
   5   7   6    2.95    0.75
   5   7   6    3.36    0.65
  -5  -7  -6    1.91    0.70
   5   7   7    3.15    0.82
   5   7   7    2.27    0.52
   5   7   8   18.68    1.33
   5   7   8   16.91    1.57
   5   7   9    1.61    0.76
   5   7   9    0.94    0.44
   5   7  10    0.70    0.64
   5   7  11    0.48    0.58
   5   7  12    2.26    0.80
   5   7  13   15.87    1.72
   5   7  14    1.49    0.65
   5   7  15    0.01    0.64
   5   8  -6    3.76    1.13
   5   8  -5    5.96    1.21
   5   8  -4   20.80    2.02
   5   8  -4   21.00    1.48
   5   8  -3    1.70    0.53
   5   8  -3    1.85    0.86
  -5  -8   3    1.76    0.58
   5   8  -2   51.39    2.81
   5   8  -2   50.15    2.40
  -5  -8   2   54.61    2.41
  -5  -8   1    1.90    0.62
   5   8  -1    2.54    0.66
   5   8   0   19.94    1.55
  -5  -8   0   21.98    1.61
   5   8   1   77.92    3.24
  -5  -8  -1   88.65    3.37
   5   8   2    0.81    0.61
  -5  -8  -2   -0.80    0.65
   5   8   3    2.08    0.73
  -5  -8  -3    1.29    0.61
   5   8   4    2.79    0.80
   5   8   5    1.86    0.75
   5   8   5    2.58    0.59
   5   8   6    1.38    0.71
   5   8   6    1.33    0.50
   5   8   7   46.39    2.15
   5   8   7   47.92    2.74
   5   8   8    0.97    0.78
   5   8   9   -0.04    0.62
   5   8  10   -0.48    0.75
   5   8  11    3.39    0.97
   5   8  12    6.11    1.17
   5   8  13    2.03    0.85
   5   9  -5   16.71    1.99
   5   9  -4   -0.59    0.69
   5   9  -3    0.16    0.65
   5   9  -2    1.17    0.53
   5   9  -2    1.23    0.76
   5   9  -1    1.44    0.53
   5   9  -1    1.96    0.77
   5   9   0   25.29    1.96
   5   9   0   27.75    1.99
   5   9   1    0.19    0.52
   5   9   2    4.38    0.97
   5   9   3   19.78    1.80
   5   9   4   20.92    1.88
   5   9   5   74.70    3.63
   5   9   6    2.52    0.92
   5   9   7    9.63    1.41
   5   9   8   15.73    1.81
   5   9   9    0.39    0.71
   5   9  10    4.70    1.08
   5   9  11   11.01    1.60
   5   9  12    0.99    0.83
   5  10  -4    5.90    1.23
   5  10  -3    9.21    1.44
   5  10  -2   -0.19    0.64
   5  10  -1   20.79    1.95
   5  10  -1   20.21    1.79
   5  10   0    1.18    0.72
   5  10   0   -0.06    0.60
   5  10   1    1.18    0.71
   5  10   1    1.11    0.68
   5  10   2   -0.58    0.79
   5  10   2    0.97    0.56
   5  10   3    4.65    1.03
   5  10   3    5.67    0.95
   5  10   4    1.00    0.77
   5  10   5    3.96    1.03
   5  10   6    2.63    1.03
   5  10   7   12.01    1.61
   5  10   8    0.90    0.77
   5  10   9   10.94    1.63
   5  10  10   -0.85    1.01
   5  11  -2   -0.23    0.67
   5  11  -1   -0.43    0.77
   5  11   0    1.52    0.72
   5  11   1    5.64    1.05
   5  11   1    2.07    0.69
   5  11   2   -1.00    0.84
   5  11   3    7.29    1.28
   5  11   4    1.46    0.85
   5  11   5    5.27    1.26
   5  11   6    0.26    0.81
   5  11   7    2.49    0.97
   5  12   2    1.75    0.81
   5  12   3   -0.16    0.73
   5  12   4    6.49    1.34
  -6   8   4    6.24    1.35
  -6   8   3    3.94    1.08
  -6   8   3    3.26    1.07
  -6   8   2    0.99    0.70
  -6   8   1   -0.92    0.85
  -6   7   7    2.61    1.05
  -6   7   6    1.98    0.92
  -6   7   5   -0.42    0.80
  -6   7   4    1.14    0.73
  -6   7   3    5.80    1.07
  -6   7   3    6.14    1.23
  -6   7   2    4.46    1.03
  -6   7   1    6.40    1.06
  -6   7   1    5.97    1.05
  -6   7   0   11.70    1.38
  -6   7   0   12.40    1.42
  -6   7  -1    5.43    0.95
  -6   7  -1    3.64    0.92
  -6   7  -2    1.70    0.85
  -6   7  -3    0.39    0.73
  -6   7  -4   -0.52    0.85
  -6   6  10    0.11    0.74
  -6   6   9    0.29    0.70
  -6   6   8    0.70    0.81
  -6   6   7    5.90    1.27
  -6   6   6    0.66    0.74
  -6   6   5    3.21    1.05
  -6   6   4    9.94    1.43
  -6   6   3   13.75    1.55
  -6   6   3   15.32    1.72
  -6   6   2   17.77    1.69
  -6   6   1    1.26    0.68
  -6   6   1    1.39    0.67
  -6   6   0    0.45    0.52
  -6   6   0   -0.01    0.57
  -6   6  -1    1.43    0.62
  -6   6  -1    2.30    0.80
  -6   6  -2    0.32    0.47
  -6   6  -2    1.18    0.70
  -6   6  -3    3.54    1.02
  -6   6  -4   11.62    1.60
  -6   6  -5    2.32    0.97
  -6   5  11    5.27    1.35
  -6   5  10    2.38    0.96
  -6   5   9    1.77    0.82
  -6   5   8   17.02    2.01
  -6   5   7    1.54    0.93
  -6   5   6    0.32    0.81
  -6   5   5    2.08    0.94
  -6   5   4    0.19    0.55
  -6   5   3    2.14    0.80
  -6   5   3    2.94    0.87
  -6   5   2    0.16    0.55
  -6   5   1    4.47    0.90
  -6   5   0   13.94    1.40
  -6   5   0   13.98    1.43
  -6   5  -1   31.24    1.99
  -6   5  -1   34.46    2.25
  -6   5  -2   24.55    1.71
  -6   5  -2   23.83    1.96
  -6   5  -3    7.04    0.93
  -6   5  -3    5.45    1.09
  -6   5  -4   13.44    1.17
  -6   5  -4   15.14    1.78
  -6   5  -5   19.82    2.10
  -6   5  -6    0.82    0.79
  -6   4  13    0.87    0.88
  -6   4  12    0.15    0.76
  -6   4  11    0.14    0.73
  -6   4  10    3.05    1.01
  -6   4   9   10.58    1.52
  -6   4   8    0.94    0.59
  -6   4   7    2.36    0.88
   6  -4  -6    7.00    0.92
  -6   4   6    7.43    1.25
   6  -4  -5    5.21    0.83
  -6   4   5    4.61    0.98
  -6   4   4   53.34    2.86
   6  -4  -4   60.38    2.64
  -6   4   4   61.93    3.13
  -6   4   3    3.45    0.83
  -6   4   2    0.83    0.68
  -6   4   1    2.70    0.69
  -6   4   0   -0.50    0.54
  -6   4   0    0.65    0.54
  -6   4  -1    2.30    0.65
  -6   4  -1    1.48    0.60
  -6   4  -2    0.53    0.48
  -6   4  -2    1.97    0.76
  -6   4  -3   -0.71    0.55
  -6   4  -3    0.27    0.62
  -6   4  -4   14.92    1.23
  -6   4  -4   15.50    1.67
  -6   4  -5   12.02    1.05
  -6   4  -5   13.11    1.64
  -6   4  -6    6.54    1.29
  -6   4  -7    8.42    1.54
  -6   4  -8   13.41    1.89
  -6   3  13   -0.04    0.73
  -6   3  12    0.72    0.73
   6  -3 -11   11.94    1.28
  -6   3  11   11.27    1.61
  -6   3  11   12.97    1.66
  -6   3  10    0.40    0.75
  -6   3  10    0.40    0.72
  -6   3   9    0.12    0.74
  -6   3   8   33.13    2.41
   6  -3  -7    7.46    1.01
  -6   3   7    7.37    1.14
  -6   3   7    7.97    1.25
  -6   3   6   26.13    2.02
   6  -3  -6   24.27    1.64
  -6   3   6   24.77    2.06
   6  -3  -5    2.20    0.60
  -6   3   5    1.60    0.73
   6  -3  -4    6.28    0.88
  -6   3   4    3.70    0.86
  -6   3   3   39.77    2.28
   6  -3  -3   42.45    2.20
  -6   3   2   15.82    1.42
  -6   3   1   15.78    1.40
  -6   3   0   32.42    1.92
  -6   3   0   32.32    1.99
  -6   3  -1    0.96    0.59
  -6   3  -1    0.94    0.60
  -6   3  -2    1.75    0.63
  -6   3  -2    0.83    0.56
  -6   3  -3   25.07    1.61
  -6   3  -3   27.66    2.02
  -6   3  -4    0.38    0.38
  -6   3  -4    0.15    0.60
  -6   3  -5    0.01    0.37
  -6   3  -5    0.23    0.67
  -6   3  -6    4.75    0.68
  -6   3  -6    7.75    1.36
  -6   3  -7    0.60    0.75
  -6   3  -8    6.32    1.33
  -6   3  -9   -0.75    1.00
  -6   2  14    0.06    0.68
   6  -2 -13    0.48    0.64
  -6   2  13   -0.16    0.65
   6  -2 -12    6.64    1.10
  -6   2  12    7.05    1.28
   6  -2 -11    2.03    0.77
  -6   2  11   -1.13    0.83
  -6   2  10    2.68    0.88
  -6   2   9    7.45    1.26
  -6   2   8    1.50    0.68
  -6   2   7    3.47    0.84
   6  -2  -6    1.20    0.48
  -6   2   6    1.57    0.71
   6  -2  -5    7.18    0.94
  -6   2   5    7.89    1.11
  -6   2   4   96.79    3.66
   6  -2  -4   92.89    3.34
  -6   2   3   26.54    1.80
   6  -2  -3   25.62    1.69
  -6   2   2   40.12    2.20
   6  -2  -2   43.19    2.20
  -6   2   1   23.77    1.62
  -6   2   0   42.95    2.17
  -6   2  -1   86.11    3.11
  -6   2  -1   88.46    3.38
  -6   2  -2    0.05    0.44
  -6   2  -2    1.41    0.60
  -6   2  -3    0.15    0.42
  -6   2  -3    0.08    0.54
  -6   2  -4    0.22    0.40
  -6   2  -4    0.01    0.62
  -6   2  -5    0.16    0.37
  -6   2  -5    0.04    0.62
  -6   2  -6    0.27    0.37
  -6   2  -6    0.79    0.72
  -6   2  -7    6.34    0.74
  -6   2  -7    6.33    1.24
  -6   2  -8    0.61    0.70
  -6   2  -9   10.02    1.65
  -6   2 -10    0.20    0.92
   6  -1 -14   -1.11    0.84
  -6   1  14   -0.18    0.62
   6  -1 -13   -0.48    0.77
  -6   1  13    0.00    0.62
   6  -1 -12    0.83    0.69
  -6   1  12    1.31    0.74
   6  -1 -11    3.79    0.93
  -6   1  11    3.19    0.86
  -6   1  10   12.13    1.44
  -6   1   9    4.17    0.88
  -6   1   8   26.20    2.03
  -6   1   7    0.98    0.52
  -6   1   6    8.01    1.11
  -6   1   5   32.98    2.06
  -6   1   4    0.23    0.48
   6  -1  -4    0.00    0.33
  -6   1   3    2.81    0.69
   6  -1  -3    1.90    0.56
  -6   1   2    0.35    0.46
   6  -1  -2    0.44    0.41
  -6   1   1    0.62    0.48
   6  -1  -1    1.18    0.49
  -6   1   0   75.98    2.89
  -6   1  -1   12.69    1.14
  -6   1  -2   17.09    1.27
  -6   1  -2   18.36    1.50
  -6   1  -3   94.83    3.11
  -6   1  -3   98.12    3.72
  -6   1  -4   70.21    2.58
  -6   1  -4   77.30    3.34
  -6   1  -5   86.62    2.88
  -6   1  -5   92.02    3.81
  -6   1  -6    3.57    0.61
  -6   1  -6    4.79    1.05
  -6   1  -7    4.81    0.68
  -6   1  -7    4.06    1.07
  -6   1  -8   13.52    1.74
  -6   1  -8   16.39    1.15
  -6   1  -9    5.16    0.67
  -6   1  -9    5.54    1.33
  -6   1 -10    1.82    1.10
  -6   1 -11    6.41    1.45
   6   0 -14   -1.90    1.01
   6   0 -13    0.25    0.75
  -6   0  13   -0.11    0.66
  -6   0  12   26.81    2.05
   6   0 -12   22.15    2.07
   6   0 -11    4.81    1.06
  -6   0  11    4.15    0.92
  -6   0  10    2.08    0.76
  -6   0   9    1.65    0.70
  -6   0   8    1.92    0.78
  -6   0   7   18.70    1.61
  -6   0   6   32.68    2.09
  -6   0   5   11.83    1.27
  -6   0   4    5.75    0.97
  -6   0   3    1.85    0.66
   6   0  -3    1.28    0.53
  -6   0   2    1.48    0.61
   6   0  -2    0.99    0.48
  -6   0   1   43.29    2.11
   6   0  -1   40.32    2.12
  -6   0   0    0.44    0.37
   6   0   0    0.47    0.40
  -6   0  -1   46.93    2.10
  -6   0  -2    0.55    0.43
   6   0   2   -0.03    0.43
  -6   0  -3   14.96    1.14
   6   0   3   16.08    1.34
  -6   0  -3   16.24    1.45
  -6   0  -4   16.95    1.21
   6   0   4   18.25    1.40
  -6   0  -4   16.87    1.50
  -6   0  -5    4.92    0.70
  -6   0  -5    4.93    0.99
   6   0   5    3.16    0.63
  -6   0  -6    0.46    0.37
  -6   0  -6    1.59    0.74
   6   0   6    0.96    0.47
   6   0   7   69.49    2.87
  -6   0  -7   76.14    3.63
  -6   0  -7   75.97    2.60
  -6   0  -8    6.25    0.78
  -6   0  -8    6.21    1.27
   6   0   8    3.14    0.69
  -6   0  -9   13.16    1.71
  -6   0  -9   14.03    1.10
  -6   0 -10    0.91    0.44
  -6   0 -10    2.33    1.10
  -6   0 -11    3.73    1.27
  -6   0 -12   16.88    2.21
   6   1 -13    7.29    1.40
   6   1 -12    0.73    0.82
  -6  -1  12    2.30    0.80
   6   1 -11    1.51    0.84
  -6  -1  11    0.61    0.58
  -6  -1  10    4.29    0.91
  -6  -1   9   10.04    1.23
  -6  -1   8  103.39    3.86
  -6  -1   7   13.21    1.35
  -6  -1   6   10.38    1.19
  -6  -1   5  122.53    4.04
  -6  -1   4   42.26    2.21
  -6  -1   3   93.20    3.33
  -6  -1   2    0.37    0.50
   6   1  -2    0.36    0.38
  -6  -1   1    1.04    0.44
   6   1  -1    2.30    0.57
   6   1  -1    1.25    0.46
  -6  -1   0   25.72    1.54
   6   1   0   26.76    1.69
   6   1   0   27.53    1.75
  -6  -1  -1   16.34    1.21
   6   1   1   16.97    1.33
   6   1   1   17.54    1.43
  -6  -1  -2    0.14    0.35
   6   1   2   -0.07    0.39
  -6  -1  -3    0.48    0.42
   6   1   3    0.01    0.35
  -6  -1  -4    0.06    0.35
   6   1   4    0.30    0.34
  -6  -1  -4    0.34    0.50
  -6  -1  -5   95.12    3.02
   6   1   5  101.62    3.36
  -6  -1  -5   93.38    3.67
  -6  -1  -6    1.52    0.47
   6   1   6    1.21    0.48
  -6  -1  -6    0.30    0.58
  -6  -1  -7    0.94    0.44
   6   1   7    1.31    0.50
  -6  -1  -7    1.01    0.75
  -6  -1  -8   18.44    1.85
  -6  -1  -8   16.55    1.21
  -6  -1  -9   13.16    1.68
  -6  -1  -9   15.18    1.19
  -6  -1 -10    9.71    1.57
  -6  -1 -10   10.31    1.04
  -6  -1 -11    5.77    1.29
  -6  -1 -11    5.83    0.81
  -6  -1 -12    1.04    1.02
  -6  -1 -13   -0.98    0.96
   6   2 -13    4.78    1.28
   6   2 -12    0.96    0.84
   6   2 -11    2.38    0.95
  -6  -2  11    0.50    0.53
   6   2 -10    1.10    0.83
  -6  -2  10   -0.85    0.67
  -6  -2   9    2.58    0.70
  -6  -2   8    1.35    0.57
  -6  -2   7   13.14    1.28
  -6  -2   6   33.76    2.00
  -6  -2   5    4.72    0.80
  -6  -2   4   34.67    1.96
   6   2  -4   40.90    2.13
  -6  -2   3   37.67    1.97
   6   2  -3   42.24    2.13
  -6  -2   2   24.71    1.53
   6   2  -2   25.75    1.65
  -6  -2   1  298.47    6.44
   6   2  -1  300.20    6.69
  -6  -2   0  150.65    4.11
   6   2   0  158.23    4.32
   6   2   0  156.23    4.53
  -6  -2  -1   81.99    2.81
   6   2   1   86.01    3.04
   6   2   1   80.46    3.13
  -6  -2  -2   14.12    1.11
   6   2   2   14.90    1.22
   6   2   2   14.01    1.26
  -6  -2  -3   18.55    1.24
   6   2   3   20.76    1.44
  -6  -2  -4   88.22    2.88
   6   2   4   93.76    3.13
  -6  -2  -5    3.11    0.57
  -6  -2  -5    2.66    0.69
  -6  -2  -6    0.33    0.40
  -6  -2  -6    0.37    0.53
  -6  -2  -7    1.11    0.44
  -6  -2  -7   -0.89    0.68
  -6  -2  -8    3.86    0.70
  -6  -2  -8    2.91    0.87
  -6  -2  -9   21.94    2.02
  -6  -2  -9   20.92    1.46
  -6  -2 -10    5.74    0.83
  -6  -2 -10    3.29    0.95
  -6  -2 -11    1.43    0.79
  -6  -2 -11    1.46    0.60
   6   2  12   18.88    1.53
  -6  -2 -12   18.50    2.15
  -6  -2 -13    3.30    1.13
   6   3 -12    0.08    0.81
   6   3 -11    0.55    0.89
   6   3 -10    6.10    1.31
  -6  -3  10    4.14    0.80
   6   3  -9    0.98    0.72
  -6  -3   9    0.93    0.53
  -6  -3   8    9.25    1.12
   6   3  -7    1.27    0.54
  -6  -3   7    0.57    0.45
   6   3  -6   10.77    1.12
  -6  -3   6   10.46    1.09
  -6  -3   5    0.71    0.47
   6   3  -5   -0.02    0.37
  -6  -3   4    1.88    0.56
  -6  -3   3   53.27    2.37
  -6  -3   2    1.69    0.54
  -6  -3   1    2.17    0.52
   6   3  -1    2.64    0.60
  -6  -3   0    4.01    0.66
   6   3   0    3.04    0.58
  -6  -3  -1    0.88    0.41
   6   3   1    1.18    0.42
   6   3   1    1.27    0.48
  -6  -3  -2    0.29    0.40
   6   3   2   -0.28    0.43
  -6  -3  -3  198.89    4.81
   6   3   3  199.24    5.37
  -6  -3  -4    9.66    0.98
  -6  -3  -5    0.10    0.40
  -6  -3  -6   55.44    2.70
  -6  -3  -6   56.43    2.32
  -6  -3  -7   29.15    2.04
  -6  -3  -7   28.01    1.65
  -6  -3  -8   28.99    2.12
  -6  -3  -8   29.61    1.73
  -6  -3  -9   10.17    1.07
  -6  -3  -9    9.96    1.39
  -6  -3 -10    1.03    0.55
  -6  -3 -10    1.89    0.88
  -6  -3 -11    6.41    1.26
   6   3  12    0.80    0.57
  -6  -3 -12    0.33    0.72
   6   3  13    0.55    0.50
  -6  -3 -13   -1.66    0.96
  -6  -3 -14    3.24    1.19
   6   4 -11    3.25    1.19
   6   4 -10    0.24    0.79
  -6  -4   9   57.16    2.50
   6   4  -9   56.94    3.47
  -6  -4   8   14.78    1.28
  -6  -4   7    4.62    0.84
   6   4  -7    3.10    0.63
  -6  -4   6   16.19    1.35
   6   4  -6   14.53    1.28
  -6  -4   5    0.97    0.49
   6   4  -5    1.24    0.47
  -6  -4   4   53.44    2.37
  -6  -4   3   18.58    1.35
  -6  -4   2    8.58    0.93
  -6  -4   1   43.24    2.00
  -6  -4   0    8.44    0.92
  -6  -4  -1   67.15    2.53
  -6  -4  -2    1.68    0.53
  -6  -4  -3   40.13    1.93
  -6  -4  -4   81.21    2.85
  -6  -4  -5    7.95    0.92
  -6  -4  -6    6.72    0.87
  -6  -4  -7   11.45    1.12
  -6  -4  -8    2.93    0.67
  -6  -4  -8    5.49    0.98
  -6  -4  -9    0.69    0.55
  -6  -4  -9    0.87    0.68
  -6  -4 -10   22.84    2.05
  -6  -4 -10   22.80    1.71
   6   4  11    3.97    0.86
  -6  -4 -11    2.43    0.95
   6   4  12    0.51    0.58
  -6  -4 -12    1.28    0.85
   6   4  13    1.44    0.69
  -6  -4 -13   -0.84    0.86
   6   4  14    1.32    0.68
  -6  -4 -14   -0.16    0.84
  -6  -4 -15    9.27    1.70
   6   5 -10   12.14    1.86
   6   5  -9    3.71    1.24
  -6  -5   8    0.59    0.45
   6   5  -8    0.41    0.83
  -6  -5   7   19.83    1.41
  -6  -5   6   11.38    1.11
  -6  -5   5  127.20    3.82
  -6  -5   4   60.75    2.52
  -6  -5   3    2.05    0.58
  -6  -5   2   59.39    2.44
  -6  -5   1   11.73    1.10
  -6  -5   0   47.25    2.17
  -6  -5  -1    5.01    0.79
  -6  -5  -2   19.77    1.38
  -6  -5  -3   47.35    2.18
  -6  -5  -4    0.22    0.38
  -6  -5  -5    0.06    0.43
  -6  -5  -6    1.21    0.59
  -6  -5  -7    6.13    0.93
  -6  -5  -8   89.69    3.37
  -6  -5  -9    0.13    0.50
  -6  -5 -10    2.54    0.76
   6   5  11    2.17    0.79
  -6  -5 -11    0.10    0.64
   6   5  12    4.07    0.94
  -6  -5 -12    2.95    0.94
  -6  -5 -13    6.27    1.29
   6   5  13    6.32    1.14
   6   5  14    4.85    1.06
  -6  -5 -14    5.53    1.33
  -6  -5 -15    1.25    0.97
   6   6  -8    1.53    0.96
   6   6  -7   20.85    2.13
  -6  -6   7   22.42    1.42
  -6  -6   6    0.94    0.49
  -6  -6   5    0.18    0.44
  -6  -6   4   43.39    2.09
  -6  -6   3    9.89    1.07
  -6  -6   2   19.59    1.41
  -6  -6   1   41.18    2.06
  -6  -6   0   20.77    1.48
  -6  -6  -1    0.61    0.53
  -6  -6  -2  138.31    4.10
  -6  -6  -3   63.03    2.62
  -6  -6  -4    0.63    0.50
  -6  -6  -5    0.83    0.58
  -6  -6  -6   10.93    1.19
  -6  -6  -7   33.27    2.02
  -6  -6  -8    0.11    0.56
  -6  -6  -9    5.54    1.00
   6   6   9    8.38    1.15
   6   6  10    2.19    0.79
   6   6  11    2.77    0.85
   6   6  12   14.12    1.59
   6   6  13    3.79    0.96
   6   6  14    0.90    0.69
   6   6  15    4.23    1.13
   6   7  -7    2.07    0.88
   6   7  -6    5.75    1.28
   6   7  -5   34.34    2.62
  -6  -7   5   33.43    1.82
  -6  -7   4    2.47    0.66
  -6  -7   3    4.37    0.73
  -6  -7   2    8.17    1.00
  -6  -7   1   17.19    1.40
  -6  -7   0  113.13    3.78
  -6  -7  -1    2.40    0.69
  -6  -7  -2    0.33    0.52
  -6  -7  -3    0.25    0.51
  -6  -7  -4    5.11    0.89
  -6  -7  -5    4.10    0.90
  -6  -7  -6   51.89    2.63
  -6  -7  -7   11.38    1.31
   6   7   8    1.40    0.64
  -6  -7  -8    0.33    0.59
   6   7   9    1.95    0.82
   6   7  10    1.89    0.80
   6   7  11   18.05    1.80
   6   7  12    3.35    0.98
   6   7  13    8.35    1.33
   6   7  14    0.08    0.86
   6   8  -6    9.81    1.67
   6   8  -5    0.40    0.64
  -6  -8   4    1.52    0.59
   6   8  -4    1.04    0.49
   6   8  -4    1.81    0.87
  -6  -8   3    0.57    0.55
   6   8  -3    0.45    0.51
  -6  -8   2    7.82    1.00
   6   8  -2    9.16    1.08
  -6  -8   1   12.94    1.26
  -6  -8   0    0.04    0.49
  -6  -8  -1    0.03    0.51
  -6  -8  -2   41.27    2.37
  -6  -8  -3    9.29    1.19
   6   8   4   86.96    3.66
  -6  -8  -4   95.80    3.75
  -6  -8  -5    0.25    0.61
   6   8   5    1.85    0.72
  -6  -8  -6    0.56    0.62
   6   8   6    0.92    0.69
   6   8   7   32.21    2.23
   6   8   8    0.29    0.67
   6   8   9    3.55    1.01
   6   8  10    9.89    1.45
   6   8  11    0.62    0.76
   6   8  12    6.87    1.30
   6   8  13    3.47    1.05
   6   9  -4    3.32    1.02
   6   9  -3    1.20    0.73
   6   9  -2   26.93    2.21
   6   9  -2   25.26    1.84
   6   9  -1   11.98    1.31
  -6  -9   1   12.65    1.34
   6   9   0    6.51    1.03
  -6  -9   0    4.37    0.93
  -6  -9  -1    2.17    0.76
   6   9   1    2.43    0.74
  -6  -9  -2    6.93    1.11
   6   9   2    5.97    1.05
   6   9   3    9.23    1.27
   6   9   4    0.76    0.69
   6   9   5   10.15    1.40
   6   9   6   18.06    1.81
   6   9   7    4.84    1.09
   6   9   8   10.62    1.43
   6   9   9    1.02    0.77
   6   9  10    2.13    0.95
   6   9  11   27.15    2.42
   6  10  -3    3.63    1.02
   6  10  -2   -0.43    0.70
   6  10  -1    8.57    1.24
   6  10  -1    9.64    1.36
   6  10   0    3.85    0.88
   6  10   0    5.04    1.03
   6  10   1    1.69    0.71
   6  10   2   10.64    1.44
   6  10   3    8.69    1.33
   6  10   4    8.83    1.40
   6  10   5   11.00    1.54
   6  10   6   -0.12    0.69
   6  10   7    0.36    0.76
   6  10   8    0.97    0.87
   6  10   9    3.17    1.06
   6  11  -1    9.73    1.51
   6  11   0   12.14    1.46
   6  11   1    9.90    1.35
   6  11   1    9.56    1.42
   6  11   2    5.76    1.21
   6  11   2    4.17    0.88
   6  11   3   19.49    2.09
   6  11   4    3.54    1.09
   6  11   5    0.17    0.80
   6  11   6   -0.63    0.90
  -7   7   4    2.10    0.97
  -7   7   3    7.87    1.38
  -7   7   2   -0.41    0.72
  -7   7   1   -1.07    0.84
  -7   7   0    1.05    0.71
  -7   7  -1    1.21    0.76
  -7   7  -2    1.92    0.89
  -7   6   7   -0.19    0.99
  -7   6   7   -0.12    0.83
  -7   6   6    1.34    0.96
  -7   6   5   -0.12    0.74
  -7   6   4    1.40    0.75
  -7   6   3    0.70    0.78
  -7   6   2   -0.04    0.61
  -7   6   1    9.77    1.31
  -7   6   0   10.17    1.32
  -7   6  -1   15.47    1.48
  -7   6  -1   14.12    1.64
  -7   6  -2    6.29    1.17
  -7   6  -3    6.22    1.26
  -7   6  -4    9.41    1.59
  -7   5   9    1.81    1.03
  -7   5   9    1.78    1.06
  -7   5   8   -0.01    0.87
  -7   5   8    1.38    0.90
  -7   5   7    9.60    1.55
  -7   5   6    4.65    1.14
  -7   5   5   37.06    2.65
  -7   5   4    0.91    0.81
  -7   5   3    4.46    1.01
  -7   5   2    7.51    1.19
  -7   5   1    0.21    0.54
  -7   5   0    2.87    0.82
  -7   5  -1    0.99    0.72
  -7   5  -1    0.80    0.72
  -7   5  -2    1.05    0.65
  -7   5  -2   -0.17    0.64
  -7   5  -3    4.63    0.86
  -7   5  -3    5.70    1.20
  -7   5  -4    2.79    1.04
  -7   5  -5    3.11    1.09
  -7   4  10   -0.51    0.93
  -7   4   9   10.47    1.54
  -7   4   8    1.05    0.75
  -7   4   7    4.29    1.03
  -7   4   6    1.03    0.68
  -7   4   5    1.24    0.75
  -7   4   4   10.04    1.34
  -7   4   3    5.75    1.05
  -7   4   2    4.35    0.88
  -7   4   1    4.99    0.98
  -7   4   0    5.34    0.94
  -7   4  -1    3.53    0.86
  -7   4  -1    2.62    0.85
  -7   4  -2   11.00    1.22
  -7   4  -2   12.37    1.49
  -7   4  -3    0.40    0.52
  -7   4  -3   -1.17    0.77
  -7   4  -4    0.37    0.50
  -7   4  -4   -0.50    0.69
  -7   4  -5   -0.15    0.78
  -7   4  -6    2.10    0.96
  -7   3  11   -0.32    0.89
  -7   3  10    0.73    0.76
  -7   3   9   -0.24    0.77
  -7   3   8    0.93    0.74
  -7   3   7    0.38    0.70
  -7   3   6    3.63    0.94
  -7   3   5   20.64    1.85
  -7   3   4   12.38    1.41
  -7   3   3   29.80    2.10
  -7   3   2   27.57    1.97
  -7   3   1   29.06    1.99
  -7   3   0   50.78    2.57
  -7   3  -1    1.12    0.60
  -7   3  -1    0.72    0.67
  -7   3  -2    0.20    0.48
  -7   3  -2   -0.30    0.60
  -7   3  -3    1.71    0.58
  -7   3  -3    2.27    0.86
  -7   3  -4    2.72    0.68
  -7   3  -4    2.66    0.96
  -7   3  -5    0.09    0.42
  -7   3  -5   -0.65    0.73
  -7   3  -6    8.32    0.95
  -7   3  -6    8.04    1.48
  -7   3  -7    1.69    1.01
  -7   2  13    0.75    0.82
   7  -2 -12    1.71    0.84
  -7   2  12    1.41    0.80
  -7   2  11    7.50    1.30
  -7   2  10    2.99    1.04
  -7   2   9    3.57    0.99
  -7   2   8    0.01    0.72
  -7   2   7   -0.91    0.79
  -7   2   6   17.66    1.75
  -7   2   5   -0.41    0.68
  -7   2   4    6.46    1.00
  -7   2   3    0.09    0.57
  -7   2   2    0.48    0.52
  -7   2   1   18.73    1.55
  -7   2   0    9.11    1.10
  -7   2  -1    8.95    1.09
  -7   2  -2   45.97    2.33
  -7   2  -2   45.82    2.62
  -7   2  -3   48.89    2.34
  -7   2  -3   50.81    2.85
  -7   2  -4   36.22    1.96
  -7   2  -4   36.89    2.52
  -7   2  -5    0.92    0.47
  -7   2  -5    2.81    0.95
  -7   2  -6    8.63    0.95
  -7   2  -6    9.82    1.53
  -7   2  -7   16.12    1.26
  -7   2  -7   16.10    1.99
  -7   2  -8    3.29    1.26
  -7   2  -9    1.49    1.17
   7  -1 -13    8.28    1.43
  -7   1  13    6.80    1.27
   7  -1 -12    1.90    0.80
  -7   1  12    0.22    0.70
  -7   1  11   -0.21    0.72
  -7   1  10    3.14    1.01
  -7   1   9    0.61    0.65
  -7   1   8    3.51    0.94
  -7   1   7    4.21    0.97
  -7   1   6   10.67    1.37
  -7   1   5    2.70    0.87
  -7   1   4    2.79    0.85
  -7   1   3    4.43    0.84
  -7   1   2   13.58    1.35
  -7   1   1    4.78    0.84
  -7   1   0   34.20    2.04
  -7   1  -1    0.82    0.53
  -7   1  -2    4.72    0.83
  -7   1  -3    1.59    0.56
  -7   1  -3    1.97    0.74
  -7   1  -4    2.84    0.67
  -7   1  -4    3.45    0.89
  -7   1  -5    2.02    0.61
  -7   1  -5    1.53    0.73
  -7   1  -6   47.92    2.22
  -7   1  -6   58.50    3.32
  -7   1  -7    3.23    0.65
  -7   1  -7    2.53    1.03
  -7   1  -8   14.58    1.86
  -7   1  -8   16.92    1.31
  -7   1  -9    2.89    1.18
  -7   1 -10    5.81    1.44
   7   0 -13    0.46    0.83
  -7   0  13   -0.08    0.66
   7   0 -12    1.92    0.77
  -7   0  12    2.43    0.85
  -7   0  11    0.56    0.66
  -7   0  10    0.93    0.70
  -7   0   9   14.59    1.59
  -7   0   8    0.77    0.64
  -7   0   7    3.95    1.03
  -7   0   6   68.38    3.27
  -7   0   5   13.45    1.38
  -7   0   4   34.56    2.17
  -7   0   3    0.92    0.57
  -7   0   2    3.19    0.82
  -7   0   1   42.49    2.28
  -7   0   0    4.77    0.85
  -7   0  -1    9.17    1.05
  -7   0  -2    3.00    0.65
  -7   0  -3    1.39    0.51
  -7   0  -3    2.10    0.71
  -7   0  -4   22.81    1.54
  -7   0  -4   22.64    1.83
  -7   0  -5    2.49    0.59
  -7   0  -5    2.38    0.85
  -7   0  -6   -0.09    0.40
  -7   0  -6   -0.60    0.65
  -7   0  -7   22.87    2.14
  -7   0  -7   23.37    1.54
  -7   0  -8    6.65    0.86
  -7   0  -8    6.40    1.27
  -7   0  -9    1.91    0.61
  -7   0  -9    1.90    1.00
  -7   0 -10    6.23    1.52
  -7   0 -11    1.51    1.07
   7   1 -13    3.29    1.18
   7   1 -12    0.28    0.78
  -7  -1  12    0.52    0.73
   7   1 -11    1.09    0.87
  -7  -1  11   -0.32    0.67
  -7  -1  10    0.46    0.65
  -7  -1   9    2.16    0.83
  -7  -1   8   44.71    2.64
  -7  -1   7    3.27    0.91
  -7  -1   6    1.17    0.72
  -7  -1   5   -0.04    0.55
  -7  -1   4    9.00    1.12
  -7  -1   3    0.72    0.62
  -7  -1   2  170.95    4.94
  -7  -1   1   41.58    2.19
  -7  -1   0   15.99    1.31
  -7  -1  -1   26.82    1.70
  -7  -1  -2   42.82    2.15
  -7  -1  -3   52.83    2.39
  -7  -1  -4    1.14    0.52
  -7  -1  -5    3.87    0.71
  -7  -1  -5    3.82    0.87
  -7  -1  -6    3.22    0.65
  -7  -1  -6    2.18    0.79
  -7  -1  -7    6.85    0.91
  -7  -1  -7    5.60    1.07
  -7  -1  -8    5.65    0.81
  -7  -1  -8    5.59    1.25
  -7  -1  -9    2.75    0.68
  -7  -1  -9    2.36    1.01
  -7  -1 -10    0.60    0.50
  -7  -1 -10   -0.53    0.84
  -7  -1 -11   25.07    2.57
   7   2 -12    0.92    0.82
   7   2 -11    3.31    1.17
  -7  -2  11    1.81    0.67
  -7  -2  10    1.11    0.63
  -7  -2   9    4.90    0.92
  -7  -2   8    3.28    0.83
  -7  -2   7    3.36    0.82
  -7  -2   6   -0.91    0.68
  -7  -2   5    7.08    1.01
  -7  -2   4   60.30    2.78
  -7  -2   3    2.92    0.75
  -7  -2   2    0.59    0.53
  -7  -2   1   35.29    1.97
  -7  -2   0    0.48    0.51
  -7  -2  -1    0.70    0.46
  -7  -2  -2   88.29    3.14
  -7  -2  -3   21.40    1.47
  -7  -2  -4    4.96    0.76
  -7  -2  -5   96.14    3.27
  -7  -2  -6   26.29    2.02
  -7  -2  -6   27.38    1.69
  -7  -2  -7   24.96    2.07
  -7  -2  -7   26.82    1.68
  -7  -2  -8    4.88    0.80
  -7  -2  -8    5.99    1.24
  -7  -2  -9    0.72    0.55
  -7  -2  -9    1.09    0.87
  -7  -2 -10   17.25    2.02
  -7  -2 -10   18.02    1.50
  -7  -2 -11    2.44    0.71
  -7  -2 -11    4.09    1.25
  -7  -2 -12    1.15    0.98
   7   3 -11    0.42    0.70
  -7  -3  10   30.09    2.07
   7   3 -10   34.51    2.79
  -7  -3   9    3.84    0.88
  -7  -3   8    0.09    0.52
  -7  -3   7    0.97    0.62
  -7  -3   6    0.45    0.57
  -7  -3   5   25.14    1.77
  -7  -3   4    6.59    0.93
  -7  -3   3   18.12    1.49
  -7  -3   2   28.62    1.81
  -7  -3   1   -0.16    0.47
  -7  -3   0   39.33    2.08
  -7  -3  -1    7.06    0.90
  -7  -3  -2    4.82    0.79
  -7  -3  -3  158.45    4.42
  -7  -3  -4   17.71    1.36
  -7  -3  -5    4.76    0.77
  -7  -3  -6    6.44    0.85
  -7  -3  -7    1.89    0.65
  -7  -3  -7    0.73    0.59
  -7  -3  -8    9.50    1.07
  -7  -3  -8    8.42    1.29
  -7  -3  -9   23.66    2.15
  -7  -3  -9   22.17    1.65
  -7  -3 -10    6.62    0.97
  -7  -3 -10    6.97    1.33
  -7  -3 -11    3.87    0.83
  -7  -3 -11    5.22    1.28
  -7  -3 -12    0.83    0.93
  -7  -3 -13   -0.42    0.97
   7   4 -10    4.77    1.34
  -7  -4   9    1.46    0.78
  -7  -4   8   11.01    1.29
  -7  -4   7    3.19    0.83
  -7  -4   6   68.22    3.00
  -7  -4   5   18.83    1.57
  -7  -4   4    0.82    0.59
  -7  -4   3   83.66    3.20
  -7  -4   2   28.21    1.83
  -7  -4   1   23.53    1.60
  -7  -4   0   -0.30    0.53
  -7  -4  -1   18.52    1.42
  -7  -4  -2   88.86    3.20
  -7  -4  -3    0.19    0.39
  -7  -4  -4   21.57    1.55
  -7  -4  -5   11.27    1.15
  -7  -4  -6    8.59    1.01
  -7  -4  -7  159.71    4.63
  -7  -4  -8    5.23    0.92
  -7  -4  -9    0.95    0.62
  -7  -4 -10   23.00    2.14
  -7  -4 -10   24.22    1.82
  -7  -4 -11   12.73    1.41
  -7  -4 -11   11.93    1.66
   7   4  12    5.72    1.06
  -7  -4 -12    5.89    1.31
   7   4  13    2.65    0.81
  -7  -4 -13    3.80    1.24
  -7  -4 -14    0.72    0.85
   7   5  -9    1.42    0.91
  -7  -5   8    1.10    0.58
  -7  -5   7   -0.01    0.55
  -7  -5   6   -0.59    0.60
  -7  -5   5   24.97    1.75
  -7  -5   4    6.90    1.01
  -7  -5   3    4.14    0.85
  -7  -5   2   12.72    1.24
  -7  -5   1   56.39    2.58
  -7  -5   0    2.02    0.65
  -7  -5  -1  115.29    3.79
  -7  -5  -2   63.04    2.69
  -7  -5  -3    1.18    0.60
  -7  -5  -4   34.05    1.96
  -7  -5  -5    2.45    0.68
  -7  -5  -6   51.24    2.46
  -7  -5  -7    0.48    0.52
  -7  -5  -8    5.03    0.91
  -7  -5  -9   12.37    1.36
  -7  -5 -10    3.51    0.85
  -7  -5 -11   23.64    1.94
   7   5  12    1.42    0.76
   7   5  13    1.17    0.73
  -7  -5 -13    0.31    0.78
  -7  -5 -14    5.60    1.36
   7   5  14    7.80    1.24
   7   6  -8    1.69    0.95
  -7  -6   7    6.54    0.94
  -7  -6   6   14.61    1.36
  -7  -6   5   -0.01    0.51
  -7  -6   4    2.51    0.70
  -7  -6   3   24.85    1.76
  -7  -6   2    8.89    1.10
  -7  -6   1   92.44    3.44
  -7  -6   0    6.63    1.00
  -7  -6  -1    1.98    0.66
  -7  -6  -2    5.73    0.89
  -7  -6  -3    0.50    0.55
  -7  -6  -4    8.01    1.07
  -7  -6  -5   44.62    2.36
  -7  -6  -6   11.47    1.28
  -7  -6  -7    1.61    0.67
  -7  -6  -8    9.05    1.23
  -7  -6  -9    1.20    0.69
  -7  -6 -10    3.82    0.91
   7   6  11    0.89    0.72
   7   6  12    6.24    1.15
   7   6  13    7.46    1.25
   7   6  14    0.44    0.73
  -7  -7   6   18.01    1.44
  -7  -7   5    2.46    0.68
  -7  -7   4    3.52    0.81
  -7  -7   3    8.90    1.06
  -7  -7   2   29.68    1.94
  -7  -7   1    1.43    0.62
  -7  -7   0    2.20    0.73
  -7  -7  -1   50.56    2.52
  -7  -7  -2   20.25    1.63
  -7  -7  -3   80.02    3.31
  -7  -7  -4   12.23    1.35
  -7  -7  -5   10.68    1.32
  -7  -7  -6   86.51    3.59
  -7  -7  -7    3.29    0.88
  -7  -7  -8    2.23    0.86
  -7  -7  -9    0.24    0.57
   7   7   9    2.22    0.92
   7   7  10    1.05    0.66
   7   7  11    9.07    1.36
   7   7  12    4.46    1.05
   7   7  13    0.37    0.73
   7   8  -5   21.02    2.20
  -7  -8   4    8.77    1.15
  -7  -8   3   27.37    1.88
  -7  -8   2   19.55    1.64
  -7  -8   1    6.51    1.03
  -7  -8   0   16.34    1.54
  -7  -8  -1    0.43    0.59
  -7  -8  -2    0.13    0.61
  -7  -8  -3    1.22    0.66
  -7  -8  -4   17.20    1.68
  -7  -8  -5   28.50    2.14
  -7  -8  -6    2.25    0.80
   7   8   7    4.41    1.02
  -7  -8  -7    2.42    0.80
   7   8   8   18.64    1.82
  -7  -8  -8   14.14    1.64
   7   8   9    2.73    0.94
   7   8  10   34.98    2.55
   7   8  11    1.77    0.88
   7   9  -4    3.81    1.09
  -7  -9   3    3.97    0.91
  -7  -9   2   12.41    1.36
   7   9  -2   10.53    1.25
  -7  -9   1    3.77    0.81
   7   9  -1    4.13    0.91
   7   9   0    9.71    1.27
  -7  -9   0   10.35    1.31
  -7  -9  -1    2.04    0.70
   7   9   1    1.85    0.65
   7   9   2   15.42    1.65
  -7  -9  -2   18.93    1.77
  -7  -9  -3   -0.36    0.69
   7   9   3    0.61    0.65
  -7  -9  -4   12.04    1.46
   7   9   4   11.23    1.44
   7   9   5    1.94    0.82
  -7  -9  -5    2.14    0.83
   7   9   6    7.15    1.19
  -7  -9  -6    5.20    1.09
   7   9   7    0.55    0.80
   7   9   8    5.57    1.17
   7   9   9    8.13    1.40
   7   9  10    0.97    0.91
   7  10  -2   11.62    1.53
   7  10  -1    1.20    0.66
   7  10   0   15.00    1.62
   7  10   1    1.34    0.66
   7  10   2   20.81    1.97
   7  10   3    0.61    0.73
   7  10   4    8.40    1.37
   7  10   5    1.61    0.87
   7  10   6    4.17    1.13
   7  10   7    0.67    0.83
   7  11   0    3.49    0.99
   7  11   1    2.17    0.85
   7  11   1    1.20    0.65
   7  11   2    4.16    1.06
   7  11   3    0.66    0.75
   7  11   4   11.81    1.72
  -8   6   3    0.98    0.68
  -8   6   2   -0.56    0.70
  -8   6   1    0.35    0.78
  -8   6   0   -0.18    0.67
  -8   6  -2    0.95    0.77
  -8   5   6   -1.40    0.76
  -8   5   5    0.49    0.70
  -8   5   4   -0.11    0.71
  -8   5   3    1.51    0.82
  -8   5   2    3.42    0.96
  -8   5   1    4.78    1.08
  -8   5   0    2.15    0.80
  -8   5  -1    5.35    1.01
  -8   5  -2    1.02    0.69
  -8   5  -2    1.22    0.74
  -8   5  -3   -0.32    0.81
  -8   4   8   -0.29    0.80
  -8   4   7    0.09    0.79
  -8   4   6    5.21    1.10
  -8   4   5   17.48    1.86
  -8   4   4    0.74    0.71
  -8   4   3   16.65    1.74
  -8   4   2   14.50    1.59
  -8   4   1   19.50    1.80
  -8   4   0    2.76    0.87
  -8   4  -1   -0.64    0.59
  -8   4  -2    4.08    0.88
  -8   4  -2    2.90    0.94
  -8   4  -3   -0.65    0.55
  -8   4  -3    0.73    0.72
  -8   4  -4    0.26    0.81
  -8   4  -5    2.69    1.09
  -8   3   9    4.47    1.15
  -8   3   8    2.61    1.03
  -8   3   7   12.97    1.69
  -8   3   6    2.72    0.97
  -8   3   5    0.67    0.75
  -8   3   4    1.47    0.77
  -8   3   3    2.44    0.91
  -8   3   2    8.11    1.29
  -8   3   1    4.58    0.98
  -8   3   0    2.70    0.78
  -8   3  -1   28.27    1.98
  -8   3  -2   35.86    2.20
  -8   3  -3   20.69    1.65
  -8   3  -3   19.97    2.01
  -8   3  -4   10.13    1.16
  -8   3  -4    9.95    1.50
  -8   3  -5   15.43    1.39
  -8   3  -5   13.61    1.78
  -8   3  -6    7.12    1.41
  -8   2  10    1.23    0.86
  -8   2   9    1.10    0.88
  -8   2   8    6.60    1.31
  -8   2   7   13.15    1.65
  -8   2   6    0.31    0.66
  -8   2   5    8.50    1.29
  -8   2   4   14.34    1.61
  -8   2   3   12.01    1.44
  -8   2   2    3.09    0.87
  -8   2   1    1.13    0.75
  -8   2   0    0.74    0.62
  -8   2  -1   -0.09    0.58
  -8   2  -2    0.01    0.50
  -8   2  -3    0.23    0.46
  -8   2  -3    0.10    0.68
  -8   2  -4    1.08    0.57
  -8   2  -4    1.00    0.89
  -8   2  -5   19.65    1.59
  -8   2  -5   21.38    2.15
  -8   2  -6   10.14    1.13
  -8   2  -6   12.03    1.70
  -8   2  -7    2.47    1.06
   8  -1 -12    1.76    0.91
  -8   1  11    0.98    0.73
  -8   1  10    8.34    1.40
  -8   1   9    6.25    1.29
  -8   1   8    2.18    0.94
  -8   1   7   30.58    2.33
  -8   1   6   14.74    1.64
  -8   1   5   19.41    1.82
  -8   1   4    0.92    0.67
  -8   1   3    0.04    0.60
  -8   1   2   13.22    1.42
  -8   1   1    2.77    0.77
  -8   1   0   21.99    1.71
  -8   1  -1   -0.25    0.52
  -8   1  -2    4.68    0.88
  -8   1  -3    4.06    0.86
  -8   1  -4    0.04    0.50
  -8   1  -4    0.41    0.77
  -8   1  -5    0.37    0.56
  -8   1  -5    0.69    0.74
  -8   1  -6   14.41    1.34
  -8   1  -6   14.78    1.86
  -8   1  -7    1.70    0.58
  -8   1  -7    1.46    0.87
  -8   1  -8    1.68    0.87
   8   0 -12    4.56    1.16
  -8   0  12    3.22    0.98
  -8   0  11    1.79    0.88
  -8   0  10    1.41    0.74
  -8   0   9    3.56    0.91
  -8   0   8   11.92    1.54
  -8   0   7   11.03    1.42
  -8   0   6    0.12    0.62
  -8   0   5   17.49    1.74
  -8   0   4   10.39    1.25
  -8   0   3   66.46    3.14
  -8   0   2   54.08    2.80
  -8   0   1   28.90    1.99
  -8   0   0   37.52    2.21
  -8   0  -1   23.21    1.74
  -8   0  -2   17.07    1.47
  -8   0  -3    0.75    0.49
  -8   0  -4    4.00    0.78
  -8   0  -5    2.12    0.62
  -8   0  -5    2.16    0.89
  -8   0  -6   -0.32    0.57
  -8   0  -6   -0.40    0.66
  -8   0  -7   -0.17    0.48
  -8   0  -7   -0.05    0.77
  -8   0  -8    0.40    0.48
  -8   0  -8    0.20    0.70
  -8   0  -9   -0.12    1.04
   8   1 -12    1.71    0.99
  -8  -1  12   -0.33    0.67
  -8  -1  11    1.70    0.80
  -8  -1  10   -0.26    0.65
  -8  -1   9    0.54    0.66
  -8  -1   8   15.21    1.64
  -8  -1   7    0.15    0.65
  -8  -1   6    0.59    0.67
  -8  -1   5    1.10    0.74
  -8  -1   4    4.82    0.95
  -8  -1   3    0.72    0.58
  -8  -1   2   13.57    1.36
  -8  -1   1    3.11    0.75
  -8  -1   0    1.43    0.62
  -8  -1  -1   40.59    2.23
  -8  -1  -2   27.43    1.87
  -8  -1  -3    0.54    0.45
  -8  -1  -4   43.56    2.26
  -8  -1  -5   20.39    1.56
  -8  -1  -6   16.69    1.42
  -8  -1  -6   18.24    1.86
  -8  -1  -7    1.02    0.60
  -8  -1  -7    1.71    1.00
  -8  -1  -8    0.97    0.63
  -8  -1  -8    1.85    0.96
  -8  -1  -9    7.54    1.04
  -8  -1  -9    6.34    1.42
  -8  -1 -10    0.87    0.55
  -8  -1 -10   -1.10    1.12
   8   2 -11   11.48    1.75
  -8  -2  11    8.58    1.28
  -8  -2  10    2.10    0.79
  -8  -2   9    0.40    0.59
  -8  -2   8    3.32    0.92
  -8  -2   7    2.76    0.75
  -8  -2   6    0.08    0.61
  -8  -2   5    0.09    0.61
  -8  -2   4   22.54    1.85
  -8  -2   3    1.83    0.69
  -8  -2   2   -0.38    0.55
  -8  -2   1    0.14    0.51
  -8  -2   0   -0.60    0.57
  -8  -2  -1    1.24    0.59
  -8  -2  -2   48.32    2.46
  -8  -2  -3    0.10    0.54
  -8  -2  -4    0.90    0.49
  -8  -2  -5    0.80    0.54
  -8  -2  -6    1.03    0.55
  -8  -2  -7    0.21    0.48
  -8  -2  -7    1.14    0.87
  -8  -2  -8   25.63    2.32
  -8  -2  -8   30.66    1.97
  -8  -2  -9    5.57    0.94
  -8  -2  -9    5.49    1.20
  -8  -2 -10    1.59    0.69
  -8  -2 -10   -0.36    0.92
  -8  -2 -11    0.96    0.63
  -8  -2 -11    0.81    1.11
  -8  -3  10    3.50    0.90
  -8  -3   9    1.05    0.67
  -8  -3   8   11.77    1.40
  -8  -3   7   10.97    1.33
  -8  -3   6   27.49    2.03
  -8  -3   5    2.73    0.83
  -8  -3   4   54.28    2.80
  -8  -3   3   21.44    1.73
  -8  -3   2    0.77    0.66
  -8  -3   1    0.42    0.55
  -8  -3   0    7.29    1.04
  -8  -3  -1   20.55    1.60
  -8  -3  -2    8.67    1.06
  -8  -3  -3    4.81    0.87
  -8  -3  -4    0.77    0.58
  -8  -3  -5    0.99    0.55
  -8  -3  -6   37.00    2.13
  -8  -3  -7    1.78    0.73
  -8  -3  -8    0.42    0.55
  -8  -3  -9   16.31    1.90
  -8  -3  -9   18.57    1.59
  -8  -3 -10    1.62    0.75
  -8  -3 -10    1.76    0.93
  -8  -3 -11    0.46    0.60
  -8  -3 -11    2.14    1.11
  -8  -3 -12   -0.71    0.65
  -8  -3 -12   -0.04    0.94
  -8  -4   9    1.22    0.73
  -8  -4   8    0.22    0.59
  -8  -4   7    0.56    0.56
  -8  -4   6   19.19    1.75
  -8  -4   5    2.00    0.81
  -8  -4   4   18.03    1.63
  -8  -4   3    3.21    0.79
  -8  -4   2   20.94    1.69
  -8  -4   1    1.91    0.69
  -8  -4   0   76.37    3.18
  -8  -4  -1   62.12    2.83
  -8  -4  -2    1.69    0.71
  -8  -4  -3   17.16    1.48
  -8  -4  -4    0.98    0.54
  -8  -4  -5    0.89    0.61
  -8  -4  -6    1.16    0.65
  -8  -4  -7   21.38    1.72
  -8  -4  -8    1.61    0.75
  -8  -4  -9    2.63    0.81
  -8  -4 -10    3.25    0.87
  -8  -4 -11    2.62    0.87
  -8  -4 -11    0.35    0.77
  -8  -4 -12    1.01    0.92
  -8  -4 -12    0.13    0.66
   8   4  13   13.33    1.59
  -8  -5   8    4.64    0.96
  -8  -5   7    6.57    1.08
  -8  -5   6    2.08    0.69
  -8  -5   5    5.09    0.96
  -8  -5   4    9.39    1.22
  -8  -5   3   13.75    1.44
  -8  -5   2   26.93    1.91
  -8  -5   1    4.28    0.80
  -8  -5   0    5.46    0.94
  -8  -5  -1   16.40    1.46
  -8  -5  -2    2.34    0.69
  -8  -5  -3   22.36    1.66
  -8  -5  -4   42.63    2.35
  -8  -5  -5   18.65    1.62
  -8  -5  -6    2.33    0.73
  -8  -5  -7   16.13    1.56
  -8  -5  -8    3.44    0.84
  -8  -5  -9    2.10    0.78
  -8  -5 -10   -0.14    0.64
  -8  -5 -11   12.18    1.55
   8   5  13    1.18    0.78
  -8  -6   7    7.14    1.09
  -8  -6   6    6.95    1.07
  -8  -6   5    2.05    0.78
  -8  -6   4    0.41    0.59
  -8  -6   3    4.91    0.97
  -8  -6   2    0.51    0.61
  -8  -6   1   14.94    1.48
  -8  -6   0   41.20    2.36
  -8  -6  -1    9.88    1.26
  -8  -6  -2   22.51    1.77
  -8  -6  -3   16.31    1.53
  -8  -6  -4    2.87    0.77
  -8  -6  -5   50.55    2.64
  -8  -6  -6    4.82    0.97
  -8  -6  -7    2.27    0.78
  -8  -6  -8    0.63    0.68
  -8  -6  -9    0.17    0.63
  -8  -6 -10    4.16    0.98
  -8  -6 -11    2.76    0.85
   8   6  12    4.98    1.13
  -8  -7   6    4.98    0.96
  -8  -7   5    8.35    1.13
  -8  -7   4   15.13    1.50
  -8  -7   3   34.90    2.26
  -8  -7   2    0.66    0.62
  -8  -7   1   14.91    1.51
  -8  -7   0    9.78    1.28
  -8  -7  -1    4.02    0.91
  -8  -7  -2    2.80    0.76
  -8  -7  -3    8.85    1.14
  -8  -7  -4   17.55    1.65
  -8  -7  -5   12.39    1.39
  -8  -7  -6    0.73    0.66
  -8  -7  -7    8.72    1.32
  -8  -7  -8    2.77    0.90
  -8  -7  -9   39.74    2.63
  -8  -7 -10    5.59    1.10
   8   7  11    0.46    0.69
  -8  -8   4   -0.14    0.56
  -8  -8   3   11.14    1.35
  -8  -8   2    0.45    0.60
  -8  -8   1   18.16    1.71
  -8  -8   0    5.03    1.00
  -8  -8  -1   27.33    2.10
  -8  -8  -2    2.40    0.84
  -8  -8  -3   13.21    1.53
  -8  -8  -4   22.32    1.92
  -8  -8  -5    3.14    0.90
  -8  -8  -6    1.06    0.76
  -8  -8  -7    2.34    0.89
  -8  -8  -8    2.77    0.87
  -8  -8  -9    1.13    0.79
   8   8   9    1.09    0.76
   8   8  10    8.97    1.41
  -8  -9   3   16.83    1.64
  -8  -9   2    0.38    0.60
  -8  -9   1   27.88    2.16
  -8  -9   0    9.36    1.37
  -8  -9  -1   22.26    1.93
  -8  -9  -2   11.57    1.50
  -8  -9  -3    4.26    1.05
  -8  -9  -4   12.09    1.51
  -8  -9  -5    0.10    0.83
  -8  -9  -6    0.73    0.78
   8   9   6    1.37    0.82
  -8  -9  -7    5.03    1.23
   8   9   7    4.11    1.06
   8   9   8    7.16    1.29
  -8 -10   1   -0.96    0.77
   8  10  -1    0.52    0.56
  -8 -10   0    3.55    0.99
   8  10   0    2.84    0.82
  -8 -10  -1    6.74    1.28
   8  10   1    6.82    1.20
  -8 -10  -2    0.96    0.69
   8  10   2    0.64    0.73
  -8 -10  -3   18.45    1.94
   8  10   3   14.50    1.76
   8  10   4   17.62    1.94
  -8 -10  -4   20.81    2.09
   8  10   5   19.00    2.01
  -8 -10  -5   18.53    2.00
   8  11   1    2.74    0.97
  -9   5   1    3.00    0.98
  -9   5   0    0.16    0.77
  -9   5  -1    0.10    0.69
  -9   4   4    2.22    0.99
  -9   4   3    1.22    0.83
  -9   4   2    2.65    0.87
  -9   4   1    2.65    0.93
  -9   4   0   11.25    1.44
  -9   4  -1    8.45    1.25
  -9   4  -2    7.86    1.20
  -9   4  -3    8.34    1.15
  -9   3   6    2.83    0.87
  -9   3   5    4.56    1.15
  -9   3   4    6.20    1.25
  -9   3   3    1.19    0.79
  -9   3   2    2.04    0.91
  -9   3   1    1.36    0.68
  -9   3   0   -0.30    0.62
  -9   3  -1    0.99    0.65
  -9   3  -2    0.59    0.64
  -9   3  -3    0.41    0.59
  -9   3  -4    7.12    1.10
  -9   3  -4    9.25    1.56
  -9   2   7    9.01    1.54
  -9   2   6    4.14    1.18
  -9   2   5    2.95    1.02
  -9   2   4    2.51    1.00
  -9   2   3    3.96    1.02
  -9   2   2    1.52    0.85
  -9   2   1    8.71    1.25
  -9   2   0    0.33    0.58
  -9   2  -1    2.37    0.79
  -9   2  -2    0.28    0.55
  -9   2  -3    0.91    0.71
  -9   2  -4    1.86    0.70
  -9   2  -5    6.59    1.04
  -9   2  -5   10.75    1.68
  -9   1   9    4.22    1.17
  -9   1   8    1.58    0.90
  -9   1   7    0.62    0.89
  -9   1   6    7.36    1.37
  -9   1   5    3.57    0.99
  -9   1   4   27.47    2.18
  -9   1   3   31.71    2.34
  -9   1   2    6.26    1.10
  -9   1   1   25.62    2.03
  -9   1   0   29.90    2.15
  -9   1  -1   19.91    1.72
  -9   1  -2    1.70    0.75
  -9   1  -3   -0.39    0.59
  -9   1  -4    4.76    0.91
  -9   1  -5    0.94    0.61
  -9   1  -5    0.51    0.78
  -9   1  -6    0.04    0.52
  -9   1  -6    1.91    1.09
  -9   1  -7   -0.53    0.58
  -9   0   9   16.11    1.84
  -9   0   8    0.16    0.65
  -9   0   7    1.97    0.88
  -9   0   6   -0.46    0.69
  -9   0   5   -0.07    0.78
  -9   0   4    3.00    0.80
  -9   0   3    9.74    1.33
  -9   0   2    2.57    0.86
  -9   0   1    3.07    0.87
  -9   0   0   15.89    1.56
  -9   0  -1   12.89    1.40
  -9   0  -2    6.96    1.12
  -9   0  -3   55.65    2.83
  -9   0  -4   54.36    2.77
  -9   0  -5   10.83    1.26
  -9   0  -6    6.34    1.04
  -9   0  -6    8.46    1.50
  -9   0  -7    5.68    1.00
  -9   0  -7    6.71    1.49
  -9   0  -8   10.77    1.25
  -9  -1  10    1.41    0.88
  -9  -1   9    4.07    1.00
  -9  -1   8   -1.21    0.91
  -9  -1   7    1.14    0.78
  -9  -1   6    0.47    0.67
  -9  -1   5   15.70    1.66
  -9  -1   4    3.79    1.00
  -9  -1   3    0.61    0.75
  -9  -1   2    6.45    1.10
  -9  -1   1    0.51    0.59
  -9  -1   0    0.02    0.57
  -9  -1  -1   20.08    1.73
  -9  -1  -2    4.79    0.96
  -9  -1  -3    0.74    0.60
  -9  -1  -4   -0.19    0.67
  -9  -1  -5    0.00    0.55
  -9  -1  -6   -0.28    0.53
  -9  -1  -7   11.49    1.30
  -9  -1  -8   13.87    1.40
  -9  -1  -8   13.69    1.86
  -9  -1  -9    1.65    0.70
  -9  -2  10    4.62    1.11
  -9  -2   9    8.76    1.38
  -9  -2   8    6.93    1.22
  -9  -2   7   16.09    1.74
  -9  -2   6    1.31    0.75
  -9  -2   5   30.64    2.31
  -9  -2   4   32.10    2.29
  -9  -2   3    5.97    1.03
  -9  -2   2    8.04    1.20
  -9  -2   1    0.80    0.71
  -9  -2   0   12.28    1.37
  -9  -2  -1    0.90    0.65
  -9  -2  -2    6.23    1.08
  -9  -2  -3    9.18    1.14
  -9  -2  -4    2.90    0.71
  -9  -2  -5   29.39    1.99
  -9  -2  -6    4.77    0.92
  -9  -2  -7   -0.26    0.57
  -9  -2  -8   16.28    1.53
  -9  -2  -9    4.69    0.98
  -9  -2  -9    6.40    1.47
  -9  -2 -10    1.98    0.75
  -9  -3  10    0.94    0.72
  -9  -3   9   -0.44    0.71
  -9  -3   8    2.07    0.85
  -9  -3   7    5.06    0.94
  -9  -3   6    5.36    1.03
  -9  -3   5   16.19    1.67
  -9  -3   4    0.40    0.66
  -9  -3   3   28.26    2.15
  -9  -3   2   11.67    1.45
  -9  -3   1   59.32    3.02
  -9  -3   0  100.21    3.95
  -9  -3  -1    0.31    0.59
  -9  -3  -2   30.40    2.08
  -9  -3  -3    4.93    0.89
  -9  -3  -4   11.23    1.31
  -9  -3  -5    8.01    1.14
  -9  -3  -6    9.92    1.26
  -9  -3  -7    6.42    1.03
  -9  -3  -8    9.07    1.20
  -9  -3  -9    1.09    0.72
  -9  -3 -10    0.45    0.62
  -9  -3 -11    2.56    0.94
  -9  -4   9    1.63    0.81
  -9  -4   8    2.52    0.83
  -9  -4   7    0.65    0.75
  -9  -4   6    6.44    1.19
  -9  -4   5    7.16    1.20
  -9  -4   4    6.97    1.22
  -9  -4   3    8.54    1.26
  -9  -4   2    7.81    1.20
  -9  -4   1   -0.37    0.66
  -9  -4   0   11.18    1.29
  -9  -4  -1   -0.27    0.64
  -9  -4  -2   18.29    1.62
  -9  -4  -3    1.99    0.72
  -9  -4  -4   28.47    2.02
  -9  -4  -5    0.81    0.72
  -9  -4  -6   17.75    1.65
  -9  -4  -7   18.00    1.68
  -9  -4  -8    1.08    0.64
  -9  -4  -9    0.89    0.67
  -9  -4 -10    4.86    1.03
  -9  -4 -11    5.96    1.17
  -9  -4 -12    1.21    0.82
  -9  -5   8   11.77    1.47
  -9  -5   7    0.08    0.64
  -9  -5   6    5.67    1.11
  -9  -5   5   -0.25    0.71
  -9  -5   4   -0.59    0.67
  -9  -5   3    1.44    0.62
  -9  -5   2    6.40    1.12
  -9  -5   1   16.25    1.58
  -9  -5   0    8.80    1.24
  -9  -5  -1   13.31    1.46
  -9  -5  -2   19.70    1.72
  -9  -5  -3    0.80    0.63
  -9  -5  -4   58.50    2.93
  -9  -5  -5    8.26    1.24
  -9  -5  -6    1.87    0.77
  -9  -5  -7    5.05    1.05
  -9  -5  -8    3.15    0.96
  -9  -5  -9    1.32    0.84
  -9  -5 -10    3.37    0.96
  -9  -5 -11    5.53    1.15
  -9  -5 -12   -0.84    0.90
  -9  -6   7    0.74    0.70
  -9  -6   6   26.09    2.12
  -9  -6   5    8.56    1.30
  -9  -6   4   40.64    2.62
  -9  -6   3    0.13    0.60
  -9  -6   2   14.67    1.59
  -9  -6   1   19.77    1.81
  -9  -6   0    1.34    0.75
  -9  -6  -1    2.63    0.82
  -9  -6  -2    7.77    1.19
  -9  -6  -3    8.75    1.25
  -9  -6  -4    6.92    1.16
  -9  -6  -5    2.37    0.82
  -9  -6  -6    8.93    1.27
  -9  -6  -7    7.89    1.25
  -9  -6  -8   18.38    1.81
  -9  -6  -9    3.65    1.00
  -9  -6 -10    1.00    0.81
  -9  -6 -11    9.85    1.48
  -9  -7   5    0.29    0.66
  -9  -7   4    4.08    1.03
  -9  -7   3    0.64    0.62
  -9  -7   2   24.22    2.00
  -9  -7   1    0.89    0.71
  -9  -7   0   10.28    1.38
  -9  -7  -1    5.59    1.17
  -9  -7  -2   28.38    2.16
  -9  -7  -3   22.76    1.93
  -9  -7  -4    8.10    1.27
  -9  -7  -5    0.55    0.68
  -9  -7  -6    0.17    0.66
  -9  -7  -7    0.05    0.59
  -9  -7  -8    5.47    1.13
  -9  -7  -9    8.18    1.39
  -9  -8   4   18.18    1.77
  -9  -8   3   -0.04    0.61
  -9  -8   2   19.31    1.82
  -9  -8   1   13.41    1.53
  -9  -8   0    6.71    1.17
  -9  -8  -1   14.33    1.59
  -9  -8  -2    7.91    1.30
  -9  -8  -3    3.92    1.06
  -9  -8  -4    0.31    0.77
  -9  -8  -5   13.11    1.62
  -9  -8  -6    2.00    0.91
  -9  -8  -7    6.01    1.21
  -9  -8  -8    1.75    0.97
  -9  -9   3    0.22    0.67
  -9  -9   2    6.29    1.18
  -9  -9   1    0.38    0.74
  -9  -9   0    6.36    1.26
  -9  -9  -1   -0.03    0.74
  -9  -9  -2   17.58    1.86
  -9  -9  -3   31.53    2.43
  -9  -9  -4    4.39    1.12
  -9  -9  -5   11.73    1.56
   9  10   0    0.44    0.60
 -10   3   0    0.04    0.65
 -10   3  -1    1.02    0.73
 -10   3  -2    1.13    0.75
 -10   3  -3    0.59    0.65
 -10   2   3    6.88    1.21
 -10   2   2   16.17    1.73
 -10   2   1   19.07    1.84
 -10   2   0    5.07    1.07
 -10   2  -1    6.14    1.13
 -10   2  -2   -0.29    0.62
 -10   2  -3    0.51    0.69
 -10   2  -4    0.57    0.66
 -10   1   5    1.19    0.74
 -10   1   4    1.41    0.77
 -10   1   3   -0.97    0.85
 -10   1   2    2.09    0.83
 -10   1   1    3.09    0.95
 -10   1   0    6.43    1.17
 -10   1  -1    7.92    1.19
 -10   1  -2   16.06    1.66
 -10   1  -3   18.88    1.77
 -10   1  -4    7.03    1.17
 -10   1  -5    6.28    1.09
 -10   1  -6    4.25    0.91
 -10   0   6    2.25    0.95
 -10   0   5   -0.25    0.78
 -10   0   4   -0.42    0.75
 -10   0   3    1.77    0.82
 -10   0   2    1.17    0.78
 -10   0   1    0.56    0.71
 -10   0   0    4.51    0.99
 -10   0  -1    1.84    0.71
 -10   0  -2    1.30    0.79
 -10   0  -3    1.77    0.86
 -10   0  -4    0.12    0.60
 -10   0  -5    0.23    0.60
 -10   0  -6    7.36    1.15
 -10   0  -7    6.93    1.14
 -10  -1   7    5.38    1.27
 -10  -1   6   15.81    1.84
 -10  -1   5   21.00    2.03
 -10  -1   4    5.59    1.05
 -10  -1   3    3.67    1.04
 -10  -1   2    3.28    1.02
 -10  -1   1    5.56    1.14
 -10  -1   0    0.89    0.74
 -10  -1  -1    4.30    0.98
 -10  -1  -2    2.96    0.94
 -10  -1  -3    0.45    0.71
 -10  -1  -4    1.75    0.64
 -10  -1  -5    0.11    0.62
 -10  -1  -6   -0.16    0.64
 -10  -1  -7   11.47    1.41
 -10  -1  -8    2.58    0.78
 -10  -2   7    0.79    0.86
 -10  -2   6    4.66    1.07
 -10  -2   5    0.31    0.70
 -10  -2   4    8.89    1.35
 -10  -2   3   14.05    1.62
 -10  -2   2   28.16    2.20
 -10  -2   1   49.02    2.91
 -10  -2   0    3.02    0.97
 -10  -2  -1   38.45    2.52
 -10  -2  -2   19.61    1.81
 -10  -2  -3    5.16    0.95
 -10  -2  -4    0.99    0.66
 -10  -2  -5    1.09    0.63
 -10  -2  -6    5.29    1.02
 -10  -2  -7   -0.36    0.64
 -10  -2  -8    0.48    0.65
 -10  -2  -9    0.81    0.67
 -10  -3   7    4.73    1.14
 -10  -3   6    0.75    0.73
 -10  -3   5    7.96    1.38
 -10  -3   4   -0.35    0.80
 -10  -3   3    2.49    0.95
 -10  -3   2    1.19    0.80
 -10  -3   1    4.83    1.13
 -10  -3   0    0.33    0.68
 -10  -3  -1   10.23    1.38
 -10  -3  -2   11.88    1.42
 -10  -3  -3   17.89    1.73
 -10  -3  -4    8.39    1.27
 -10  -3  -5   20.04    1.81
 -10  -3  -6   26.17    2.10
 -10  -3  -7    1.26    0.81
 -10  -3  -8    1.87    0.79
 -10  -3  -9    0.49    0.70
 -10  -3 -10    6.50    1.20
 -10  -4   8    1.76    0.85
 -10  -4   7   -0.38    0.73
 -10  -4   6    2.85    1.03
 -10  -4   5   -0.36    0.73
 -10  -4   4    1.41    0.85
 -10  -4   3    4.23    0.95
 -10  -4   2    4.38    0.97
 -10  -4   1    8.12    1.26
 -10  -4   0   -1.24    0.81
 -10  -4  -1    3.53    0.94
 -10  -4  -2   13.84    1.56
 -10  -4  -3   21.04    1.86
 -10  -4  -4    4.99    1.04
 -10  -4  -5    3.55    0.92
 -10  -4  -6    1.91    0.86
 -10  -4  -7    0.56    0.70
 -10  -4  -8    0.61    0.68
 -10  -4  -9    2.93    0.93
 -10  -4 -10   11.73    1.56
 -10  -5   7    9.98    1.43
 -10  -5   6    0.60    0.79
 -10  -5   5    4.99    1.01
 -10  -5   4    0.17    0.76
 -10  -5   3   11.11    1.50
 -10  -5   2   27.59    2.24
 -10  -5   1    0.21    0.68
 -10  -5   0    0.50    0.78
 -10  -5  -1   -0.17    0.74
 -10  -5  -2    6.92    1.23
 -10  -5  -3    6.43    1.22
 -10  -5  -4    0.92    0.79
 -10  -5  -5    8.35    1.30
 -10  -5  -6   17.78    1.76
 -10  -5  -7   13.48    1.57
 -10  -5  -8    4.64    1.07
 -10  -5  -9    0.09    0.67
 -10  -6   6    0.77    0.73
 -10  -6   5    1.64    0.89
 -10  -6   4    1.44    0.87
 -10  -6   3   10.72    1.50
 -10  -6   2    1.04    0.82
 -10  -6   1    5.50    1.09
 -10  -6   0   14.54    1.66
 -10  -6  -1    6.63    1.21
 -10  -6  -2   25.83    2.16
 -10  -6  -3   -0.12    0.64
 -10  -6  -4    2.25    0.83
 -10  -6  -5    3.65    0.96
 -10  -6  -6    0.49    0.66
 -10  -6  -7    3.55    1.07
 -10  -6  -8    8.95    1.41
 -10  -7   5    5.06    1.16
 -10  -7   4    1.80    0.83
 -10  -7   3   10.71    1.51
 -10  -7   2   19.80    1.95
 -10  -7   1    8.57    1.39
 -10  -7   0   19.94    1.96
 -10  -7  -1    3.94    1.07
 -10  -7  -2    8.72    1.36
 -10  -7  -3    5.89    1.28
 -10  -7  -4    5.66    1.19
 -10  -7  -5    0.26    0.64
 -10  -7  -6    3.84    0.94
 -10  -8   2    0.97    0.82
 -10  -8   1    3.44    0.99
 -10  -8   0    0.57    0.76
 -10  -8  -1    2.97    0.97
 -10  -8  -2   31.55    2.44
 -11   0  -1   -0.46    0.67
 -11   0  -2    2.72    0.95
 -11   0  -3    2.86    0.90
 -11   0  -4    1.50    0.65
 -11  -1   1    5.85    1.11
 -11  -1   0    8.23    1.32
 -11  -1  -1   12.89    1.64
 -11  -1  -2    3.13    0.94
 -11  -1  -3    3.21    0.89
 -11  -1  -4    0.74    0.74
 -11  -1  -5    0.13    0.67
 -11  -1  -6    2.16    0.85
 -11  -2   2    3.34    1.11
 -11  -2   1    4.83    1.14
 -11  -2   0    7.67    1.30
 -11  -2  -1    0.63    0.72
 -11  -2  -2    4.94    1.00
 -11  -2  -3    2.04    0.81
 -11  -2  -4    4.37    1.00
 -11  -2  -5   17.95    1.84
 -11  -2  -6    2.28    1.03
 -11  -3   2    4.60    1.17
 -11  -3   1   -0.57    0.75
 -11  -3   0    4.57    1.10
 -11  -3  -1    7.11    1.21
 -11  -3  -2    4.18    0.98
 -11  -3  -3   15.41    1.71
 -11  -3  -4    0.91    0.74
 -11  -3  -5    1.83    0.88
 -11  -3  -6    3.83    1.04
 -11  -4   2   -1.09    0.92
 -11  -4   1    1.16    0.78
 -11  -4   0   -0.84    0.89
 -11  -4  -1    0.04    0.81
 -11  -4  -2    3.09    1.06
 -11  -4  -3    2.17    0.79
 -11  -4  -4    2.82    0.87
 -11  -4  -5    7.99    1.36
 -11  -5   0   12.30    1.57
 -11  -5  -1   31.52    2.51
 -11  -5  -2    2.04    0.93
 -11  -5  -3    1.14    0.90
   0   0   0    0.00    0.00
;
_shelx_hkl_checksum              26021
_olex2_submission_special_instructions 'No special instructions were received'
#END Tags that were not found in dictionaries
loop_
_space_group_symop_operation_xyz
'x, y, z'
'-x, -y, -z'
loop_
_atom_site_label
_atom_site_type_symbol
_atom_site_fract_x
_atom_site_fract_y
_atom_site_fract_z
_atom_site_U_iso_or_equiv
_atom_site_adp_type
_atom_site_occupancy
_atom_site_site_symmetry_order
_atom_site_calc_flag
_atom_site_refinement_flags_posn
Br1 Br -0.37817(6) 0.15624(5) 0.48781(4) 0.03747(15) Uani 1 1 d .
Br2 Br -0.13817(6) 0.39547(5) 0.42789(5) 0.04273(16) Uani 1 1 d .
Br3 Br 0.04148(7) 0.81306(7) 0.26896(4) 0.04363(16) Uani 1 1 d .
Br4 Br 0.13199(7) 1.31558(6) -0.10130(4) 0.04478(16) Uani 1 1 d .
O2 O 0.2322(4) 0.2565(4) 0.3377(2) 0.0356(8) Uani 1 1 d .
O1 O 0.2683(4) 0.2412(4) 0.5148(2) 0.0317(8) Uani 1 1 d .
O4 O 0.0733(4) 1.2021(4) 0.1959(3) 0.0375(8) Uani 1 1 d .
H4 H 0.1264 1.2264 0.2359 0.056 Uiso 1 1 calc GR
C4 C 0.0753(5) 1.0526(5) 0.0704(3) 0.0249(10) Uani 1 1 d .
C5 C -0.0594(5) 0.1669(5) 0.4665(3) 0.0213(9) Uani 1 1 d .
C6 C 0.0568(5) 1.1327(5) -0.0440(3) 0.0241(9) Uani 1 1 d .
O3 O 0.3041(4) 1.0562(5) 0.1569(3) 0.0491(10) Uani 1 1 d .
C8 C 0.2096(5) 0.2088(5) 0.4412(3) 0.0217(9) Uani 1 1 d .
C9 C -0.1597(5) 0.0677(5) 0.4934(3) 0.0221(9) Uani 1 1 d .
O5 O 0.6007(5) 0.9019(4) 0.2683(3) 0.0455(9) Uani 1 1 d .
H5A H 0.5173 0.9700 0.2775 0.068 Uiso 1 1 d G
H5B H 0.6553 0.8593 0.3293 0.068 Uiso 1 1 d G
C11 C 0.1008(5) 0.1002(5) 0.4732(3) 0.0197(9) Uani 1 1 d .
N2 N 0.4796(5) 0.6874(5) 0.2135(4) 0.0428(11) Uani 1 1 d .
H2 H 0.5282 0.7523 0.2233 0.051 Uiso 1 1 calc R
C13 C 0.2831(6) 0.5318(6) 0.0523(4) 0.0389(12) Uani 1 1 d .
H13 H 0.2409 0.4448 0.0679 0.047 Uiso 1 1 calc R
C14 C 0.0181(5) 0.9200(5) 0.1133(3) 0.0257(10) Uani 1 1 d .
N1 N 0.3770(5) 0.4878(5) 0.2500(3) 0.0385(10) Uani 1 1 d .
H1 H 0.3485 0.4038 0.2867 0.046 Uiso 1 1 calc R
C18 C 0.2785(7) 0.6342(6) -0.0536(4) 0.0430(13) Uani 1 1 d .
H18 H 0.2311 0.6170 -0.1115 0.052 Uiso 1 1 calc R
C19 C 0.1639(6) 1.1039(6) 0.1468(4) 0.0305(11) Uani 1 1 d .
C20 C 0.3537(5) 0.5642(5) 0.1355(4) 0.0311(11) Uani 1 1 d .
C23 C 0.4195(6) 0.6931(5) 0.1118(4) 0.0313(11) Uani 1 1 d .
C24 C 0.3432(7) 0.7649(6) -0.0778(4) 0.0439(14) Uani 1 1 d .
H24 H 0.3370 0.8322 -0.1511 0.053 Uiso 1 1 calc R
C25 C 0.4154(7) 0.7956(6) 0.0038(4) 0.0430(13) Uani 1 1 d .
H25 H 0.4595 0.8812 -0.0125 0.052 Uiso 1 1 calc R
C26 C 0.4499(6) 0.5658(6) 0.2926(4) 0.0418(13) Uani 1 1 d .
H26 H 0.4768 0.5390 0.3682 0.050 Uiso 1 1 calc R
loop_
_atom_site_aniso_label
_atom_site_aniso_U_11
_atom_site_aniso_U_22
_atom_site_aniso_U_33
_atom_site_aniso_U_23
_atom_site_aniso_U_13
_atom_site_aniso_U_12
Br1 0.0187(3) 0.0318(2) 0.0588(3) -0.0074(2) 0.0007(2) -0.00892(19)
Br2 0.0298(3) 0.0217(2) 0.0699(4) -0.0017(2) -0.0029(2) -0.0090(2)
Br3 0.0543(4) 0.0578(3) 0.0221(2) -0.0062(2) -0.0027(2) -0.0266(3)
Br4 0.0584(4) 0.0487(3) 0.0400(3) -0.0118(2) 0.0050(2) -0.0370(3)
O2 0.050(2) 0.050(2) 0.0211(16) -0.0078(15) 0.0043(15) -0.0384(18)
O1 0.034(2) 0.0419(18) 0.0279(16) -0.0124(15) -0.0030(14) -0.0208(15)
O4 0.034(2) 0.053(2) 0.0362(19) -0.0266(17) -0.0049(15) -0.0144(17)
C4 0.021(2) 0.032(2) 0.027(2) -0.017(2) -0.0016(18) -0.0069(19)
C5 0.024(2) 0.0190(19) 0.021(2) -0.0030(17) -0.0018(18) -0.0085(17)
C6 0.022(2) 0.028(2) 0.026(2) -0.0128(19) 0.0045(18) -0.0099(18)
O3 0.030(2) 0.070(3) 0.060(2) -0.036(2) -0.0079(18) -0.0130(19)
C8 0.019(2) 0.023(2) 0.026(2) -0.0074(19) -0.0012(18) -0.0115(18)
C9 0.017(2) 0.029(2) 0.021(2) -0.0043(18) 0.0012(17) -0.0103(18)
O5 0.045(3) 0.053(2) 0.040(2) -0.0074(19) -0.0111(17) -0.0205(18)
C11 0.023(2) 0.023(2) 0.016(2) -0.0042(17) -0.0007(17) -0.0115(17)
N2 0.043(3) 0.035(2) 0.053(3) -0.004(2) -0.006(2) -0.023(2)
C13 0.039(3) 0.030(2) 0.050(3) -0.012(2) 0.002(2) -0.015(2)
C14 0.025(3) 0.032(2) 0.023(2) -0.0105(19) 0.0010(18) -0.0107(19)
N1 0.041(3) 0.029(2) 0.043(2) -0.0008(19) 0.001(2) -0.0174(19)
C18 0.046(4) 0.039(3) 0.046(3) -0.016(3) -0.002(3) -0.010(2)
C19 0.033(3) 0.038(3) 0.028(2) -0.015(2) -0.003(2) -0.015(2)
C20 0.026(3) 0.023(2) 0.040(3) -0.002(2) 0.001(2) -0.0090(19)
C23 0.027(3) 0.026(2) 0.042(3) -0.009(2) 0.008(2) -0.011(2)
C24 0.053(4) 0.034(3) 0.037(3) -0.003(2) 0.008(3) -0.009(3)
C25 0.047(4) 0.028(2) 0.052(3) -0.006(2) 0.010(3) -0.016(2)
C26 0.044(3) 0.037(3) 0.041(3) 0.000(2) -0.006(2) -0.017(2)
loop_
_atom_type_symbol
_atom_type_description
_atom_type_scat_dispersion_real
_atom_type_scat_dispersion_imag
_atom_type_scat_source
C C 0.0033 0.0016 'International Tables Vol C Tables 4.2.6.8 and 6.1.1.4'
H H 0.0000 0.0000 'International Tables Vol C Tables 4.2.6.8 and 6.1.1.4'
Br Br -0.2901 2.4595 'International Tables Vol C Tables 4.2.6.8 and 6.1.1.4'
N N 0.0061 0.0033 'International Tables Vol C Tables 4.2.6.8 and 6.1.1.4'
O O 0.0106 0.0060 'International Tables Vol C Tables 4.2.6.8 and 6.1.1.4'
loop_
_geom_angle_atom_site_label_1
_geom_angle_atom_site_label_2
_geom_angle_atom_site_label_3
_geom_angle
_geom_angle_site_symmetry_1
_geom_angle_site_symmetry_3
C6 C4 C19 120.8(4) . .
C14 C4 C6 119.1(4) . .
C14 C4 C19 120.1(4) . .
C9 C5 Br2 121.1(3) . .
C11 C5 Br2 118.0(3) . .
C11 C5 C9 120.9(4) . .
C4 C6 Br4 118.7(3) . .
C14 C6 Br4 121.1(3) 2_575 .
C14 C6 C4 120.1(4) 2_575 .
O2 C8 C11 115.0(3) . .
O1 C8 O2 125.6(4) . .
O1 C8 C11 119.5(4) . .
C5 C9 Br1 121.5(3) . .
C11 C9 Br1 117.7(3) 2_556 .
C11 C9 C5 120.9(4) 2_556 .
C5 C11 C8 120.7(4) . .
C5 C11 C9 118.3(4) . 2_556
C9 C11 C8 121.0(4) 2_556 .
C26 N2 C23 108.7(4) . .
C18 C13 C20 116.6(5) . .
C4 C14 Br3 118.9(3) . .
C6 C14 Br3 120.3(3) 2_575 .
C6 C14 C4 120.8(4) 2_575 .
C26 N1 C20 108.4(4) . .
C13 C18 C24 122.0(5) . .
O4 C19 C4 113.2(4) . .
O3 C19 O4 126.0(4) . .
O3 C19 C4 120.8(4) . .
C13 C20 N1 131.8(4) . .
C13 C20 C23 121.7(4) . .
N1 C20 C23 106.5(4) . .
N2 C23 C20 105.7(4) . .
C25 C23 N2 133.0(5) . .
C25 C23 C20 121.2(5) . .
C25 C24 C18 121.6(5) . .
C24 C25 C23 116.9(5) . .
N1 C26 N2 110.7(4) . .
loop_
_geom_bond_atom_site_label_1
_geom_bond_atom_site_label_2
_geom_bond_distance
_geom_bond_site_symmetry_2
Br1 C9 1.887(4) .
Br2 C5 1.896(4) .
Br3 C14 1.890(4) .
Br4 C6 1.887(4) .
O2 C8 1.264(5) .
O1 C8 1.228(5) .
O4 C19 1.304(6) .
C4 C6 1.391(6) .
C4 C14 1.384(6) .
C4 C19 1.520(6) .
C5 C9 1.401(6) .
C5 C11 1.384(6) .
C6 C14 1.383(6) 2_575
O3 C19 1.205(6) .
C8 C11 1.528(6) .
C9 C11 1.392(6) 2_556
C11 C9 1.392(6) 2_556
N2 C23 1.389(6) .
N2 C26 1.320(6) .
C13 C18 1.365(7) .
C13 C20 1.386(7) .
C14 C6 1.383(6) 2_575
N1 C20 1.389(6) .
N1 C26 1.314(6) .
C18 C24 1.404(7) .
C20 C23 1.397(6) .
C23 C25 1.386(7) .
C24 C25 1.369(8) .
