#------------------------------------------------------------------------------
#$Date: 2016-03-26 22:50:16 +0200 (Sat, 26 Mar 2016) $
#$Revision: 180520 $
#$URL: svn://www.crystallography.net/cod/cif/7/21/89/7218936.cif $
#------------------------------------------------------------------------------
#
# This file is available in the Crystallography Open Database (COD),
# http://www.crystallography.net/
#
# All data on this site have been placed in the public domain by the
# contributors.
#
data_7218936
loop_
_publ_author_name
'Harvey, Benjamin G.'
'Guenthner, Andrew J.'
'Meylemans, Heather A.'
'Haines, Shannon R. L.'
'Lamison, Kevin R.'
'Groshens, Thomas J.'
'Cambrea, Lee R.'
'Davis, Matthew C.'
'Lai, William W.'
_publ_section_title
;
 Renewable thermosetting resins and thermoplastics from vanillin
;
_journal_issue                   2
_journal_name_full               'Green Chem.'
_journal_page_first              1249
_journal_paper_doi               10.1039/C4GC01825G
_journal_volume                  17
_journal_year                    2015
_chemical_formula_moiety         'C18 H16 N2 O4'
_chemical_formula_sum            'C18 H16 N2 O4'
_chemical_formula_weight         324.33
_chemical_name_systematic        1,2-bis(4-cyanato-3-methoxyphenyl)ethane
_space_group_crystal_system      monoclinic
_space_group_IT_number           14
_space_group_name_Hall           '-P 2ybc'
_space_group_name_H-M_alt        'P 1 21/c 1'
_symmetry_space_group_name_Hall  '-P 2ybc'
_symmetry_space_group_name_H-M   'P 1 21/c 1'
_atom_sites_solution_hydrogens   geom
_atom_sites_solution_primary     direct
_atom_sites_solution_secondary   difmap
_audit_update_record
;
2014-08-28 deposited with the CCDC.
2014-11-27 downloaded from the CCDC.
;
_cell_angle_alpha                90
_cell_angle_beta                 97.5930(10)
_cell_angle_gamma                90
_cell_formula_units_Z            2
_cell_length_a                   4.4010(3)
_cell_length_b                   12.3035(9)
_cell_length_c                   14.8314(11)
_cell_measurement_reflns_used    2135
_cell_measurement_temperature    296.(2)
_cell_measurement_theta_max      24.4504
_cell_measurement_theta_min      2.1585
_cell_volume                     796.04(10)
_computing_cell_refinement       'SAINT V8.32B (Bruker AXS Inc., 2013)'
_computing_data_reduction        'SAINT V8.32B (Bruker AXS Inc., 2013)'
_computing_structure_refinement  'SHELXL-2013 (Sheldrick, 2013)'
_computing_structure_solution    'SHELXS-97 (Sheldrick, 2008)'
_diffrn_ambient_temperature      296.(2)
_diffrn_detector_area_resol_mean 8.3333
_diffrn_measured_fraction_theta_full 1.000
_diffrn_measured_fraction_theta_max 1.000
_diffrn_radiation_wavelength     0.71073
_diffrn_reflns_av_R_equivalents  0.0262
_diffrn_reflns_av_sigmaI/netI    0.0164
_diffrn_reflns_limit_h_max       5
_diffrn_reflns_limit_h_min       -5
_diffrn_reflns_limit_k_max       14
_diffrn_reflns_limit_k_min       -14
_diffrn_reflns_limit_l_max       17
_diffrn_reflns_limit_l_min       -17
_diffrn_reflns_number            8545
_diffrn_reflns_theta_full        25.00
_diffrn_reflns_theta_max         25.00
_diffrn_reflns_theta_min         2.16
_exptl_absorpt_coefficient_mu    0.097
_exptl_absorpt_correction_T_max  0.99
_exptl_absorpt_correction_T_min  0.94
_exptl_absorpt_correction_type   multi-scan
_exptl_absorpt_process_details   'SADABS V2012/1 (Bruker AXS Inc.)'
_exptl_crystal_density_diffrn    1.353
_exptl_crystal_density_method    'not measured'
_exptl_crystal_F_000             340
_exptl_crystal_size_max          0.255
_exptl_crystal_size_mid          0.195
_exptl_crystal_size_min          0.070
_refine_diff_density_max         0.115
_refine_diff_density_min         -0.151
_refine_ls_extinction_method     none
_refine_ls_goodness_of_fit_ref   1.038
_refine_ls_hydrogen_treatment    constr
_refine_ls_matrix_type           full
_refine_ls_number_parameters     110
_refine_ls_number_reflns         1399
_refine_ls_number_restraints     0
_refine_ls_restrained_S_all      1.038
_refine_ls_R_factor_all          0.0474
_refine_ls_R_factor_gt           0.0350
_refine_ls_shift/su_max          0.000
_refine_ls_shift/su_mean         0.000
_refine_ls_structure_factor_coef Fsqd
_refine_ls_weighting_details
'w=1/[\s^2^(Fo^2^)+(0.0423P)^2^+0.1584P] where P=(Fo^2^+2Fc^2^)/3'
_refine_ls_weighting_scheme      calc
_refine_ls_wR_factor_gt          0.0863
_refine_ls_wR_factor_ref         0.0962
_reflns_number_gt                1097
_reflns_number_total             1399
_reflns_threshold_expression     'I > 2\s(I)'
_cod_data_source_file            c4gc01825g2.cif
_cod_data_source_block           Compound_7
_cod_depositor_comments
'Adding full bibliography for 7218936--7218937.cif.'
_cod_database_code               7218936
#BEGIN Tags that were not found in dictionaries:
_shelx_res_file
;
TITL TG_BH_1874_50_1_0m in P2(1)/c
CELL 0.71073 4.4010 12.3035 14.8314 90.000 97.593 90.000
ZERR 2.00 0.0003 0.0009 0.0011 0.000 0.001 0.000
LATT 1
SYMM -x, y+1/2, -z+1/2
SFAC C  H  N  O
UNIT 36  32  4  8
OMIT -3 50
L.S. 75
ACTA
BOND $H
FMAP 2
PLAN -1
HTAB C8 N1_$2
HTAB C3 N1_$1
HTAB C8 N1_$2
HTAB C3 N1_$1
HTAB C8 N1_$2
HTAB C3 N1_$1
HTAB C8 N1_$2
HTAB C3 N1_$1
HTAB C8 N1_$2
HTAB C3 N1_$1
SIZE 0.070 0.195 0.255
HTAB
CONF
EQIV $1 x+1, -y+1/2, z-1/2
HTAB C4 N1_$1
HTAB C3 N1_$1
EQIV $2 -x+1, y-1/2, -z+3/2
HTAB C8 N1_$2
HTAB C3 N1_$1
HTAB C8 N1_$2
HTAB C3 N1_$1
HTAB C8 N1_$2
HTAB C3 N1_$1
HTAB C8 N1_$2
HTAB C3 N1_$1
HTAB C8 N1_$2
HTAB C3 N1_$1
HTAB C8 N1_$2
TEMP 23.000
WGHT    0.042300    0.158400
FVAR       0.20852
O2    4    0.509721    0.222523    0.780845    11.00000    0.09665    0.04989 =
         0.06088    0.00264    0.04667   -0.00950
O1    4    0.730808    0.134328    0.646659    11.00000    0.09388    0.03737 =
         0.06540   -0.00126    0.04037   -0.00297
N1    3    0.284535    0.289346    0.909206    11.00000    0.12305    0.07632 =
         0.06805    0.00768    0.05655    0.00468
C9    1    0.394271    0.261891    0.848600    11.00000    0.07238    0.05266 =
         0.04947    0.00790    0.02642   -0.00203
C5    1    0.655849    0.294621    0.724541    11.00000    0.05399    0.04450 =
         0.04073    0.00676    0.01864   -0.00355
C4    1    0.771285    0.243742    0.653103    11.00000    0.05358    0.03672 =
         0.04472    0.00278    0.01574   -0.00069
C3    1    0.917695    0.308162    0.595564    11.00000    0.05061    0.04647 =
         0.04130    0.00214    0.01696    0.00161
AFIX  43
H3    2    0.996075    0.276249    0.546680    11.00000   -1.20000
AFIX   0
C2    1    0.949942    0.419436    0.609326    11.00000    0.04044    0.04585 =
         0.04305    0.00782    0.00681   -0.00406
C1    1    1.105061    0.486717    0.543382    11.00000    0.04938    0.05169 =
         0.05286    0.01146    0.01109   -0.01008
AFIX  23
H1    2    1.282114    0.447404    0.527923    11.00000   -1.20000
H2    2    1.177527    0.553987    0.572850    11.00000   -1.20000
AFIX   0
C7    1    0.832772    0.466209    0.681930    11.00000    0.05942    0.03766 =
         0.05082    0.00128    0.01041   -0.00393
AFIX  43
H5    2    0.854954    0.540558    0.692037    11.00000   -1.20000
AFIX   0
C6    1    0.682146    0.403624    0.740086    11.00000    0.06348    0.04582 =
         0.04420   -0.00274    0.01852    0.00049
AFIX  43
H4    2    0.600998    0.435360    0.788568    11.00000   -1.20000
AFIX   0
C8    1    0.870505    0.079894    0.577885    11.00000    0.10326    0.04166 =
         0.07117   -0.00793    0.03847    0.00535
AFIX 137
H7    2    0.782930    0.105920    0.519134    11.00000   -1.50000
H8    2    0.835714    0.003099    0.581668    11.00000   -1.50000
H6    2    1.086935    0.094010    0.586544    11.00000   -1.50000
AFIX   0
HKLF 4 1 1 0 0 0 1 0 0 0 1

REM  TG_BH_1874_50_1_0m in P2(1)/c
REM R1 =  0.0350 for    1097 Fo > 4sig(Fo)  and  0.0474 for all    1399 data
REM    110 parameters refined using      0 restraints

END

WGHT      0.0421      0.1592

REM Instructions for potential hydrogen bonds
HTAB C3 N1_$1
HTAB C8 N1_$2

REM Highest difference peak  0.115,  deepest hole -0.151,  1-sigma level  0.029
Q1    1   0.9513  0.2666  0.6484  11.00000  0.05    0.11
;
_shelx_res_checksum              13246
_shelx_hkl_file
;
   1   0   0    9.40    0.17
   1   0   0    8.72    0.19
   1   0   0    9.02    0.19
   1   0   0    8.70    0.17
   2   0   0   12.95    0.31
   2   0   0   12.69    0.28
   2   0   0   12.94    0.28
   2   0   0   13.00    0.32
   3   0   0   -0.01    0.05
   3   0   0    0.22    0.07
  -3   0   0    0.06    0.05
   3   0   0    0.22    0.08
   4   0   0    0.43    0.11
  -4   0   0    0.48    0.10
   4   0   0    0.45    0.10
  -4   0   0    0.52    0.12
  -5   0   0    0.63    0.14
   5   0   0    0.71    0.16
   0  -1   0   -0.06    0.01
   0  -1   0   -0.01    0.02
   0   1   0   -0.04    0.01
   0   1   0   -0.07    0.01
  -1  -1   0  110.99    1.33
   1  -1   0  111.52    1.37
   1  -1   0  113.50    1.25
   1  -1   0  110.83    1.32
   1   1   0  110.31    1.31
   1   1   0  113.66    1.33
   1   1   0  112.47    1.28
  -1   1   0  110.84    1.32
   2  -1   0    8.08    0.24
  -2  -1   0    8.13    0.23
   2  -1   0    8.58    0.20
   2  -1   0    8.67    0.26
   2   1   0    8.34    0.21
  -2   1   0    8.07    0.22
   2   1   0    8.14    0.24
   2   1   0    7.83    0.23
   2   1   0    8.12    0.23
   3  -1   0    0.03    0.06
   3  -1   0    0.14    0.06
   3  -1   0   -0.02    0.04
  -3  -1   0    0.02    0.06
   3   1   0    0.13    0.05
  -3   1   0    0.04    0.04
   3   1   0   -0.02    0.05
   3   1   0    0.10    0.05
   4  -1   0    1.41    0.18
   4  -1   0    1.05    0.13
  -4  -1   0    1.61    0.16
  -4  -1   0    1.53    0.18
   4  -1   0    1.18    0.17
   4   1   0    1.67    0.19
  -4   1   0    1.50    0.19
  -4   1   0    1.62    0.17
   4   1   0    1.73    0.18
   5  -1   0    0.19    0.11
  -5  -1   0    0.14    0.09
  -5   1   0    0.06    0.09
   5   1   0    0.13    0.10
   0  -2   0   88.49    1.05
   0  -2   0   89.45    1.10
   0   2   0   90.09    1.02
   0   2   0   90.50    1.05
   1  -2   0  181.18    2.05
  -1  -2   0  178.37    2.07
   1  -2   0  179.72    2.14
  -1  -2   0  177.61    2.07
  -1   2   0  179.71    1.98
   1   2   0  174.94    2.09
   1   2   0  180.39    2.08
  -1   2   0  180.70    2.07
   1   2   0  179.37    2.07
  -2  -2   0    0.00    0.03
   2  -2   0    0.03    0.04
   2  -2   0   -0.01    0.04
   2  -2   0    0.01    0.03
  -2   2   0   -0.02    0.03
   2   2   0    0.06    0.04
   2   2   0    0.03    0.04
   2   2   0    0.00    0.03
   3  -2   0    1.80    0.11
   3  -2   0    1.71    0.14
  -3  -2   0    1.61    0.13
   3  -2   0    2.09    0.17
   3   2   0    1.99    0.12
   3   2   0    1.87    0.15
   3   2   0    1.95    0.15
  -3   2   0    1.97    0.14
  -4  -2   0    1.02    0.15
   4  -2   0    1.11    0.16
  -4  -2   0    1.21    0.14
   4  -2   0    1.13    0.17
  -4   2   0    0.99    0.14
   4   2   0    0.95    0.15
   4   2   0    0.97    0.15
   4   2   0    1.01    0.13
  -5  -2   0    0.04    0.07
   5  -2   0    0.16    0.10
  -5   2   0    0.09    0.09
   5   2   0    0.03    0.08
   5   2   0    0.10    0.09
   0  -3   0   -0.03    0.03
   0  -3   0   -0.06    0.03
   0   3   0    0.00    0.03
   0   3   0   -0.07    0.03
  -1  -3   0   64.42    0.80
  -1  -3   0   65.48    0.88
   1  -3   0   64.34    0.89
   1  -3   0   64.01    0.85
   1   3   0   62.17    0.87
  -1   3   0   64.80    0.88
   1   3   0   65.74    0.82
  -2  -3   0    0.54    0.07
   2  -3   0    0.67    0.10
   2  -3   0    0.48    0.08
   2   3   0    0.57    0.09
  -2   3   0    0.63    0.09
   2   3   0    0.62    0.07
   2   3   0    0.60    0.09
  -2   3   0    0.61    0.05
   3  -3   0    0.89    0.13
  -3  -3   0    0.87    0.11
   3  -3   0    0.73    0.12
   3  -3   0    0.97    0.09
   3   3   0    0.69    0.11
   3   3   0    0.80    0.12
   3   3   0    0.61    0.09
  -3   3   0    0.61    0.10
   4  -3   0    0.24    0.11
   4  -3   0    0.57    0.13
  -4  -3   0    0.28    0.09
   4   3   0    0.39    0.11
   4   3   0    0.42    0.11
  -4   3   0    0.28    0.10
  -5  -3   0    0.07    0.08
  -5  -3   0   -0.04    0.06
   5  -3   0   -0.02    0.08
  -5   3   0    0.12    0.09
   5   3   0    0.03    0.09
   5   3   0    0.06    0.09
   0  -4   0   84.59    1.09
   0  -4   0   85.09    1.06
   0   4   0   85.59    1.04
   0   4   0   86.16    1.09
  -1  -4   0    6.61    0.15
   1  -4   0    6.50    0.20
   1  -4   0    6.95    0.21
  -1  -4   0    6.67    0.21
  -1   4   0    6.93    0.11
   1   4   0    6.77    0.18
  -1   4   0    6.93    0.21
   1   4   0    6.64    0.21
   2  -4   0    2.70    0.16
   2  -4   0    2.63    0.15
  -2  -4   0    2.98    0.13
  -2  -4   0    2.62    0.16
  -2   4   0    2.81    0.16
  -2   4   0    2.78    0.07
   2   4   0    2.89    0.13
   2   4   0    2.80    0.16
   3  -4   0    4.81    0.26
   3  -4   0    4.73    0.23
  -3  -4   0    4.88    0.25
  -3  -4   0    4.86    0.21
   3   4   0    5.06    0.25
  -3   4   0    5.34    0.25
   3   4   0    4.70    0.19
  -4  -4   0    0.27    0.09
  -4  -4   0    0.44    0.12
   4  -4   0    0.34    0.12
   4  -4   0    0.43    0.11
  -4   4   0    0.44    0.11
   4   4   0    0.56    0.13
  -5  -4   0    0.13    0.10
   5  -4   0    0.08    0.11
   5  -4   0    0.07    0.10
   5   4   0    0.03    0.10
  -5   4   0    0.10    0.09
  -5   4   0    0.01    0.08
   0  -5   0    0.00    0.03
   0  -5   0    0.02    0.04
   0   5   0    0.00    0.03
   0   5   0   -0.01    0.03
  -1  -5   0    0.03    0.03
   1  -5   0   -0.03    0.03
   1  -5   0    0.01    0.04
  -1  -5   0    0.01    0.04
   1   5   0    0.01    0.03
  -1   5   0    0.02    0.02
   1   5   0    0.03    0.04
  -1   5   0    0.02    0.04
  -2  -5   0    9.34    0.31
   2  -5   0    9.08    0.31
   2  -5   0    9.08    0.28
  -2  -5   0    8.71    0.23
   2   5   0    9.08    0.31
  -2   5   0    8.88    0.30
   2   5   0    8.94    0.24
   3  -5   0    0.12    0.06
  -3  -5   0    0.20    0.06
   3  -5   0    0.05    0.07
  -3  -5   0    0.05    0.06
   3   5   0    0.14    0.06
   3   5   0    0.07    0.06
  -3   5   0    0.06    0.06
  -4  -5   0    0.18    0.09
   4  -5   0    0.26    0.11
   4  -5   0    0.16    0.09
   4   5   0    0.23    0.11
  -4   5   0    0.05    0.07
   5  -5   0    0.20    0.13
  -5  -5   0   -0.03    0.08
   5  -5   0    0.09    0.09
  -5   5   0   -0.02    0.06
   5   5   0    0.11    0.12
   0  -6   0   57.21    0.87
   0  -6   0   56.94    0.80
   0   6   0   57.14    0.86
   0   6   0   58.38    0.80
   1  -6   0    3.56    0.17
  -1  -6   0    3.98    0.18
   1  -6   0    4.11    0.18
  -1  -6   0    3.91    0.13
   1   6   0    3.98    0.16
  -1   6   0    4.44    0.20
   1   6   0    3.80    0.18
  -1   6   0    3.91    0.11
  -2  -6   0    0.06    0.06
   2  -6   0    0.06    0.05
  -2  -6   0    0.11    0.04
   2  -6   0    0.10    0.06
   2   6   0    0.07    0.06
   2   6   0    0.13    0.05
  -2   6   0    0.12    0.07
  -3  -6   0    0.29    0.08
   3  -6   0    0.39    0.11
  -3  -6   0    0.32    0.10
   3  -6   0    0.24    0.08
  -3   6   0    0.35    0.10
   3   6   0    0.31    0.07
   3   6   0    0.25    0.10
   4  -6   0    0.50    0.12
   4  -6   0    0.44    0.14
  -4  -6   0    0.58    0.15
   4   6   0    0.58    0.15
  -4   6   0    0.55    0.13
  -5  -6   0    0.11    0.10
   5  -6   0    0.07    0.10
   5  -6   0    0.22    0.15
   5   6   0    0.12    0.12
  -5   6   0    0.20    0.10
   0  -7   0   -0.04    0.04
   0  -7   0   -0.02    0.03
   0   7   0   -0.04    0.04
   0   7   0   -0.01    0.04
   1  -7   0    3.28    0.17
   1  -7   0    3.47    0.18
  -1  -7   0    3.26    0.12
  -1  -7   0    2.98    0.18
   1   7   0    3.30    0.18
  -1   7   0    3.37    0.19
  -1   7   0    3.25    0.11
   1   7   0    3.03    0.16
  -2  -7   0    0.05    0.06
   2  -7   0    0.00    0.05
   2  -7   0    0.00    0.05
  -2  -7   0    0.03    0.04
   2   7   0    0.03    0.05
  -2   7   0    0.00    0.05
   2   7   0    0.00    0.05
  -3  -7   0    2.72    0.22
   3  -7   0    3.00    0.20
   3  -7   0    2.52    0.22
   3   7   0    2.68    0.21
   3   7   0    2.79    0.16
  -3   7   0    2.62    0.20
   4  -7   0    0.38    0.12
   4  -7   0    0.20    0.11
  -4  -7   0    0.19    0.11
  -4   7   0    0.21    0.10
   4   7   0    0.47    0.14
  -5  -7   0    0.01    0.10
   5  -7   0    0.08    0.11
   5  -7   0    0.18    0.11
  -5   7   0   -0.04    0.09
   5   7   0    0.04    0.11
   0  -8   0    1.85    0.12
   0  -8   0    1.84    0.15
   0   8   0    1.96    0.13
   0   8   0    1.80    0.14
   1  -8   0    3.21    0.19
  -1  -8   0    4.39    0.15
   1  -8   0    4.12    0.20
  -1  -8   0    4.27    0.23
  -1   8   0    4.60    0.23
   1   8   0    4.35    0.20
  -1   8   0    4.19    0.14
   1   8   0    4.38    0.21
   2  -8   0    3.36    0.20
   2  -8   0    3.18    0.21
  -2  -8   0    3.53    0.23
  -2   8   0    3.30    0.22
   2   8   0    3.29    0.21
   2   8   0    3.10    0.17
  -3  -8   0    0.11    0.09
   3  -8   0    0.17    0.08
   3  -8   0    0.19    0.09
  -3   8   0    0.15    0.09
   3   8   0    0.20    0.10
  -4  -8   0    0.17    0.11
   4  -8   0    0.35    0.13
   4  -8   0    0.44    0.13
  -4   8   0    0.29    0.12
   4   8   0    0.34    0.13
   0  -9   0   -0.02    0.04
   0  -9   0   -0.04    0.06
   0   9   0    0.06    0.06
   0   9   0    0.05    0.05
   1  -9   0    0.01    0.05
  -1  -9   0    0.03    0.03
   1  -9   0    0.13    0.08
  -1  -9   0    0.07    0.08
   1   9   0    0.02    0.06
  -1   9   0   -0.05    0.06
  -1   9   0    0.07    0.04
   1   9   0    0.00    0.05
  -2  -9   0    0.06    0.07
   2  -9   0    0.01    0.07
   2  -9   0    0.07    0.07
   2   9   0    0.08    0.06
   2   9   0   -0.08    0.06
  -2   9   0   -0.05    0.06
  -3  -9   0    9.67    0.42
   3  -9   0    9.97    0.39
   3  -9   0    9.98    0.42
  -3   9   0    9.03    0.40
   3   9   0   10.26    0.42
  -4  -9   0    1.40    0.22
   4  -9   0    1.44    0.21
   4  -9   0    1.77    0.26
  -4   9   0    1.12    0.20
   4   9   0    1.19    0.20
   0 -10   0    1.88    0.13
   0 -10   0    1.90    0.20
   0  10   0    1.90    0.19
   0  10   0    1.81    0.14
  -1 -10   0    0.39    0.11
   1 -10   0    0.49    0.11
   1 -10   0    0.60    0.11
  -1  10   0    0.64    0.13
   1  10   0    0.42    0.11
   1  10   0    0.67    0.12
   2 -10   0    1.06    0.16
   2 -10   0    1.34    0.17
  -2 -10   0    0.96    0.17
   2  10   0    1.20    0.18
  -2  10   0    0.97    0.16
   2  10   0    1.32    0.15
  -3 -10   0    1.10    0.19
   3 -10   0    1.55    0.21
   3 -10   0    1.07    0.17
   3  10   0    1.13    0.18
  -3  10   0    1.15    0.19
   4 -10   0    0.24    0.13
  -4 -10   0    0.25    0.14
   4 -10   0    0.17    0.11
   4  10   0    0.30    0.13
  -4  10   0    0.17    0.12
   0 -11   0   -0.04    0.06
   0 -11   0   -0.05    0.04
   0  11   0   -0.08    0.04
   0  11   0   -0.02    0.07
   1 -11   0    0.08    0.07
  -1 -11   0   -0.03    0.06
   1 -11   0    0.00    0.06
   1  11   0    0.01    0.06
   1  11   0   -0.08    0.06
  -1  11   0   -0.04    0.08
  -2 -11   0    2.11    0.25
   2 -11   0    1.86    0.21
   2 -11   0    1.73    0.20
  -2  11   0    1.64    0.22
   2  11   0    1.90    0.19
   2  11   0    2.23    0.23
  -3 -11   0    0.13    0.10
   3 -11   0    0.25    0.12
   3 -11   0    0.33    0.12
  -3  11   0   -0.10    0.07
   3  11   0    0.17    0.11
   4 -11   0   -0.02    0.11
  -4 -11   0   -0.07    0.07
   4 -11   0   -0.05    0.08
   4  11   0   -0.06    0.09
  -4  11   0    0.00    0.10
   0 -12   0   -0.08    0.06
   0  12   0   -0.02    0.06
   0  12   0    0.01    0.07
   1 -12   0    1.35    0.19
   1 -12   0    1.31    0.17
  -1 -12   0    1.43    0.21
  -1  12   0    1.32    0.20
   1  12   0    1.82    0.20
   1  12   0    1.59    0.20
   2 -12   0    0.51    0.13
   2 -12   0    0.29    0.11
  -2 -12   0    0.29    0.12
  -2  12   0    0.47    0.15
   2  12   0    0.33    0.12
   2  12   0    0.38    0.11
   3 -12   0    0.08    0.09
   3 -12   0    0.00    0.07
  -3 -12   0    0.04    0.09
   3  12   0   -0.07    0.08
  -3  12   0    0.14    0.10
   0 -13   0   -0.11    0.08
   0  13   0   -0.06    0.07
  -1 -13   0   -0.04    0.07
   1 -13   0   -0.08    0.07
   1  13   0   -0.04    0.06
   1  13   0    0.02    0.07
  -1  13   0    0.18    0.11
   2 -13   0    0.08    0.09
   2 -13   0    0.32    0.11
  -2 -13   0   -0.07    0.10
  -2  13   0   -0.03    0.09
   2  13   0    0.15    0.09
   2  13   0    0.13    0.09
   3 -13   0    0.21    0.11
   3 -13   0    0.03    0.09
  -3 -13   0    0.23    0.14
   3  13   0    0.33    0.13
  -3  13   0    0.46    0.15
   0 -14   0    0.49    0.14
   0  14   0    0.53    0.15
  -1 -14   0   -0.06    0.08
   1 -14   0    0.08    0.09
   1  14   0    0.06    0.10
   1  14   0    0.01    0.08
  -1  14   0   -0.18    0.08
   2 -14   0    0.08    0.10
   2 -14   0    0.20    0.11
  -2 -14   0    0.24    0.14
  -2  14   0    0.24    0.13
   2  14   0    0.27    0.13
   0 -15   0    0.17    0.11
   0  15   0    0.02    0.10
  -1 -15   0    0.05    0.09
   1 -15   0   -0.11    0.09
  -1  15   0   -0.07    0.10
   1  15   0   -0.03    0.10
   1  15   0   -0.01    0.09
   5   0  -1    0.04    0.10
  -5   0   1    0.09    0.09
   4   0  -1   -0.02    0.05
  -4   0   1    0.00    0.04
  -4   0   1   -0.08    0.06
   4   0  -1   -0.09    0.05
   3   0  -1    0.00    0.03
   3   0  -1    0.02    0.05
  -3   0   1   -0.03    0.03
  -3   0   1   -0.05    0.05
   2   0  -1    0.03    0.03
   2   0  -1   -0.04    0.03
  -2   0   1    0.05    0.03
   2   0  -1    0.04    0.04
  -2   0   1   -0.03    0.03
   1   0  -1   -0.01    0.02
   1   0  -1    0.03    0.03
  -1   0   1   -0.01    0.02
  -1   0   1   -0.02    0.02
   0   0   1   -0.06    0.01
   0   0  -1   -0.09    0.01
   0   0   1   -0.12    0.01
   1   0   1    0.03    0.03
   1   0   1   -0.04    0.03
   1   0   1    0.00    0.03
   1   0   1   -0.02    0.03
   2   0   1   -0.03    0.03
   2   0   1   -0.02    0.03
   2   0   1    0.04    0.04
   2   0   1    0.01    0.04
   3   0   1    0.04    0.05
   3   0   1   -0.04    0.04
   3   0   1   -0.03    0.04
   3   0   1   -0.02    0.05
  -4   0  -1   -0.03    0.05
   4   0   1    0.04    0.05
   4   0   1   -0.03    0.06
   4   0   1    0.00    0.06
  -4   0  -1   -0.01    0.05
   5   0   1   -0.01    0.06
  -5   0  -1   -0.10    0.05
   5  -1  -1    0.18    0.11
  -5  -1   1   -0.06    0.06
   5   1  -1   -0.09    0.08
  -5   1   1   -0.09    0.07
  -4  -1   1    1.02    0.15
   4  -1  -1    1.14    0.17
   4  -1  -1    0.92    0.12
  -4   1   1    1.08    0.14
   4   1  -1    1.11    0.14
  -4   1   1    1.23    0.17
   4   1  -1    1.08    0.16
  -3  -1   1    1.09    0.13
   3  -1  -1    1.08    0.11
  -3  -1   1    1.02    0.10
   3  -1  -1    1.21    0.14
   3  -1  -1    0.86    0.12
   3   1  -1    1.12    0.12
  -3   1   1    1.20    0.12
   3   1  -1    1.04    0.14
   2  -1  -1    8.73    0.25
   2  -1  -1    8.76    0.20
  -2  -1   1    8.30    0.24
   2  -1  -1    8.60    0.26
   2   1  -1    8.55    0.25
   2   1  -1    8.66    0.19
   2   1  -1    8.65    0.23
  -2   1   1    8.11    0.21
  -1  -1   1    7.49    0.17
   1  -1  -1    7.61    0.18
   1  -1  -1    7.36    0.18
   1  -1  -1    7.42    0.13
   1   1  -1    7.40    0.17
   1   1  -1    7.50    0.13
   1   1  -1    7.43    0.18
  -1   1   1    7.46    0.16
   0  -1   1   13.57    0.18
   0  -1  -1   13.46    0.20
   0  -1   1   13.77    0.21
   0   1   1   13.64    0.20
   0   1  -1   13.62    0.19
   0   1  -1   13.77    0.20
   1  -1   1   53.71    0.66
   1  -1   1   54.24    0.73
   1  -1   1   53.96    0.71
   1  -1   1   53.15    0.68
   1   1   1   53.71    0.69
   1   1   1   53.99    0.70
   1   1   1   53.47    0.70
   1   1   1   52.90    0.69
   2  -1   1    9.87    0.23
   2  -1   1    9.48    0.25
   2  -1   1    9.65    0.28
   2  -1   1    9.73    0.26
   2   1   1    9.98    0.27
   2   1   1    9.79    0.25
   2   1   1    9.82    0.26
   2   1   1    9.28    0.25
   3  -1   1    0.58    0.10
   3  -1   1    0.53    0.10
   3  -1   1    0.68    0.09
  -3   1  -1    0.76    0.11
   3   1   1    0.60    0.10
   3   1   1    0.67    0.11
   3   1   1    0.43    0.09
   3   1   1    0.61    0.09
  -4  -1  -1    0.06    0.07
  -4  -1  -1    0.03    0.05
   4  -1   1   -0.06    0.06
   4  -1   1    0.00    0.06
   4  -1   1   -0.09    0.05
   4   1   1    0.03    0.06
   4   1   1    0.01    0.07
  -4   1  -1   -0.03    0.05
   5  -1   1    0.09    0.09
  -5  -1  -1    0.12    0.09
   5   1   1    0.26    0.11
   5   1   1    0.32    0.12
  -5   1  -1    0.12    0.09
   5  -2  -1    0.05    0.08
  -5  -2   1    0.14    0.10
  -5   2   1   -0.07    0.08
   5   2  -1    0.04    0.08
   5   2  -1    0.08    0.09
   4  -2  -1   -0.01    0.07
   4  -2  -1    0.03    0.07
  -4  -2   1   -0.02    0.06
  -4   2   1   -0.01    0.05
   4   2  -1    0.10    0.09
  -4   2   1   -0.02    0.06
   4   2  -1    0.00    0.06
   3  -2  -1   13.34    0.39
   3  -2  -1   12.44    0.40
  -3  -2   1   12.45    0.36
   3  -2  -1   13.16    0.29
   3   2  -1   13.86    0.40
   3   2  -1   12.92    0.36
   3   2  -1   12.81    0.30
  -3   2   1   13.15    0.35
   2  -2  -1    0.83    0.10
   2  -2  -1    0.66    0.05
   2  -2  -1    0.75    0.10
  -2  -2   1    0.93    0.10
  -2   2   1    0.83    0.09
   2   2  -1    0.83    0.06
   2   2  -1    0.92    0.11
   2   2  -1    0.77    0.09
   1  -2  -1   -0.02    0.03
   1  -2  -1   -0.04    0.03
  -1  -2   1    0.03    0.03
   1   2  -1    0.04    0.04
   1   2  -1    0.08    0.04
  -1   2   1    0.02    0.03
   1   2  -1    0.02    0.02
   0  -2   1   21.98    0.31
   0  -2  -1   22.01    0.28
   0  -2  -1   21.16    0.32
   0  -2   1   21.39    0.32
   0   2  -1   21.59    0.31
   0   2   1   22.17    0.30
   0   2   1   21.56    0.32
   0   2  -1   21.59    0.30
  -1  -2  -1    6.06    0.17
   1  -2   1    5.91    0.15
  -1  -2  -1    5.96    0.13
  -1   2  -1    5.77    0.12
   1   2   1    5.77    0.17
  -1   2  -1    5.96    0.17
   1   2   1    5.90    0.15
  -2  -2  -1    0.00    0.03
   2  -2   1    0.01    0.03
   2  -2   1    0.02    0.03
   2  -2   1    0.00    0.04
   2   2   1    0.04    0.05
  -2   2  -1    0.01    0.04
   2   2   1    0.01    0.03
   2   2   1   -0.06    0.03
   3  -2   1    0.18    0.06
  -3  -2  -1    0.19    0.07
   3  -2   1    0.13    0.06
   3  -2   1    0.19    0.08
   3   2   1    0.14    0.06
  -3   2  -1    0.09    0.06
   3   2   1    0.05    0.06
   3   2   1    0.24    0.07
   4  -2   1    2.42    0.25
  -4  -2  -1    1.95    0.17
   4  -2   1    2.15    0.22
   4   2   1    2.06    0.16
  -4   2  -1    1.59    0.18
   4   2   1    2.22    0.19
   4   2   1    1.53    0.19
   5  -2   1    0.12    0.10
  -5  -2  -1    0.26    0.11
   5   2   1    0.30    0.13
  -5   2  -1    0.12    0.09
   5   2   1    0.06    0.09
   5  -3  -1    0.10    0.10
  -5  -3   1    0.03    0.08
   5   3  -1    0.06    0.09
  -5   3   1    0.06    0.09
   5   3  -1    0.10    0.10
   4  -3  -1    1.21    0.18
  -4  -3   1    0.82    0.14
   4  -3  -1    0.72    0.14
  -4   3   1    1.03    0.15
   4   3  -1    1.00    0.15
   4   3  -1    0.88    0.16
   3  -3  -1    1.91    0.15
   3  -3  -1    1.69    0.09
  -3  -3   1    1.82    0.14
   3  -3  -1    1.83    0.16
  -3   3   1    1.93    0.14
   3   3  -1    2.02    0.16
   3   3  -1    1.81    0.11
   3   3  -1    1.77    0.14
   2  -3  -1   11.85    0.31
  -2  -3   1   11.93    0.29
   2  -3  -1   11.85    0.19
   2  -3  -1   11.82    0.33
   2   3  -1   11.87    0.32
   2   3  -1   11.74    0.32
  -2   3   1   11.74    0.30
   2   3  -1   11.63    0.24
   1  -3  -1    8.19    0.22
  -1  -3   1    8.42    0.19
  -1  -3   1    8.44    0.22
   1  -3  -1    8.28    0.21
  -1   3   1    8.73    0.22
   1   3  -1    8.32    0.17
   0  -3   1   50.18    0.67
   0  -3   1   48.86    0.66
   0  -3  -1   51.38    0.68
   0  -3  -1   50.61    0.62
   0   3   1   50.15    0.67
   0   3   1   50.85    0.63
   0   3  -1   48.87    0.64
  -1  -3  -1    9.84    0.24
   1  -3   1    9.96    0.25
  -1  -3  -1    9.79    0.17
   1  -3   1   10.11    0.22
   1   3   1    9.92    0.22
  -1   3  -1    9.99    0.24
   1   3   1    9.79    0.24
  -1   3  -1   10.08    0.17
   2  -3   1    6.66    0.21
   2  -3   1    6.53    0.24
  -2  -3  -1    6.28    0.19
  -2  -3  -1    6.02    0.22
  -2   3  -1    6.57    0.23
   2   3   1    6.43    0.20
   2   3   1    6.55    0.23
  -2   3  -1    6.14    0.15
   3  -3   1    2.61    0.19
   3  -3   1    3.37    0.19
  -3  -3  -1    2.76    0.16
  -3   3  -1    2.43    0.13
   3   3   1    2.50    0.17
   3   3   1    2.54    0.18
   3   3   1    2.70    0.15
  -3   3  -1    2.75    0.18
  -4  -3  -1    0.94    0.15
   4  -3   1    0.99    0.15
   4  -3   1    1.16    0.18
  -4  -3  -1    1.17    0.15
   4   3   1    1.02    0.16
   4   3   1    1.07    0.14
  -4   3  -1    1.07    0.16
   4   3   1    0.96    0.15
  -5  -3  -1    0.05    0.09
   5  -3   1    0.00    0.08
   5  -3   1   -0.06    0.08
   5   3   1   -0.02    0.09
  -5   3  -1   -0.03    0.07
   5  -4  -1   -0.02    0.07
  -5  -4   1    0.21    0.11
   5   4  -1   -0.09    0.08
  -5   4   1    0.12    0.09
   4  -4  -1    0.41    0.13
   4  -4  -1    0.27    0.11
  -4  -4   1    0.53    0.11
  -4  -4   1    0.26    0.09
   4   4  -1    0.25    0.10
  -4   4   1    0.46    0.11
   4   4  -1    0.33    0.12
  -3  -4   1    3.68    0.22
  -3  -4   1    4.03    0.20
   3  -4  -1    3.81    0.23
   3  -4  -1    3.79    0.21
   3   4  -1    3.81    0.15
   3   4  -1    3.76    0.22
  -3   4   1    3.86    0.21
   3   4  -1    3.85    0.22
  -2  -4   1    0.35    0.06
  -2  -4   1    0.50    0.09
   2  -4  -1    0.38    0.07
   2  -4  -1    0.29    0.07
  -2   4   1    0.31    0.07
   2   4  -1    0.41    0.06
   2   4  -1    0.33    0.08
  -1  -4   1   27.86    0.49
   1  -4  -1   28.40    0.49
  -1  -4   1   27.69    0.43
   1  -4  -1   27.42    0.48
   1   4  -1   27.66    0.42
  -1   4   1   27.89    0.49
   1   4  -1   27.27    0.48
   0  -4   1    3.24    0.13
   0  -4  -1    3.57    0.14
   0  -4  -1    3.28    0.10
   0  -4   1    3.15    0.12
   0   4   1    3.06    0.13
   0   4  -1    3.33    0.13
   0   4  -1    3.44    0.12
   0   4   1    3.42    0.11
   1  -4   1    4.98    0.16
  -1  -4  -1    5.20    0.11
   1  -4   1    5.34    0.19
  -1  -4  -1    5.05    0.19
  -1   4  -1    5.39    0.19
   1   4   1    5.04    0.18
   1   4   1    5.17    0.16
  -1   4  -1    5.17    0.12
   2  -4   1    2.13    0.15
   2  -4   1    1.88    0.12
  -2  -4  -1    2.06    0.14
  -2  -4  -1    2.01    0.10
   2   4   1    1.86    0.14
  -2   4  -1    1.98    0.08
   2   4   1    2.07    0.12
  -2   4  -1    1.77    0.14
  -3  -4  -1    0.08    0.07
  -3  -4  -1    0.10    0.05
   3  -4   1    0.18    0.07
   3  -4   1    0.08    0.06
  -3   4  -1    0.07    0.07
   3   4   1    0.14    0.07
   3   4   1    0.12    0.05
  -4  -4  -1    0.98    0.16
   4  -4   1    0.76    0.16
   4  -4   1    0.80    0.13
  -4  -4  -1    0.90    0.13
   4   4   1    0.74    0.14
  -4   4  -1    0.80    0.14
  -5  -4  -1    0.01    0.07
   5  -4   1   -0.01    0.09
   5  -4   1   -0.02    0.09
  -5   4  -1   -0.02    0.07
   5   4   1    0.06    0.09
  -5  -5   1    0.03    0.08
   5  -5  -1   -0.02    0.08
  -5   5   1    0.08    0.08
   5   5  -1    0.15    0.11
  -5   5   1    0.05    0.08
  -4  -5   1    0.60    0.14
   4  -5  -1    0.61    0.14
  -4  -5   1    0.39    0.10
   4  -5  -1    0.51    0.12
   4   5  -1    0.54    0.12
  -4   5   1    0.61    0.13
   3  -5  -1    1.84    0.19
  -3  -5   1    1.28    0.17
   3  -5  -1    1.66    0.19
  -3  -5   1    1.52    0.13
   3   5  -1    1.86    0.11
   3   5  -1    1.40    0.17
  -3   5   1    1.83    0.18
   2  -5  -1    0.37    0.08
  -2  -5   1    0.26    0.08
  -2  -5   1    0.32    0.06
   2  -5  -1    0.27    0.07
   2   5  -1    0.25    0.05
   2   5  -1    0.23    0.07
  -2   5   1    0.13    0.06
   1  -5  -1    9.86    0.26
   1  -5  -1    9.59    0.27
  -1  -5   1    9.74    0.27
  -1  -5   1    9.79    0.22
  -1   5   1    9.45    0.27
   1   5  -1    9.67    0.27
  -1   5   1    9.11    0.15
   1   5  -1    9.41    0.23
   0  -5  -1   18.83    0.31
   0  -5   1   18.40    0.35
   0  -5   1   18.68    0.37
   0  -5  -1   18.74    0.38
   0   5  -1   18.17    0.33
   0   5  -1   18.58    0.37
   0   5   1   18.39    0.37
   0   5   1   18.05    0.33
  -1  -5  -1   10.44    0.29
   1  -5   1   10.06    0.28
  -1  -5  -1   10.49    0.18
   1  -5   1   10.29    0.26
  -1   5  -1   10.45    0.29
  -1   5  -1   10.66    0.20
   1   5   1   10.55    0.28
   1   5   1   10.31    0.26
  -2  -5  -1    3.62    0.13
   2  -5   1    3.71    0.17
   2  -5   1    3.40    0.19
  -2  -5  -1    3.20    0.18
   2   5   1    3.64    0.19
  -2   5  -1    3.47    0.19
   2   5   1    3.56    0.16
  -2   5  -1    3.50    0.09
   3  -5   1    1.27    0.17
  -3  -5  -1    1.36    0.11
  -3  -5  -1    1.56    0.18
   3  -5   1    1.41    0.15
   3   5   1    1.42    0.12
  -3   5  -1    1.60    0.18
   3   5   1    1.44    0.17
   4  -5   1    1.25    0.17
  -4  -5  -1    1.31    0.19
   4  -5   1    1.28    0.19
  -4   5  -1    1.42    0.19
   4   5   1    1.04    0.17
  -5  -5  -1    0.93    0.19
   5  -5   1    1.06    0.19
   5  -5   1    0.69    0.18
   5   5   1    0.94    0.20
  -5   5  -1    0.82    0.17
  -5  -6   1   -0.06    0.08
   5  -6  -1    0.12    0.11
   5  -6  -1   -0.04    0.10
  -5   6   1   -0.01    0.08
  -5   6   1   -0.05    0.08
   5   6  -1   -0.11    0.08
   4  -6  -1    0.25    0.11
  -4  -6   1    0.27    0.11
   4  -6  -1    0.25    0.11
   4   6  -1    0.27    0.11
  -4   6   1    0.27    0.10
   3  -6  -1    0.99    0.15
   3  -6  -1    0.59    0.13
  -3  -6   1    0.86    0.14
  -3  -6   1    0.73    0.11
   3   6  -1    0.97    0.11
   3   6  -1    0.75    0.14
  -3   6   1    0.92    0.14
  -2  -6   1   14.05    0.40
  -2  -6   1   13.57    0.31
   2  -6  -1   13.48    0.38
   2  -6  -1   13.34    0.39
  -2   6   1   13.83    0.39
   2   6  -1   12.83    0.30
   2   6  -1   13.47    0.39
   1  -6  -1   40.13    0.68
  -1  -6   1   38.97    0.69
  -1  -6   1   39.97    0.60
   1  -6  -1   38.78    0.66
  -1   6   1   40.10    0.51
  -1   6   1   39.81    0.70
   1   6  -1   39.99    0.68
   1   6  -1   39.34    0.63
   0  -6   1   30.96    0.56
   0  -6  -1   31.19    0.57
   0  -6  -1   31.39    0.48
   0  -6   1   30.97    0.52
   0   6  -1   30.67    0.55
   0   6  -1   30.51    0.51
   0   6   1   31.57    0.50
   0   6   1   30.83    0.56
  -1  -6  -1    3.08    0.09
   1  -6   1    3.28    0.16
   1  -6   1    3.23    0.17
  -1  -6  -1    3.05    0.17
   1   6   1    3.12    0.16
  -1   6  -1    3.03    0.17
  -1   6  -1    3.26    0.11
   1   6   1    3.28    0.15
   2  -6   1    5.85    0.26
  -2  -6  -1    5.48    0.16
   2  -6   1    5.83    0.23
  -2  -6  -1    5.51    0.25
  -2   6  -1    5.12    0.24
   2   6   1    5.19    0.24
   2   6   1    5.46    0.21
  -3  -6  -1    0.90    0.15
   3  -6   1    1.13    0.15
   3  -6   1    0.97    0.15
   3   6   1    1.16    0.16
   3   6   1    1.28    0.14
  -3   6  -1    0.97    0.15
   4  -6   1    1.41    0.21
  -4  -6  -1    1.19    0.19
   4  -6   1    1.39    0.18
  -4   6  -1    1.19    0.18
   4   6   1    1.02    0.18
   5  -6   1    0.10    0.10
  -5  -6  -1   -0.04    0.07
   5  -6   1   -0.01    0.10
   5   6   1    0.06    0.12
  -5   6  -1    0.20    0.11
  -5  -7   1   -0.10    0.06
   5  -7  -1   -0.06    0.09
   5  -7  -1   -0.14    0.08
   5   7  -1    0.13    0.12
  -5   7   1    0.02    0.09
   4  -7  -1    0.50    0.14
   4  -7  -1    0.36    0.12
  -4  -7   1    0.39    0.13
   4   7  -1    0.38    0.13
  -4   7   1    0.34    0.11
   3  -7  -1    0.37    0.10
  -3  -7   1    0.71    0.14
   3  -7  -1    0.33    0.10
   3   7  -1    0.42    0.11
  -3   7   1    0.05    0.07
   2  -7  -1    1.30    0.15
  -2  -7   1    1.22    0.15
   2  -7  -1    1.70    0.17
  -2  -7   1    1.57    0.11
   2   7  -1    1.28    0.11
   2   7  -1    1.10    0.15
  -2   7   1    1.20    0.15
   1  -7  -1    5.63    0.23
  -1  -7   1    5.57    0.24
   1  -7  -1    5.68    0.22
  -1  -7   1    5.56    0.18
  -1   7   1    5.54    0.14
   1   7  -1    5.58    0.23
   1   7  -1    5.43    0.20
  -1   7   1    5.72    0.24
   0  -7   1    0.05    0.04
   0  -7  -1    0.04    0.03
   0  -7   1    0.07    0.05
   0  -7  -1    0.02    0.05
   0   7  -1    0.01    0.05
   0   7  -1   -0.01    0.03
   0   7   1    0.01    0.04
   0   7   1    0.04    0.04
  -1  -7  -1    4.83    0.23
   1  -7   1    5.57    0.23
   1  -7   1    5.13    0.21
  -1  -7  -1    5.25    0.13
   1   7   1    5.40    0.22
  -1   7  -1    5.15    0.15
   1   7   1    4.81    0.21
  -1   7  -1    5.48    0.24
   2  -7   1   -0.01    0.05
   2  -7   1    0.09    0.06
  -2  -7  -1    0.13    0.08
  -2   7  -1    0.15    0.08
   2   7   1    0.07    0.07
   2   7   1    0.13    0.06
   3  -7   1    1.06    0.14
  -3  -7  -1    0.88    0.15
   3  -7   1    1.07    0.17
   3   7   1    0.83    0.12
   3   7   1    0.94    0.15
  -3   7  -1    1.35    0.18
   4  -7   1    3.35    0.24
   4  -7   1    2.90    0.31
  -4  -7  -1    2.99    0.26
  -4   7  -1    2.61    0.28
   4   7   1    2.76    0.29
   5  -7   1    0.02    0.10
  -5  -7  -1   -0.04    0.09
   5  -7   1   -0.02    0.09
   5   7   1    0.02    0.12
  -5   7  -1    0.09    0.10
   4  -8  -1    0.13    0.10
   4  -8  -1    0.16    0.10
  -4  -8   1    0.32    0.12
   4   8  -1    0.28    0.12
  -4   8   1    0.26    0.12
  -3  -8   1   12.02    0.46
   3  -8  -1   12.60    0.43
   3  -8  -1   12.07    0.45
  -3   8   1   12.18    0.44
   3   8  -1   12.43    0.46
   2  -8  -1    4.31    0.24
  -2  -8   1    4.91    0.26
   2  -8  -1    4.61    0.24
  -2  -8   1    4.72    0.18
  -2   8   1    4.59    0.25
   2   8  -1    4.93    0.26
   2   8  -1    4.45    0.20
  -1  -8   1    1.96    0.12
   1  -8  -1    1.61    0.13
   1  -8  -1    1.90    0.15
  -1  -8   1    1.79    0.15
  -1   8   1    1.87    0.09
   1   8  -1    1.67    0.13
  -1   8   1    1.87    0.16
   1   8  -1    1.54    0.15
   0  -8   1    1.36    0.15
   0  -8   1    1.32    0.11
   0  -8  -1    1.39    0.09
   0  -8  -1    1.57    0.16
   0   8   1    1.32    0.14
   0   8  -1    1.34    0.11
   0   8   1    1.43    0.11
   0   8  -1    1.45    0.15
   1  -8   1    2.44    0.17
  -1  -8  -1    2.28    0.09
   1  -8   1    2.39    0.16
  -1  -8  -1    2.35    0.18
   1   8   1    2.30    0.15
  -1   8  -1    2.12    0.16
  -1   8  -1    2.31    0.11
   1   8   1    2.34    0.16
  -2  -8  -1    0.78    0.14
   2  -8   1    0.81    0.12
   2  -8   1    0.73    0.13
   2   8   1    0.80    0.12
   2   8   1    0.56    0.12
  -2   8  -1    0.79    0.14
  -3  -8  -1    4.46    0.28
   3  -8   1    4.62    0.29
   3  -8   1    4.28    0.24
   3   8   1    4.36    0.27
  -3   8  -1    4.52    0.27
   3   8   1    4.53    0.22
   4  -8   1    0.85    0.15
  -4  -8  -1    0.77    0.17
   4  -8   1    0.76    0.18
   4   8   1    0.55    0.15
  -4   8  -1    0.59    0.15
  -4  -9   1    0.32    0.12
   4  -9  -1    0.44    0.12
   4  -9  -1    0.20    0.13
   4   9  -1    0.42    0.14
  -4   9   1    0.36    0.13
  -3  -9   1   -0.07    0.06
   3  -9  -1   -0.10    0.06
   3  -9  -1   -0.05    0.06
   3   9  -1   -0.07    0.06
  -3   9   1    0.08    0.09
   2  -9  -1    3.20    0.21
  -2  -9   1    2.85    0.21
   2  -9  -1    3.08    0.21
   2   9  -1    2.75    0.17
  -2   9   1    3.19    0.22
   2   9  -1    2.60    0.22
  -1  -9   1    1.16    0.16
   1  -9  -1    1.06    0.13
  -1  -9   1    1.13    0.10
   1  -9  -1    0.96    0.14
   1   9  -1    1.06    0.15
  -1   9   1    1.16    0.16
   1   9  -1    0.99    0.13
  -1   9   1    1.06    0.08
   0  -9   1    1.02    0.14
   0  -9  -1    1.06    0.15
   0  -9   1    0.90    0.11
   0  -9  -1    0.75    0.09
   0   9  -1    0.92    0.13
   0   9   1    0.63    0.09
   0   9   1    0.50    0.11
   0   9  -1    0.87    0.11
   1  -9   1    0.36    0.10
   1  -9   1    0.21    0.08
  -1  -9  -1    0.05    0.07
  -1   9  -1    0.26    0.06
   1   9   1    0.32    0.08
  -1   9  -1    0.19    0.08
   1   9   1    0.25    0.08
  -2  -9  -1    0.03    0.07
   2  -9   1    0.03    0.07
   2  -9   1    0.00    0.06
   2   9   1    0.05    0.06
  -2   9  -1   -0.03    0.07
   2   9   1    0.03    0.08
   3  -9   1    0.03    0.07
  -3  -9  -1    0.13    0.09
   3  -9   1    0.02    0.07
  -3   9  -1    0.18    0.10
   3   9   1   -0.02    0.07
   4  -9   1   -0.10    0.06
  -4  -9  -1    0.02    0.09
   4  -9   1    0.21    0.11
   4   9   1   -0.08    0.08
  -4   9  -1    0.00    0.08
   4 -10  -1    1.89    0.24
   4 -10  -1    2.54    0.32
  -4 -10   1    1.85    0.27
  -4  10   1    1.58    0.24
   4  10  -1    2.60    0.30
   3 -10  -1    0.05    0.08
   3 -10  -1    0.42    0.12
  -3 -10   1    0.00    0.08
   3  10  -1    0.08    0.09
  -3  10   1    0.09    0.10
  -2 -10   1    1.92    0.22
   2 -10  -1    1.80    0.20
   2 -10  -1    2.05    0.21
  -2  10   1    1.81    0.21
   2  10  -1    1.83    0.21
   2  10  -1    1.77    0.15
  -1 -10   1    0.37    0.11
   1 -10  -1    0.33    0.11
   1 -10  -1    0.43    0.10
  -1 -10   1    0.45    0.09
  -1  10   1    0.29    0.10
   1  10  -1    0.28    0.09
   1  10  -1    0.30    0.09
   0 -10   1    1.60    0.18
   0 -10  -1    1.50    0.11
   0 -10  -1    1.40    0.18
   0 -10   1    1.49    0.13
   0  10   1    2.01    0.20
   0  10   1    1.56    0.13
   0  10  -1    1.85    0.14
   0  10  -1    1.87    0.19
  -1 -10  -1    1.16    0.17
   1 -10   1    0.77    0.12
   1 -10   1    0.79    0.14
  -1  10  -1    1.04    0.16
   1  10   1    0.96    0.14
   1  10   1    1.00    0.15
  -2 -10  -1   -0.09    0.06
   2 -10   1    0.04    0.06
   2 -10   1    0.01    0.06
   2  10   1   -0.05    0.07
  -2  10  -1    0.00    0.07
   2  10   1    0.00    0.06
  -3 -10  -1    0.03    0.08
   3 -10   1   -0.05    0.06
   3 -10   1    0.00    0.06
   3  10   1    0.01    0.09
  -3  10  -1    0.11    0.09
  -4 -10  -1   -0.03    0.08
   4 -10   1    0.08    0.10
   4 -10   1    0.19    0.10
  -4  10  -1    0.05    0.10
   4  10   1   -0.18    0.09
   4 -11  -1    0.17    0.10
  -4 -11   1    0.07    0.10
   4 -11  -1    0.08    0.11
  -4  11   1    0.13    0.10
   4  11  -1    0.01    0.08
   3 -11  -1    0.71    0.16
   3 -11  -1    0.67    0.15
  -3 -11   1    0.50    0.14
  -3  11   1    0.57    0.15
   3  11  -1    0.34    0.12
  -2 -11   1    0.94    0.18
   2 -11  -1    0.97    0.16
   2 -11  -1    0.78    0.15
   2  11  -1    1.02    0.14
   2  11  -1    1.00    0.16
  -2  11   1    1.03    0.19
  -1 -11   1    1.04    0.17
   1 -11  -1    1.46    0.19
   1 -11  -1    1.39    0.16
   1  11  -1    1.17    0.16
  -1  11   1    1.42    0.19
   1  11  -1    1.39    0.18
   0 -11  -1    1.73    0.20
   0 -11   1    1.86    0.14
   0 -11   1    1.82    0.20
   0  11  -1    2.35    0.16
   0  11   1    2.10    0.16
   0  11   1    2.04    0.22
   0  11  -1    1.95    0.21
   1 -11   1    3.76    0.24
   1 -11   1    3.60    0.22
  -1 -11  -1    3.00    0.24
   1  11   1    3.75    0.23
   1  11   1    3.75    0.24
  -1  11  -1    3.35    0.24
  -2 -11  -1    1.05    0.18
   2 -11   1    1.15    0.18
   2 -11   1    0.99    0.15
   2  11   1    1.19    0.17
   2  11   1    1.21    0.17
  -2  11  -1    1.06    0.19
   3 -11   1    0.20    0.11
   3 -11   1    0.16    0.09
  -3 -11  -1    0.14    0.10
   3  11   1    0.06    0.08
  -3  11  -1    0.29    0.13
   4 -11   1    0.60    0.16
   4 -11   1    0.33    0.14
  -4 -11  -1    0.16    0.11
   4  11   1   -0.05    0.09
  -4  11  -1    0.21    0.12
   3 -12  -1    0.06    0.10
  -3 -12   1    0.35    0.13
   3 -12  -1    0.28    0.12
  -3  12   1    0.32    0.14
   3  12  -1    0.34    0.13
   2 -12  -1    0.10    0.09
  -2 -12   1    0.33    0.13
   2 -12  -1    0.14    0.08
   2  12  -1    0.21    0.09
   2  12  -1   -0.08    0.06
  -2  12   1    0.14    0.10
   1 -12  -1    0.04    0.06
  -1 -12   1    0.09    0.08
   1 -12  -1    0.08    0.09
  -1  12   1    0.00    0.08
   1  12  -1    0.13    0.09
   1  12  -1    0.12    0.08
   0 -12  -1    5.34    0.31
   0 -12   1    5.57    0.30
   0  12   1    5.32    0.30
   0  12  -1    5.39    0.26
   0  12   1    5.57    0.25
   0  12  -1    5.96    0.31
   1 -12   1    0.39    0.10
   1 -12   1    0.63    0.14
  -1 -12  -1    0.31    0.12
   1  12   1    0.48    0.13
   1  12   1    0.56    0.12
  -1  12  -1    0.34    0.12
   2 -12   1    0.35    0.11
   2 -12   1    0.25    0.10
  -2 -12  -1    0.26    0.12
  -2  12  -1    0.40    0.13
   2  12   1    0.39    0.12
   2  12   1    0.46    0.11
  -3 -12  -1   -0.11    0.06
   3 -12   1    0.04    0.09
   3 -12   1    0.03    0.08
   3  12   1   -0.07    0.09
  -3  12  -1   -0.01    0.09
   3 -13  -1    0.20    0.10
  -3 -13   1    0.42    0.15
   3 -13  -1    0.35    0.13
   3  13  -1    0.53    0.15
  -3  13   1    0.36    0.15
  -2 -13   1    0.49    0.14
   2 -13  -1    0.69    0.15
   2 -13  -1    0.60    0.14
   2  13  -1    0.36    0.12
  -2  13   1    0.38    0.14
   1 -13  -1    0.83    0.17
  -1 -13   1    0.96    0.17
  -1  13   1    1.24    0.20
   1  13  -1    1.04    0.17
   1  13  -1    1.20    0.18
   0 -13  -1    0.81    0.16
   0 -13   1    0.33    0.12
   0  13   1    0.53    0.14
   0  13  -1    0.62    0.14
   1 -13   1    1.93    0.23
   1 -13   1    2.04    0.22
  -1 -13  -1    1.43    0.21
   1  13   1    1.89    0.21
  -1  13  -1    1.64    0.23
   1  13   1    1.95    0.23
   2 -13   1    0.01    0.07
  -2 -13  -1    0.02    0.09
   2 -13   1    0.04    0.07
   2  13   1    0.11    0.10
  -2  13  -1   -0.12    0.09
   2  13   1    0.07    0.08
   3 -13   1    0.11    0.09
   3 -13   1   -0.12    0.07
  -3 -13  -1    0.02    0.10
   3  13   1    0.12    0.11
  -3  13  -1    0.11    0.11
   2 -14  -1    1.31    0.21
  -2 -14   1    1.34    0.23
  -2  14   1    0.97    0.21
   2  14  -1    1.03    0.19
  -1 -14   1    0.08    0.09
   1 -14  -1    0.03    0.09
  -1  14   1    0.05    0.11
   1  14  -1    0.07    0.08
   1  14  -1    0.11    0.10
   0 -14  -1    0.02    0.09
   0 -14   1    0.03    0.08
   0  14   1    0.11    0.12
   0  14  -1    0.02    0.11
  -1 -14  -1    0.13    0.11
   1 -14   1    0.02    0.09
   1  14   1   -0.03    0.07
  -1  14  -1   -0.04    0.09
   1  14   1    0.12    0.11
   2 -14   1    0.19    0.10
  -2 -14  -1    0.11    0.11
   2 -14   1    0.21    0.12
   2  14   1   -0.13    0.07
   2  14   1   -0.02    0.09
  -2  14  -1    0.01    0.11
   1 -15  -1    0.60    0.16
  -1 -15   1    0.38    0.16
   1  15  -1    0.52    0.16
   1  15  -1    0.65    0.14
  -1  15   1    0.50    0.15
   0 -15   1    0.06    0.09
   0 -15  -1    0.00    0.10
   0  15  -1   -0.08    0.09
   0  15   1   -0.07    0.09
   1 -15   1    0.01    0.08
  -1 -15  -1   -0.03    0.09
   1  15   1   -0.01    0.10
  -1  15  -1    0.07    0.11
   5   0  -2    0.90    0.17
  -5   0   2    0.91    0.18
  -4   0   2    1.85    0.21
   4   0  -2    1.83    0.15
   4   0  -2    2.00    0.22
   3   0  -2    0.12    0.07
  -3   0   2    0.11    0.05
  -3   0   2    0.10    0.06
   3   0  -2    0.06    0.04
   2   0  -2    0.06    0.03
  -2   0   2    0.06    0.04
   2   0  -2    0.00    0.03
  -2   0   2    0.01    0.02
  -1   0   2   55.35    0.65
   1   0  -2   55.26    0.73
  -1   0   2   54.14    0.75
   1   0  -2   56.14    0.70
   0   0  -2   81.84    0.95
   0   0   2   80.66    0.97
   0   0  -2   82.18    0.90
   0   0   2   81.60    0.94
   1   0   2  987.50   11.68
   1   0   2 1000.00   11.31
   1   0   2  998.64   11.50
   1   0   2  978.97   11.20
   2   0   2    8.92    0.25
   2   0   2    8.96    0.24
   2   0   2    8.81    0.26
   2   0   2    8.73    0.25
   3   0   2    0.26    0.07
   3   0   2    0.23    0.07
   3   0   2    0.29    0.09
   3   0   2    0.19    0.07
   4   0   2    0.04    0.06
  -4   0  -2    0.09    0.06
   4   0   2    0.13    0.07
   4   0   2    0.07    0.07
  -5   0  -2    0.09    0.08
   5   0   2    0.11    0.09
  -5  -1   2   -0.05    0.07
   5  -1  -2    0.06    0.08
   5   1  -2   -0.04    0.07
  -5   1   2    0.06    0.08
   4  -1  -2   -0.06    0.05
   4  -1  -2   -0.01    0.05
  -4  -1   2   -0.02    0.06
   4   1  -2    0.08    0.06
  -4   1   2   -0.06    0.05
   4   1  -2    0.00    0.06
  -4   1   2    0.02    0.05
   3  -1  -2    2.33    0.13
   3  -1  -2    2.25    0.16
  -3  -1   2    2.64    0.17
  -3  -1   2    2.28    0.12
  -3   1   2    2.54    0.14
   3   1  -2    2.40    0.17
  -3   1   2    2.26    0.17
   3   1  -2    2.45    0.15
   2  -1  -2    2.23    0.10
   2  -1  -2    2.20    0.13
  -2  -1   2    2.07    0.12
  -2  -1   2    2.18    0.08
  -2   1   2    2.13    0.10
   2   1  -2    2.04    0.11
  -2   1   2    2.30    0.14
   2   1  -2    2.09    0.13
   1  -1  -2   12.69    0.20
   1  -1  -2   13.14    0.26
  -1  -1   2   12.52    0.25
   1   1  -2   12.59    0.24
  -1   1   2   12.60    0.26
  -1   1   2   13.06    0.22
   1   1  -2   12.63    0.25
   0  -1   2   65.09    0.80
   0  -1  -2   62.92    0.76
   0  -1   2   64.73    0.72
   0  -1   2   64.14    0.76
   0  -1  -2   64.57    0.76
   0   1  -2   63.53    0.77
   0   1   2   63.77    0.77
   0   1   2   64.29    0.76
   1  -1   2  248.39    3.05
   1  -1   2  254.29    3.13
   1  -1   2  258.97    3.14
  -1  -1  -2  261.14    2.97
   1   1   2  258.59    2.91
  -1   1  -2  261.04    2.85
   1   1   2  253.60    3.07
   1   1   2  260.09    2.90
   2  -1   2   25.12    0.45
   2  -1   2   24.39    0.48
   2  -1   2   25.97    0.50
   2  -1   2   25.13    0.44
   2   1   2   24.94    0.46
   2   1   2   25.58    0.47
   2   1   2   25.28    0.48
   2   1   2   25.47    0.47
   3  -1   2    1.32    0.14
   3  -1   2    0.98    0.13
   3  -1   2    1.19    0.12
   3  -1   2    1.32    0.15
  -3   1  -2    1.13    0.14
   3   1   2    1.21    0.14
   3   1   2    1.34    0.14
   3   1   2    1.41    0.15
   3   1   2    1.28    0.14
   4  -1   2    0.45    0.12
  -4  -1  -2    0.56    0.12
   4  -1   2    0.44    0.11
   4  -1   2    0.49    0.10
  -4   1  -2    0.40    0.10
   4   1   2    0.31    0.09
   4   1   2    0.46    0.11
   4   1   2    0.46    0.11
   4   1   2    0.56    0.11
  -5  -1  -2    0.18    0.10
   5  -1   2    0.35    0.12
  -5   1  -2   -0.02    0.08
   5   1   2    0.25    0.11
   5   1   2    0.29    0.11
  -5   1  -2    0.27    0.12
  -5  -2   2   -0.09    0.06
   5  -2  -2   -0.08    0.07
   5   2  -2   -0.05    0.07
   5   2  -2   -0.03    0.08
  -5   2   2    0.00    0.08
  -4  -2   2   -0.06    0.05
   4  -2  -2    0.02    0.06
  -4   2   2   -0.02    0.05
   4   2  -2    0.01    0.06
  -4   2   2    0.09    0.08
   4   2  -2    0.14    0.07
   3  -2  -2    0.74    0.08
  -3  -2   2    0.75    0.12
   3  -2  -2    0.87    0.13
   3  -2  -2    1.07    0.14
  -3  -2   2    0.78    0.08
  -3   2   2    0.77    0.10
   3   2  -2    0.65    0.10
   3   2  -2    0.85    0.13
  -3   2   2    0.94    0.14
   2  -2  -2    0.05    0.02
  -2  -2   2    0.08    0.04
   2  -2  -2    0.06    0.05
   2  -2  -2    0.02    0.04
   2   2  -2    0.07    0.02
  -2   2   2    0.06    0.04
   2   2  -2    0.00    0.04
   2   2  -2    0.11    0.05
   1  -2  -2   10.88    0.24
  -1  -2   2   11.20    0.24
   1  -2  -2   10.71    0.24
   1  -2  -2   11.13    0.16
   1   2  -2   10.80    0.15
   1   2  -2   11.04    0.25
   1   2  -2   10.80    0.24
   0  -2   2   80.92    1.03
   0  -2   2   80.29    0.95
   0  -2  -2   81.18    0.99
   0   2   2   84.69    1.01
   0   2   2   83.77    0.96
   0   2  -2   81.50    0.98
   0   2   2   84.39    0.97
   0   2  -2   81.75    0.98
   1  -2   2  109.11    1.41
  -1  -2  -2  110.24    1.35
   1  -2   2  112.74    1.30
  -1   2  -2  113.20    1.29
   1   2   2  112.70    1.36
  -1   2  -2  111.61    1.39
   1   2   2  111.74    1.30
   1   2   2  109.26    1.37
   2  -2   2   18.59    0.37
   2  -2   2   18.07    0.42
  -2  -2  -2   18.87    0.40
   2   2   2   18.63    0.40
  -2   2  -2   18.89    0.35
   2   2   2   18.06    0.36
   2   2   2   19.28    0.42
  -2   2  -2   19.12    0.42
   2   2   2   18.05    0.38
   3  -2   2    0.08    0.06
   3  -2   2   -0.02    0.05
   3   2   2    0.04    0.06
  -3   2  -2   -0.01    0.04
   3   2   2   -0.01    0.05
  -3   2  -2    0.21    0.08
   3   2   2    0.05    0.05
   3   2   2    0.09    0.06
   4  -2   2    0.23    0.10
  -4  -2  -2    0.32    0.10
   4  -2   2    0.13    0.08
   4   2   2    0.37    0.10
   4   2   2    0.16    0.08
  -4   2  -2    0.33    0.09
   4   2   2    0.27    0.09
   5  -2   2    0.06    0.09
  -5  -2  -2    0.27    0.10
  -5  -2  -2    0.30    0.11
   5  -2   2    0.07    0.11
   5   2   2    0.18    0.11
   5   2   2    0.24    0.11
  -5   2  -2    0.25    0.10
   5  -3  -2    0.06    0.10
  -5  -3   2    0.11    0.09
   5   3  -2   -0.08    0.06
   5   3  -2   -0.04    0.08
  -5   3   2    0.10    0.09
  -4  -3   2    0.21    0.09
   4  -3  -2    0.23    0.09
  -4   3   2    0.37    0.11
  -4   3   2    0.37    0.09
   4   3  -2    0.30    0.11
   4   3  -2    0.40    0.11
   3  -3  -2    0.03    0.07
   3  -3  -2    0.12    0.04
   3  -3  -2    0.14    0.07
  -3  -3   2    0.17    0.07
   3   3  -2    0.08    0.04
   3   3  -2    0.11    0.07
  -3   3   2    0.13    0.06
   3   3  -2    0.10    0.07
  -2  -3   2    3.31    0.15
   2  -3  -2    3.09    0.16
   2  -3  -2    3.21    0.17
   2  -3  -2    3.23    0.08
   2   3  -2    3.03    0.16
  -2   3   2    3.50    0.16
   2   3  -2    3.23    0.10
   2   3  -2    3.00    0.16
   1  -3  -2    0.30    0.02
   1  -3  -2    0.23    0.06
   1  -3  -2    0.26    0.05
  -1  -3   2    0.34    0.06
  -1  -3   2    0.25    0.05
   1   3  -2    0.37    0.04
   1   3  -2    0.30    0.06
  -1   3   2    0.39    0.06
   0  -3   2  173.99    1.98
   0  -3  -2  174.10    2.02
   0  -3  -2  177.90    2.12
   0  -3   2  168.15    2.06
   0   3   2  174.22    1.97
   0   3  -2  175.09    1.98
   0   3  -2  175.42    2.01
   0   3   2  175.26    2.03
  -1  -3  -2    0.02    0.04
  -1  -3  -2    0.03    0.02
   1  -3   2    0.11    0.05
   1  -3   2    0.05    0.03
   1   3   2    0.03    0.04
  -1   3  -2    0.06    0.03
  -1   3  -2    0.38    0.07
   1   3   2    0.03    0.04
  -2  -3  -2    0.27    0.07
   2  -3   2    0.25    0.07
   2  -3   2    0.18    0.05
  -2  -3  -2    0.18    0.05
   2   3   2    0.19    0.06
   2   3   2    0.21    0.07
  -2   3  -2    0.23    0.05
  -2   3  -2    0.20    0.06
   3  -3   2    0.42    0.11
   3  -3   2    0.21    0.06
  -3  -3  -2    0.22    0.07
  -3  -3  -2    0.30    0.08
   3   3   2    0.19    0.07
  -3   3  -2    0.27    0.07
  -3   3  -2    0.42    0.10
   3   3   2    0.28    0.09
  -4  -3  -2    0.13    0.08
   4  -3   2    0.02    0.08
  -4  -3  -2    0.11    0.06
   4  -3   2    0.15    0.08
   4   3   2    0.01    0.07
   4   3   2    0.13    0.07
  -4   3  -2    0.08    0.07
   5  -3   2   -0.09    0.08
  -5  -3  -2    0.02    0.08
   5  -3   2   -0.01    0.09
   5   3   2   -0.01    0.08
  -5   3  -2    0.00    0.06
   5  -4  -2    0.07    0.09
  -5  -4   2    0.17    0.11
  -5  -4   2    0.25    0.10
   5   4  -2   -0.03    0.09
   5   4  -2    0.18    0.11
  -5   4   2   -0.05    0.07
   4  -4  -2    0.57    0.13
   4  -4  -2    0.72    0.14
  -4  -4   2    0.31    0.09
  -4   4   2    0.62    0.11
  -4   4   2    0.58    0.14
   4   4  -2    0.54    0.12
   4   4  -2    0.48    0.13
   3  -4  -2    3.05    0.21
   3  -4  -2    3.03    0.20
  -3  -4   2    3.25    0.18
   3   4  -2    3.04    0.12
   3   4  -2    3.17    0.21
   3   4  -2    3.11    0.20
  -3   4   2    2.84    0.17
   2  -4  -2    0.30    0.07
  -2  -4   2    0.33    0.07
   2  -4  -2    0.40    0.08
  -2  -4   2    0.40    0.08
   2   4  -2    0.41    0.05
   2   4  -2    0.38    0.08
  -2   4   2    0.44    0.08
   2   4  -2    0.36    0.08
   1  -4  -2    3.48    0.14
  -1  -4   2    3.40    0.13
   1  -4  -2    3.29    0.07
  -1  -4   2    3.42    0.15
   1  -4  -2    3.16    0.15
   1   4  -2    3.43    0.11
  -1   4   2    3.49    0.15
   1   4  -2    3.54    0.15
   0  -4   2    3.67    0.13
   0  -4  -2    3.71    0.10
   0  -4  -2    3.99    0.15
   0  -4   2    3.79    0.14
   0   4  -2    3.88    0.13
   0   4   2    3.75    0.15
   0   4  -2    3.54    0.13
   0   4   2    3.67    0.12
   1  -4   2   18.73    0.40
   1  -4   2   18.87    0.34
  -1  -4  -2   19.23    0.39
   1   4   2   18.16    0.38
  -1   4  -2   18.75    0.30
   1   4   2   18.49    0.37
  -1   4  -2   18.59    0.39
  -2  -4  -2    6.27    0.17
  -2  -4  -2    6.05    0.24
   2  -4   2    6.29    0.21
   2  -4   2    6.40    0.26
   2   4   2    6.07    0.24
   2   4   2    5.87    0.21
  -2   4  -2    6.10    0.16
  -2   4  -2    6.01    0.24
   3  -4   2    0.59    0.11
   3  -4   2    0.69    0.13
  -3  -4  -2    0.67    0.12
  -3  -4  -2    0.66    0.09
   3   4   2    0.73    0.11
  -3   4  -2    0.71    0.08
  -3   4  -2    0.54    0.12
   3   4   2    0.60    0.12
   4  -4   2    1.97    0.24
  -4  -4  -2    2.07    0.22
   4  -4   2    2.02    0.21
   4   4   2    1.64    0.21
  -4   4  -2    1.38    0.19
   4   4   2    1.86    0.19
   5  -4   2    0.35    0.14
  -5  -4  -2    0.32    0.12
   5  -4   2    0.11    0.09
   5   4   2    0.33    0.14
  -5   4  -2    0.39    0.14
  -5  -5   2    0.20    0.11
   5  -5  -2    0.22    0.12
   5   5  -2    0.25    0.13
  -5   5   2    0.28    0.13
   4  -5  -2    0.06    0.07
  -4  -5   2    0.17    0.09
   4  -5  -2   -0.07    0.06
  -4  -5   2    0.05    0.07
  -4   5   2   -0.01    0.07
   4   5  -2   -0.09    0.06
   3  -5  -2    1.03    0.15
   3  -5  -2    0.89    0.13
  -3  -5   2    0.97    0.13
  -3  -5   2    0.92    0.15
  -3   5   2    0.87    0.13
   3   5  -2    0.98    0.14
  -2  -5   2    0.42    0.07
   2  -5  -2    0.43    0.09
   2  -5  -2    0.35    0.08
  -2  -5   2    0.56    0.10
   2   5  -2    0.52    0.06
  -2   5   2    0.47    0.09
   2   5  -2    0.26    0.07
  -1  -5   2   13.79    0.30
  -1  -5   2   14.10    0.34
   1  -5  -2   14.44    0.32
   1  -5  -2   14.13    0.34
   1  -5  -2   14.43    0.21
   1   5  -2   14.49    0.28
  -1   5   2   14.31    0.35
   1   5  -2   14.20    0.34
   0  -5  -2    0.93    0.10
   0  -5   2    0.77    0.09
   0  -5   2    0.88    0.08
   0  -5  -2    0.87    0.06
   0   5  -2    0.78    0.09
   0   5   2    0.81    0.07
   0   5  -2    0.91    0.09
   0   5   2    0.68    0.09
   1  -5   2   41.66    0.63
   1  -5   2   40.98    0.70
  -1  -5  -2   41.32    0.69
  -1   5  -2   41.86    0.57
   1   5   2   42.21    0.68
  -1   5  -2   40.84    0.70
   1   5   2   41.78    0.67
  -2  -5  -2    0.43    0.05
   2  -5   2    0.45    0.08
   2  -5   2    0.43    0.09
  -2  -5  -2    0.30    0.08
  -2   5  -2    0.44    0.05
   2   5   2    0.45    0.09
  -2   5  -2    0.39    0.09
   2   5   2    0.42    0.08
  -3  -5  -2    1.32    0.11
  -3  -5  -2    1.65    0.18
   3  -5   2    1.50    0.16
   3  -5   2    1.51    0.19
   3   5   2    1.22    0.14
   3   5   2    1.03    0.15
  -3   5  -2    1.18    0.16
  -4  -5  -2   -0.09    0.05
   4  -5   2   -0.02    0.06
   4  -5   2    0.01    0.07
   4   5   2   -0.02    0.07
  -4   5  -2    0.08    0.07
  -5  -5  -2    0.03    0.09
   5  -5   2   -0.01    0.09
  -5   5  -2    0.01    0.09
   5   5   2   -0.07    0.09
   5  -6  -2    0.01    0.10
  -5  -6   2   -0.03    0.07
  -5   6   2   -0.02    0.08
  -5   6   2    0.00    0.08
   5   6  -2   -0.13    0.08
   4  -6  -2   -0.09    0.06
  -4  -6   2   -0.01    0.07
   4  -6  -2    0.14    0.11
  -4  -6   2    0.06    0.08
   4   6  -2    0.06    0.07
  -4   6   2   -0.06    0.06
   3  -6  -2    1.14    0.15
  -3  -6   2    1.20    0.14
  -3  -6   2    1.16    0.16
   3  -6  -2    1.05    0.16
  -3   6   2    1.05    0.15
   3   6  -2    1.23    0.16
  -2  -6   2    1.17    0.14
   2  -6  -2    1.91    0.15
  -2  -6   2    1.08    0.11
   2  -6  -2    1.25    0.14
  -2   6   2    1.20    0.14
   2   6  -2    1.18    0.08
   2   6  -2    1.18    0.14
  -1  -6   2    0.33    0.07
   1  -6  -2    0.33    0.08
   1  -6  -2    0.33    0.07
  -1  -6   2    0.43    0.07
  -1   6   2    0.24    0.07
  -1   6   2    0.41    0.05
   1   6  -2    0.26    0.07
   1   6  -2    0.47    0.07
   0  -6  -2   12.80    0.25
   0  -6   2   13.02    0.31
   0  -6  -2   13.12    0.34
   0  -6   2   13.62    0.32
   0   6  -2   13.14    0.32
   0   6  -2   12.59    0.29
   0   6   2   13.29    0.29
   0   6   2   13.39    0.34
   1  -6   2   20.84    0.46
   1  -6   2   20.67    0.42
  -1  -6  -2   20.55    0.47
  -1   6  -2   20.19    0.35
   1   6   2   20.12    0.44
   1   6   2   20.94    0.44
  -1   6  -2   20.24    0.46
  -2  -6  -2    0.18    0.04
  -2  -6  -2    0.21    0.08
   2  -6   2    0.25    0.06
   2  -6   2    0.18    0.07
   2   6   2    0.04    0.05
  -2   6  -2    0.28    0.09
   2   6   2    0.14    0.07
  -2   6  -2    0.18    0.04
   3  -6   2    0.23    0.09
   3  -6   2    0.22    0.08
  -3  -6  -2   -0.02    0.06
   3   6   2    0.14    0.07
  -3   6  -2    0.35    0.10
   3   6   2    0.27    0.10
  -4  -6  -2    0.17    0.10
   4  -6   2    0.07    0.08
   4  -6   2   -0.01    0.08
  -4   6  -2    0.09    0.10
   4   6   2    0.02    0.09
  -5  -6  -2    0.49    0.16
   5  -6   2    0.33    0.14
   5   6   2    0.53    0.17
  -5   6  -2    0.28    0.12
  -5  -7   2    0.13    0.11
   5  -7  -2    0.02    0.11
   5   7  -2    0.07    0.10
  -5   7   2   -0.03    0.09
  -5   7   2   -0.09    0.07
   4  -7  -2    0.67    0.17
   4  -7  -2    0.45    0.13
  -4  -7   2    0.42    0.13
  -4   7   2    0.35    0.11
   4   7  -2    0.47    0.13
  -3  -7   2    1.85    0.21
   3  -7  -2    2.05    0.22
  -3  -7   2    2.14    0.15
   3  -7  -2    1.96    0.21
   3   7  -2    2.11    0.22
  -3   7   2    2.16    0.18
   2  -7  -2    0.85    0.13
  -2  -7   2    1.06    0.11
  -2  -7   2    0.93    0.14
   2  -7  -2    0.84    0.13
   2   7  -2    0.91    0.14
  -2   7   2    0.96    0.14
   2   7  -2    1.01    0.10
   1  -7  -2    0.76    0.10
  -1  -7   2    0.69    0.10
   1  -7  -2    0.70    0.11
  -1  -7   2    0.82    0.09
  -1   7   2    0.92    0.12
  -1   7   2    0.67    0.06
   1   7  -2    0.84    0.10
   1   7  -2    0.86    0.12
   0  -7   2    0.03    0.06
   0  -7  -2    0.08    0.03
   0  -7   2    0.12    0.05
   0  -7  -2    0.05    0.06
   0   7  -2    0.08    0.05
   0   7  -2    0.13    0.05
   0   7   2    0.17    0.06
   0   7   2    0.11    0.05
  -1  -7  -2    0.02    0.02
   1  -7   2   -0.01    0.04
   1  -7   2   -0.06    0.03
  -1  -7  -2    0.05    0.06
  -1   7  -2    0.00    0.03
   1   7   2   -0.03    0.04
   1   7   2    0.02    0.06
  -1   7  -2    0.09    0.06
  -2  -7  -2    5.36    0.26
   2  -7   2    5.32    0.26
   2  -7   2    5.13    0.22
   2   7   2    4.68    0.24
   2   7   2    5.08    0.22
  -2   7  -2    5.27    0.26
  -3  -7  -2    0.12    0.08
   3  -7   2    0.11    0.09
   3  -7   2    0.00    0.05
   3   7   2   -0.01    0.07
  -3   7  -2    0.25    0.10
   3   7   2    0.29    0.08
   4  -7   2    2.11    0.26
   4  -7   2    2.40    0.24
  -4  -7  -2    1.89    0.24
   4   7   2    1.77    0.23
  -4   7  -2    2.18    0.25
  -4  -8   2    0.21    0.11
   4  -8  -2    0.27    0.12
   4  -8  -2    0.34    0.13
  -4   8   2    0.14    0.09
   4   8  -2    0.34    0.12
   3  -8  -2    5.32    0.30
  -3  -8   2    6.03    0.32
   3  -8  -2    5.60    0.29
   3   8  -2    5.35    0.30
  -3   8   2    4.89    0.28
   2  -8  -2    7.00    0.29
  -2  -8   2    7.15    0.31
  -2  -8   2    7.53    0.25
   2  -8  -2    7.13    0.30
  -2   8   2    7.48    0.32
   2   8  -2    7.30    0.24
   2   8  -2    7.50    0.32
  -1  -8   2    1.43    0.11
  -1  -8   2    1.35    0.15
   1  -8  -2    1.57    0.17
   1  -8  -2    1.50    0.12
  -1   8   2    1.42    0.08
  -1   8   2    1.54    0.17
   1   8  -2    1.45    0.12
   1   8  -2    1.55    0.16
   0  -8  -2    1.25    0.08
   0  -8   2    1.41    0.12
   0  -8  -2    1.49    0.16
   0  -8   2    1.29    0.14
   0   8   2    1.51    0.11
   0   8  -2    1.65    0.13
   0   8   2    1.63    0.14
   0   8  -2    1.49    0.12
  -1  -8  -2    2.29    0.18
   1  -8   2    2.14    0.16
   1  -8   2    2.29    0.16
   1   8   2    2.34    0.16
  -1   8  -2    2.03    0.11
  -1   8  -2    1.90    0.16
   1   8   2    1.33    0.14
   2  -8   2    2.87    0.18
  -2  -8  -2    2.62    0.20
   2  -8   2    2.88    0.21
  -2   8  -2    2.89    0.21
   2   8   2    2.82    0.18
   2   8   2    2.83    0.20
   3  -8   2    2.72    0.24
   3  -8   2    2.33    0.18
  -3  -8  -2    2.35    0.25
  -3   8  -2    1.96    0.23
   3   8   2    2.26    0.17
   3   8   2    2.21    0.24
   4  -8   2    1.67    0.24
  -4  -8  -2    2.06    0.26
   4  -8   2    1.67    0.21
  -4   8  -2    1.20    0.19
   4   8   2    1.44    0.22
  -4  -9   2    1.09    0.20
   4  -9  -2    1.06    0.21
   4  -9  -2    0.84    0.16
  -4   9   2    0.79    0.17
   4   9  -2    1.10    0.20
   3  -9  -2    1.09    0.17
   3  -9  -2    1.41    0.20
  -3  -9   2    1.00    0.17
   3   9  -2    0.99    0.18
  -3   9   2    0.79    0.15
   2  -9  -2   38.55    0.81
   2  -9  -2   40.08    0.81
  -2  -9   2   38.52    0.83
   2   9  -2   40.53    0.84
  -2   9   2   38.88    0.84
   2   9  -2   39.76    0.70
  -1  -9   2    2.69    0.15
   1  -9  -2    2.87    0.20
   1  -9  -2    2.67    0.16
  -1  -9   2    2.55    0.19
   1   9  -2    2.62    0.17
   1   9  -2    2.93    0.19
  -1   9   2    2.64    0.13
  -1   9   2    2.99    0.20
   0  -9   2    0.14    0.06
   0  -9  -2    0.19    0.08
   0  -9   2    0.05    0.07
   0  -9  -2    0.15    0.05
   0   9   2    0.13    0.06
   0   9   2    0.14    0.07
   0   9  -2    0.14    0.07
   0   9  -2    0.09    0.06
  -1  -9  -2    0.36    0.10
   1  -9   2    0.37    0.09
   1  -9   2    0.47    0.10
   1   9   2    0.36    0.10
  -1   9  -2    0.47    0.07
   1   9   2    0.44    0.10
  -1   9  -2    0.55    0.11
   2  -9   2    0.10    0.07
  -2  -9  -2   -0.01    0.07
   2  -9   2    0.03    0.06
   2   9   2    0.06    0.07
   2   9   2    0.12    0.07
  -2   9  -2   -0.04    0.07
   3  -9   2    0.47    0.13
  -3  -9  -2    0.37    0.12
   3  -9   2    0.33    0.10
  -3   9  -2    0.39    0.12
   3   9   2    0.38    0.13
   3   9   2    0.22    0.08
   4  -9   2   -0.06    0.08
  -4  -9  -2    0.17    0.11
   4   9   2    0.02    0.10
  -4   9  -2    0.07    0.10
  -4 -10   2    0.58    0.16
   4 -10  -2    0.48    0.16
   4 -10  -2    0.43    0.14
   4  10  -2    0.41    0.15
  -4  10   2    0.25    0.11
  -3 -10   2    2.35    0.27
   3 -10  -2    2.25    0.24
   3 -10  -2    2.72    0.28
   3  10  -2    2.84    0.24
  -3  10   2    2.04    0.25
   2 -10  -2    0.11    0.08
  -2 -10   2    0.04    0.08
   2 -10  -2   -0.04    0.06
   2  10  -2   -0.05    0.06
   2  10  -2   -0.03    0.05
  -2  10   2    0.05    0.07
   1 -10  -2    7.23    0.27
   1 -10  -2    6.83    0.31
  -1 -10   2    6.60    0.24
  -1 -10   2    7.06    0.32
   1  10  -2    6.52    0.29
  -1  10   2    6.88    0.32
   1  10  -2    6.59    0.27
   0 -10   2    0.38    0.08
   0 -10   2    0.50    0.11
   0 -10  -2    0.59    0.13
   0  10  -2    0.55    0.11
   0  10   2    0.52    0.12
   0  10  -2    0.46    0.09
   0  10   2    0.53    0.10
  -1 -10  -2    0.61    0.13
   1 -10   2    0.39    0.10
   1 -10   2    0.30    0.10
  -1  10  -2    0.24    0.11
   1  10   2    0.32    0.10
   1  10   2    0.37    0.10
  -2 -10  -2    0.23    0.10
   2 -10   2    0.43    0.10
   2 -10   2    0.36    0.11
  -2  10  -2    0.11    0.08
   2  10   2    0.40    0.10
   2  10   2    0.49    0.12
  -3 -10  -2    0.05    0.09
   3 -10   2    0.23    0.10
   3 -10   2    0.11    0.07
  -3  10  -2    0.01    0.08
   3  10   2    0.12    0.09
   3  10   2   -0.02    0.08
   4 -10   2    0.17    0.13
  -4 -10  -2    0.32    0.13
  -4  10  -2   -0.05    0.09
   4  10   2    0.11    0.11
   4 -11  -2    0.38    0.13
   4 -11  -2    0.47    0.16
  -4 -11   2    0.41    0.14
   4  11  -2    0.77    0.18
  -4  11   2    0.27    0.13
   3 -11  -2    0.08    0.09
  -3 -11   2    0.25    0.11
   3 -11  -2    0.24    0.12
   3  11  -2    0.14    0.10
  -3  11   2    0.35    0.14
  -2 -11   2    0.30    0.12
   2 -11  -2    0.42    0.11
   2 -11  -2    0.27    0.10
  -2  11   2    0.46    0.13
   2  11  -2    0.46    0.12
  -1 -11   2    3.94    0.25
   1 -11  -2    3.26    0.19
   1 -11  -2    3.40    0.24
   1  11  -2    3.50    0.22
   1  11  -2    3.71    0.23
  -1  11   2    4.18    0.26
   0 -11   2    0.04    0.05
   0 -11  -2    0.03    0.09
   0 -11   2    0.01    0.06
   0  11   2   -0.02    0.07
   0  11  -2   -0.11    0.06
   0  11  -2    0.02    0.06
   0  11   2    0.05    0.06
   1 -11   2    1.74    0.19
   1 -11   2    1.36    0.18
  -1 -11  -2    1.02    0.17
  -1  11  -2    1.29    0.18
   1  11   2    1.52    0.18
   1  11   2    1.22    0.17
  -2 -11  -2   -0.09    0.06
   2 -11   2   -0.02    0.06
   2 -11   2   -0.05    0.06
  -2  11  -2    0.09    0.10
   2  11   2    0.03    0.06
   2  11   2    0.11    0.09
   3 -11   2   -0.01    0.07
  -3 -11  -2    0.24    0.13
   3 -11   2    0.05    0.10
   3  11   2    0.14    0.11
  -3  11  -2    0.02    0.08
   3 -12  -2    0.54    0.14
   3 -12  -2    0.28    0.12
  -3 -12   2    0.33    0.14
   3  12  -2    0.31    0.13
  -3  12   2    0.39    0.14
  -2 -12   2   -0.03    0.07
   2 -12  -2    0.04    0.08
   2 -12  -2   -0.03    0.06
  -2  12   2    0.06    0.09
   2  12  -2    0.04    0.08
   1 -12  -2    0.34    0.12
  -1 -12   2    0.66    0.14
  -1  12   2    0.09    0.09
   1  12  -2    0.29    0.11
   1  12  -2    0.23    0.09
   0 -12   2    1.66    0.20
   0 -12  -2    1.29    0.20
   0 -12   2    1.64    0.17
   0  12  -2    1.47    0.20
   0  12   2    1.63    0.17
   0  12  -2    1.17    0.16
   0  12   2    1.61    0.21
   1 -12   2   -0.01    0.06
   1 -12   2    0.10    0.08
  -1 -12  -2    0.03    0.08
  -1  12  -2   -0.05    0.08
   1  12   2    0.07    0.08
   1  12   2   -0.02    0.08
  -2 -12  -2    0.26    0.11
   2 -12   2    0.15    0.09
   2 -12   2    0.05    0.08
   2  12   2    0.12    0.10
  -2  12  -2    0.09    0.10
   2  12   2    0.24    0.11
  -3 -12  -2   -0.06    0.08
   3 -12   2    0.03    0.10
   3 -12   2    0.02    0.08
  -3  12  -2   -0.02    0.09
   3  12   2    0.01    0.10
   3 -13  -2    0.27    0.12
   3 -13  -2    0.16    0.10
  -3 -13   2    0.01    0.10
  -3  13   2    0.14    0.12
   3  13  -2    0.18    0.11
   2 -13  -2    0.27    0.10
   2 -13  -2    0.29    0.12
  -2 -13   2    0.13    0.10
   2  13  -2    0.23    0.11
  -2  13   2    0.27    0.13
   1 -13  -2    0.23    0.11
  -1 -13   2    0.41    0.13
   1  13  -2    0.01    0.07
   1  13  -2    0.32    0.11
  -1  13   2    0.08    0.10
   0 -13   2    0.16    0.10
   0 -13  -2    0.22    0.11
   0  13   2    0.16    0.10
   0  13  -2    0.24    0.11
   1 -13   2    0.51    0.14
  -1 -13  -2    0.47    0.14
   1 -13   2    0.58    0.13
   1  13   2    0.50    0.14
   1  13   2    0.43    0.11
  -1  13  -2    0.42    0.14
   2 -13   2    0.45    0.13
  -2 -13  -2    0.56    0.16
   2 -13   2    0.26    0.10
   2  13   2    0.42    0.14
  -2  13  -2    0.47    0.15
   2  13   2    0.25    0.11
   3 -13   2    0.42    0.15
  -3 -13  -2    0.42    0.15
  -3  13  -2    0.54    0.16
   3  13   2    0.25    0.14
  -2 -14   2    0.05    0.11
   2 -14  -2    0.07    0.10
   2  14  -2   -0.04    0.09
  -2  14   2    0.04    0.11
  -1 -14   2    0.38    0.13
   1 -14  -2    0.58    0.15
  -1  14   2    0.46    0.15
   1  14  -2    0.33    0.11
   1  14  -2    0.34    0.12
   0 -14   2    0.10    0.10
   0 -14  -2    0.04    0.10
   0  14   2    0.04    0.10
   0  14  -2    0.29    0.13
   1 -14   2    0.40    0.13
  -1 -14  -2    0.30    0.14
   1  14   2    0.32    0.12
  -1  14  -2    0.33    0.14
   1  14   2    0.39    0.15
   2 -14   2    0.22    0.11
   2 -14   2    0.45    0.13
  -2 -14  -2    0.19    0.12
  -2  14  -2    0.64    0.18
   2  14   2    0.21    0.11
   2  14   2    0.16    0.12
   1 -15  -2    0.14    0.11
  -1 -15   2   -0.06    0.09
   1  15  -2    0.00    0.08
  -1  15   2   -0.09    0.10
   1  15  -2   -0.05    0.07
   0 -15   2    0.11    0.11
   0 -15  -2    0.04    0.09
   0  15   2   -0.03    0.10
   0  15  -2    0.09    0.10
   1 -15   2    0.42    0.15
  -1 -15  -2    0.32    0.14
  -1  15  -2    0.30    0.15
   1  15   2    0.54    0.17
  -5   0   3   -0.01    0.09
   5   0  -3    0.11    0.09
   4   0  -3    0.03    0.08
   4   0  -3   -0.01    0.05
  -4   0   3   -0.05    0.06
   3   0  -3    0.01    0.04
  -3   0   3   -0.06    0.03
  -3   0   3   -0.03    0.05
   3   0  -3    0.06    0.06
   2   0  -3   -0.01    0.03
  -2   0   3    0.02    0.02
  -2   0   3   -0.01    0.04
   2   0  -3   -0.01    0.03
   1   0  -3   -0.01    0.03
  -1   0   3    0.00    0.02
  -1   0   3   -0.02    0.03
   1   0  -3    0.02    0.03
   0   0  -3   -0.05    0.03
   0   0  -3   -0.02    0.02
   0   0   3   -0.05    0.02
   0   0   3    0.00    0.03
   1   0   3    0.01    0.03
   1   0   3   -0.04    0.02
   1   0   3   -0.01    0.04
  -1   0  -3    0.00    0.04
   2   0   3   -0.06    0.03
   2   0   3    0.01    0.03
   2   0   3   -0.03    0.04
   2   0   3    0.03    0.04
   3   0   3   -0.08    0.04
   3   0   3   -0.09    0.05
   3   0   3   -0.03    0.05
   3   0   3    0.02    0.05
   4   0   3    0.08    0.06
   4   0   3   -0.12    0.04
   4   0   3    0.02    0.07
  -4   0  -3    0.17    0.08
   4   0   3   -0.07    0.06
  -5   0  -3    0.07    0.08
   5   0   3   -0.02    0.07
  -5   0  -3   -0.03    0.06
  -5  -1   3    1.73    0.24
   5  -1  -3    1.68    0.22
   5   1  -3    1.35    0.22
  -5   1   3    1.67    0.24
   4  -1  -3    0.01    0.04
  -4  -1   3    0.09    0.08
   4  -1  -3   -0.05    0.06
   4   1  -3   -0.11    0.06
   4   1  -3    0.06    0.06
  -4   1   3    0.10    0.07
   3  -1  -3   -0.03    0.03
  -3  -1   3    0.05    0.06
  -3  -1   3   -0.03    0.02
   3  -1  -3   -0.01    0.05
   3   1  -3   -0.04    0.04
   3   1  -3   -0.05    0.04
  -3   1   3    0.04    0.05
  -3   1   3    0.06    0.04
  -2  -1   3    2.32    0.07
   2  -1  -3    2.41    0.10
   2  -1  -3    2.05    0.13
  -2  -1   3    2.34    0.14
   2   1  -3    2.21    0.13
  -2   1   3    2.41    0.14
  -2   1   3    2.20    0.10
   2   1  -3    2.32    0.12
   1  -1  -3   63.12    0.77
  -1  -1   3   63.32    0.86
   1  -1  -3   61.44    0.83
  -1   1   3   64.12    0.86
  -1   1   3   62.59    0.78
   1   1  -3   61.69    0.82
   1   1  -3   62.99    0.83
   0  -1   3    0.66    0.06
   0  -1  -3    0.57    0.06
   0  -1  -3    0.61    0.05
   0   1   3    0.64    0.06
   0   1  -3    0.69    0.06
   0   1   3    0.65    0.05
   0   1  -3    0.52    0.03
   1  -1   3   94.62    1.08
   1  -1   3   93.06    1.20
   1  -1   3   92.48    1.19
  -1  -1  -3   91.73    1.12
   1   1   3   92.84    1.17
   1   1   3   92.18    1.18
   1   1   3   92.43    1.14
  -1   1  -3   94.00    1.15
   2  -1   3    0.44    0.08
   2  -1   3    0.51    0.09
   2  -1   3    0.41    0.06
   2   1   3    0.38    0.07
   2   1   3    0.47    0.07
   2   1   3    0.43    0.08
  -2   1  -3    0.45    0.07
   2   1   3    0.55    0.08
   3  -1   3    1.14    0.14
   3  -1   3    1.14    0.14
   3  -1   3    1.14    0.13
   3   1   3    1.15    0.14
  -3   1  -3    1.29    0.14
   3   1   3    0.75    0.11
   3   1   3    0.98    0.13
   3   1   3    1.24    0.14
   4  -1   3    0.03    0.06
   4  -1   3    0.06    0.07
  -4   1  -3    0.05    0.06
   4   1   3   -0.01    0.06
  -4   1  -3    0.00    0.06
   4   1   3    0.02    0.07
   4   1   3   -0.02    0.05
   4   1   3    0.05    0.08
  -5  -1  -3    0.07    0.08
   5  -1   3    0.03    0.10
   5  -1   3   -0.01    0.08
   5   1   3   -0.02    0.08
   5   1   3    0.10    0.09
  -5   1  -3    0.03    0.07
  -5  -2   3   -0.01    0.07
   5  -2  -3    0.09    0.10
   5   2  -3    0.17    0.09
  -5   2   3    0.01    0.08
   5   2  -3    0.04    0.09
  -4  -2   3    0.23    0.09
   4  -2  -3    0.29    0.11
  -4   2   3    0.22    0.07
  -4   2   3    0.36    0.11
   4   2  -3    0.17    0.09
   4   2  -3    0.26    0.09
  -3  -2   3    6.41    0.17
   3  -2  -3    6.55    0.19
  -3  -2   3    6.14    0.26
   3  -2  -3    6.10    0.27
   3   2  -3    6.42    0.28
  -3   2   3    6.80    0.23
   3   2  -3    6.40    0.25
  -3   2   3    6.24    0.28
   2  -2  -3   11.55    0.32
  -2  -2   3   11.63    0.18
   2  -2  -3   11.98    0.23
  -2  -2   3   11.88    0.31
  -2   2   3   11.53    0.27
  -2   2   3   11.85    0.33
   2   2  -3   12.54    0.31
   2   2  -3   11.92    0.32
  -1  -2   3    8.76    0.22
   1  -2  -3    9.07    0.17
   1  -2  -3    8.85    0.22
   1   2  -3    8.38    0.22
  -1   2   3    9.22    0.23
  -1   2   3    8.79    0.20
   1   2  -3    8.86    0.22
   0  -2  -3    4.43    0.13
   0  -2   3    4.65    0.13
   0  -2  -3    4.53    0.13
   0  -2   3    4.60    0.10
   0  -2   3    4.22    0.14
   0   2   3    4.58    0.14
   0   2  -3    4.23    0.13
   0   2   3    4.52    0.11
   1  -2   3    5.80    0.13
  -1  -2  -3    5.63    0.16
   1  -2   3    5.62    0.18
   1  -2   3    5.34    0.18
   1   2   3    5.44    0.18
   1   2   3    5.50    0.18
   1   2   3    5.68    0.13
  -1   2  -3    5.73    0.16
   2  -2   3   21.84    0.48
  -2  -2  -3   21.83    0.44
   2  -2   3   22.81    0.41
   2  -2   3   22.44    0.48
   2   2   3   22.39    0.45
   2   2   3   22.04    0.47
  -2   2  -3   22.70    0.41
   2   2   3   21.72    0.41
   3  -2   3    1.13    0.13
  -3  -2  -3    0.93    0.12
   3  -2   3    1.08    0.15
  -3   2  -3    1.18    0.12
   3   2   3    1.02    0.13
   3   2   3    1.24    0.15
   3   2   3    0.96    0.12
  -3   2  -3    1.13    0.15
   3   2   3    1.07    0.14
  -4  -2  -3    0.18    0.08
   4  -2   3    0.23    0.09
   4  -2   3    0.17    0.11
  -4  -2  -3    0.38    0.10
  -4   2  -3    0.29    0.10
   4   2   3    0.21    0.09
   4   2   3    0.24    0.09
   5  -2   3   -0.09    0.07
   5  -2   3   -0.11    0.09
  -5  -2  -3    0.04    0.08
  -5   2  -3    0.04    0.07
   5   2   3   -0.03    0.08
   5  -3  -3   -0.01    0.07
  -5  -3   3   -0.01    0.08
   5   3  -3   -0.11    0.09
   5   3  -3   -0.10    0.06
  -5   3   3    0.09    0.10
   4  -3  -3    0.55    0.13
  -4  -3   3    0.54    0.13
   4   3  -3    0.49    0.12
  -4   3   3    0.31    0.09
  -4   3   3    0.39    0.12
   4   3  -3    0.70    0.14
   3  -3  -3    6.69    0.18
   3  -3  -3    7.05    0.29
  -3  -3   3    6.88    0.27
   3   3  -3    6.94    0.30
   3   3  -3    7.20    0.28
  -3   3   3    6.87    0.30
  -3   3   3    6.94    0.25
   2  -3  -3   84.02    1.22
  -2  -3   3   82.75    1.17
   2  -3  -3   82.30    1.18
   2  -3  -3   83.36    0.97
   2   3  -3   83.33    1.18
   2   3  -3   82.86    0.95
  -2   3   3   83.29    1.13
   2   3  -3   82.65    1.17
   1  -3  -3    5.16    0.18
   1  -3  -3    4.80    0.11
  -1  -3   3    4.89    0.17
  -1   3   3    5.02    0.16
  -1   3   3    4.86    0.16
   1   3  -3    4.92    0.17
   1   3  -3    4.99    0.10
   1   3  -3    4.79    0.16
   0  -3   3    4.70    0.13
   0  -3  -3    4.68    0.15
   0  -3   3    4.78    0.16
   0   3   3    4.82    0.11
   0   3  -3    4.78    0.15
   0   3   3    5.05    0.16
   0   3   3    4.75    0.14
   0   3  -3    4.88    0.15
  -1  -3  -3    1.12    0.08
   1  -3   3    1.15    0.12
   1  -3   3    0.90    0.06
   1   3   3    1.02    0.10
  -1   3  -3    1.26    0.10
   1   3   3    1.15    0.09
   1   3   3    1.12    0.05
  -1   3  -3    0.96    0.07
  -2  -3  -3    2.30    0.14
   2  -3   3    2.09    0.15
   2  -3   3    2.29    0.12
   2   3   3    2.22    0.11
   2   3   3    2.09    0.14
  -2   3  -3    2.35    0.15
  -2   3  -3    2.64    0.12
   2   3   3    2.29    0.14
  -3  -3  -3    2.15    0.16
   3  -3   3    2.15    0.15
  -3  -3  -3    2.11    0.14
   3  -3   3    1.79    0.19
   3   3   3    1.70    0.15
  -3   3  -3    2.22    0.14
   3   3   3    1.88    0.16
  -3   3  -3    2.05    0.18
  -4  -3  -3    0.25    0.08
  -4  -3  -3    0.19    0.09
   4  -3   3    0.11    0.07
   4  -3   3    0.49    0.13
   4   3   3    0.26    0.09
   4   3   3    0.22    0.10
  -4   3  -3    0.07    0.08
   5  -3   3    0.42    0.15
  -5  -3  -3    0.24    0.12
  -5   3  -3    0.11    0.10
   5   3   3    0.14    0.12
   5  -4  -3    0.04    0.09
  -5  -4   3    0.22    0.11
  -5   4   3    0.17    0.11
   5   4  -3    0.43    0.13
   5   4  -3    0.23    0.12
   4  -4  -3    0.13    0.08
  -4  -4   3   -0.01    0.06
   4   4  -3   -0.06    0.06
  -4   4   3    0.08    0.07
  -4   4   3    0.01    0.06
   4   4  -3    0.05    0.08
   3  -4  -3    4.26    0.24
   3  -4  -3    3.94    0.22
  -3  -4   3    4.06    0.21
   3   4  -3    3.97    0.23
  -3   4   3    4.47    0.21
   3   4  -3    4.25    0.23
  -2  -4   3    6.00    0.22
   2  -4  -3    5.59    0.23
   2  -4  -3    5.82    0.23
   2  -4  -3    5.96    0.09
   2   4  -3    5.74    0.23
   2   4  -3    6.09    0.24
  -2   4   3    6.09    0.22
   2   4  -3    6.03    0.13
  -1  -4   3    2.15    0.12
   1  -4  -3    2.30    0.12
   1  -4  -3    2.20    0.13
  -1  -4   3    2.07    0.12
   1  -4  -3    2.15    0.07
   1   4  -3    2.23    0.09
   1   4  -3    2.21    0.13
  -1   4   3    2.35    0.13
   0  -4  -3   60.31    0.86
   0  -4   3   61.09    0.88
   0  -4   3   62.34    0.81
   0   4   3   62.17    0.82
   0   4  -3   61.73    0.83
   0   4  -3   60.38    0.83
   0   4   3   61.86    0.87
   0   4   3   62.50    0.76
  -1  -4  -3    4.06    0.17
   1  -4   3    4.49    0.19
   1  -4   3    4.04    0.13
  -1   4  -3    4.40    0.18
   1   4   3    4.31    0.18
   1   4   3    4.03    0.16
  -1   4  -3    4.18    0.14
  -2  -4  -3    5.73    0.23
  -2  -4  -3    5.23    0.15
   2  -4   3    5.57    0.25
   2  -4   3    5.57    0.19
   2   4   3    5.38    0.23
   2   4   3    5.74    0.22
  -2   4  -3    5.63    0.24
  -2   4  -3    5.54    0.17
  -3  -4  -3    0.86    0.13
   3  -4   3    0.66    0.13
  -3  -4  -3    0.73    0.10
   3  -4   3    0.80    0.11
  -3   4  -3    0.87    0.10
  -3   4  -3    0.61    0.12
   3   4   3    0.58    0.12
   3   4   3    0.73    0.12
   4  -4   3   -0.04    0.07
   4  -4   3    0.03    0.07
  -4  -4  -3   -0.06    0.05
   4   4   3    0.03    0.06
  -4   4  -3    0.00    0.07
   4   4   3    0.00    0.07
   5  -4   3    0.19    0.13
  -5  -4  -3    0.18    0.10
  -5   4  -3    0.00    0.09
   5   4   3   -0.15    0.08
  -5  -5   3    0.01    0.09
   5  -5  -3    0.08    0.09
   5   5  -3   -0.02    0.10
  -5   5   3   -0.05    0.07
  -4  -5   3   -0.07    0.05
  -4  -5   3   -0.01    0.06
   4  -5  -3    0.00    0.08
  -4   5   3    0.04    0.07
   4   5  -3   -0.01    0.07
  -4   5   3   -0.01    0.06
   4   5  -3   -0.08    0.06
  -3  -5   3    0.25    0.09
  -3  -5   3    0.14    0.07
   3  -5  -3    0.36    0.10
   3  -5  -3    0.24    0.09
   3   5  -3    0.12    0.08
  -3   5   3    0.13    0.06
   2  -5  -3   -0.02    0.04
  -2  -5   3    0.01    0.04
   2  -5  -3   -0.01    0.04
  -2  -5   3    0.01    0.04
   2   5  -3    0.01    0.02
   2   5  -3    0.01    0.05
  -2   5   3    0.02    0.04
  -1  -5   3   12.32    0.31
   1  -5  -3   13.05    0.31
   1  -5  -3   12.56    0.21
  -1  -5   3   12.42    0.30
   1  -5  -3   13.18    0.33
   1   5  -3   12.56    0.26
   1   5  -3   12.89    0.33
  -1   5   3   12.55    0.33
   0  -5   3    1.45    0.09
   0  -5   3    1.35    0.10
   0  -5  -3    1.34    0.06
   0  -5  -3    1.34    0.11
   0   5  -3    1.28    0.09
   0   5   3    1.34    0.11
   0   5   3    1.28    0.09
   0   5  -3    1.26    0.09
  -1  -5  -3    1.81    0.13
   1  -5   3    1.95    0.10
   1  -5   3    1.85    0.14
  -1   5  -3    2.16    0.14
  -1   5  -3    1.94    0.10
   1   5   3    1.88    0.12
   1   5   3    2.02    0.13
  -2  -5  -3    1.39    0.15
  -2  -5  -3    1.32    0.07
   2  -5   3    1.26    0.15
   2  -5   3    1.28    0.10
  -2   5  -3    1.18    0.08
   2   5   3    1.27    0.13
   2   5   3    1.24    0.14
  -2   5  -3    1.29    0.15
   3  -5   3    0.03    0.07
  -3  -5  -3    0.09    0.08
   3  -5   3    0.06    0.05
  -3   5  -3    0.01    0.06
   3   5   3    0.06    0.07
   3   5   3    0.09    0.05
  -4  -5  -3    0.00    0.08
   4  -5   3    0.03    0.09
   4  -5   3    0.05    0.07
   4   5   3    0.00    0.08
   4   5   3    0.06    0.06
  -4   5  -3    0.07    0.08
   5  -5   3   -0.02    0.10
  -5  -5  -3   -0.02    0.08
  -5   5  -3   -0.06    0.06
   5   5   3    0.10    0.11
   5  -6  -3    0.06    0.09
  -5  -6   3    0.22    0.12
   5   6  -3    0.11    0.11
  -5   6   3    0.19    0.12
   4  -6  -3    0.11    0.08
  -4  -6   3    0.11    0.10
  -4  -6   3    0.09    0.08
   4  -6  -3    0.13    0.09
   4   6  -3    0.16    0.09
  -4   6   3    0.19    0.10
  -4   6   3    0.17    0.08
  -3  -6   3    0.29    0.10
  -3  -6   3    0.34    0.09
   3  -6  -3    0.14    0.08
   3  -6  -3    0.17    0.09
  -3   6   3    0.39    0.10
   3   6  -3    0.16    0.08
   2  -6  -3    0.69    0.11
   2  -6  -3    0.70    0.12
  -2  -6   3    0.62    0.11
  -2  -6   3    0.56    0.09
   2   6  -3    0.52    0.11
  -2   6   3    0.52    0.10
   2   6  -3    0.62    0.07
  -1  -6   3   32.44    0.60
   1  -6  -3   31.56    0.56
   1  -6  -3   31.59    0.61
   1  -6  -3   32.06    0.45
  -1  -6   3   30.68    0.57
   1   6  -3   32.61    0.61
   1   6  -3   32.23    0.52
  -1   6   3   31.88    0.61
   0  -6  -3   36.78    0.65
   0  -6  -3   37.77    0.52
   0  -6   3   35.13    0.63
   0  -6   3   36.05    0.60
   0   6  -3   36.21    0.60
   0   6   3   37.94    0.66
   0   6  -3   36.67    0.62
   0   6   3   36.91    0.58
   1  -6   3   18.57    0.38
  -1  -6  -3   18.92    0.45
   1  -6   3   18.26    0.44
  -1   6  -3   18.65    0.44
   1   6   3   18.08    0.42
   1   6   3   18.71    0.43
  -1   6  -3   18.61    0.35
   2  -6   3    0.61    0.09
  -2  -6  -3    0.77    0.12
   2  -6   3    0.54    0.11
  -2   6  -3    0.74    0.08
  -2   6  -3    0.59    0.11
   2   6   3    0.76    0.11
   2   6   3    0.48    0.10
   3  -6   3    0.06    0.07
  -3  -6  -3   -0.06    0.05
   3  -6   3   -0.09    0.04
   3   6   3   -0.07    0.05
  -3   6  -3    0.02    0.07
   3   6   3   -0.03    0.06
   4  -6   3    0.10    0.09
  -4  -6  -3    0.03    0.08
   4  -6   3    0.15    0.08
   4   6   3    0.12    0.09
  -4   6  -3    0.04    0.07
   5  -6   3    0.21    0.11
  -5  -6  -3    0.39    0.14
   5   6   3    0.44    0.15
  -5   6  -3    0.14    0.10
  -5  -7   3    0.10    0.10
   5  -7  -3    0.17    0.11
   5   7  -3    0.00    0.11
  -5   7   3    0.16    0.12
   4  -7  -3    0.12    0.09
  -4  -7   3    0.23    0.12
   4  -7  -3    0.15    0.10
  -4   7   3    0.14    0.09
   4   7  -3    0.18    0.10
   3  -7  -3    2.45    0.21
  -3  -7   3    2.00    0.16
  -3  -7   3    2.13    0.23
   3  -7  -3    1.86    0.20
   3   7  -3    1.97    0.22
  -3   7   3    1.87    0.20
  -2  -7   3    5.29    0.26
   2  -7  -3    5.84    0.26
   2  -7  -3    5.34    0.26
  -2  -7   3    5.35    0.22
   2   7  -3    4.91    0.25
   2   7  -3    5.74    0.18
  -2   7   3    5.40    0.26
  -1  -7   3    3.30    0.18
   1  -7  -3    3.40    0.16
   1  -7  -3    2.53    0.17
  -1  -7   3    3.17    0.16
   1   7  -3    3.46    0.15
  -1   7   3    3.28    0.19
   1   7  -3    2.80    0.17
   0  -7   3   19.13    0.42
   0  -7  -3   19.55    0.46
   0  -7   3   19.06    0.43
   0  -7  -3   19.79    0.33
   0   7   3   19.17    0.46
   0   7   3   19.40    0.39
   0   7  -3   19.03    0.43
   0   7  -3   19.10    0.41
   1  -7   3    3.40    0.19
   1  -7   3    2.94    0.15
  -1  -7  -3    3.05    0.19
   1   7   3    3.29    0.18
   1   7   3    3.14    0.17
  -1   7  -3    3.25    0.19
  -1   7  -3    3.11    0.14
   2  -7   3    3.39    0.22
  -2  -7  -3    2.96    0.20
   2  -7   3    3.04    0.17
  -2   7  -3    2.84    0.20
   2   7   3    3.36    0.22
   2   7   3    3.49    0.19
  -3  -7  -3    0.75    0.15
   3  -7   3    0.54    0.10
   3  -7   3    0.53    0.13
  -3   7  -3    0.42    0.11
   3   7   3    0.45    0.12
   3   7   3    0.52    0.11
   4  -7   3    0.09    0.10
  -4  -7  -3    0.24    0.11
   4   7   3    0.10    0.10
  -4   7  -3    0.01    0.07
   4  -8  -3    0.09    0.08
   4  -8  -3    0.11    0.11
  -4  -8   3    0.06    0.08
   4   8  -3   -0.03    0.08
  -4   8   3    0.14    0.09
   3  -8  -3    0.91    0.16
  -3  -8   3    1.05    0.14
  -3  -8   3    0.90    0.16
   3  -8  -3    1.01    0.16
  -3   8   3    0.59    0.13
   3   8  -3    0.84    0.15
  -2  -8   3   13.40    0.43
   2  -8  -3   12.93    0.40
   2  -8  -3   13.09    0.42
  -2  -8   3   14.03    0.37
  -2   8   3   12.60    0.42
   2   8  -3   13.00    0.43
   2   8  -3   13.51    0.33
   1  -8  -3    1.95    0.13
  -1  -8   3    2.11    0.16
   1  -8  -3    2.14    0.17
  -1  -8   3    2.30    0.14
  -1   8   3    2.02    0.10
  -1   8   3    2.14    0.17
   1   8  -3    2.23    0.14
   1   8  -3    2.18    0.17
   0  -8  -3    0.89    0.07
   0  -8   3    1.04    0.13
   0  -8  -3    0.97    0.14
   0  -8   3    1.06    0.13
   0   8  -3    1.11    0.13
   0   8  -3    0.90    0.11
   0   8   3    1.03    0.11
   0   8   3    0.90    0.13
   1  -8   3    0.04    0.05
   1  -8   3   -0.03    0.04
  -1  -8  -3    0.02    0.07
   1   8   3   -0.07    0.05
  -1   8  -3    0.02    0.05
  -1   8  -3   -0.02    0.04
   1   8   3    0.02    0.06
  -2  -8  -3    0.11    0.08
   2  -8   3    0.07    0.06
   2  -8   3    0.00    0.06
   2   8   3    0.14    0.08
   2   8   3    0.06    0.07
  -2   8  -3    0.16    0.08
   3  -8   3    0.02    0.05
   3  -8   3    0.10    0.09
  -3  -8  -3    0.05    0.08
   3   8   3   -0.08    0.06
  -3   8  -3   -0.01    0.08
   3   8   3    0.01    0.06
   4  -8   3    1.35    0.22
  -4  -8  -3    1.19    0.21
  -4   8  -3    1.16    0.20
   4   8   3    1.22    0.20
  -4  -9   3    0.15    0.10
   4  -9  -3    0.18    0.10
   4  -9  -3    0.31    0.13
  -4   9   3    0.16    0.09
   4   9  -3    0.27    0.12
   3  -9  -3    0.06    0.08
  -3  -9   3    0.02    0.08
   3  -9  -3   -0.08    0.06
   3   9  -3   -0.10    0.06
  -3   9   3    0.05    0.07
  -2  -9   3    1.57    0.19
   2  -9  -3    1.47    0.17
   2  -9  -3    1.86    0.20
  -2  -9   3    1.77    0.15
  -2   9   3    1.94    0.21
   2   9  -3    1.44    0.19
   2   9  -3    1.73    0.13
   1  -9  -3   11.19    0.39
   1  -9  -3   11.64    0.33
  -1  -9   3   11.33    0.33
  -1  -9   3   11.19    0.38
   1   9  -3   11.62    0.38
   1   9  -3   11.30    0.34
  -1   9   3   11.26    0.39
   0  -9   3    0.94    0.13
   0  -9   3    1.13    0.13
   0  -9  -3    1.05    0.16
   0  -9  -3    0.86    0.08
   0   9  -3    1.23    0.15
   0   9   3    1.22    0.13
   0   9   3    1.00    0.14
   0   9  -3    1.04    0.13
   1  -9   3    0.21    0.08
  -1  -9  -3    0.30    0.10
   1  -9   3    0.40    0.10
   1   9   3    0.19    0.07
   1   9   3    0.32    0.09
  -1   9  -3    0.24    0.09
  -1   9  -3    0.37    0.07
   2  -9   3    0.10    0.06
   2  -9   3   -0.08    0.05
  -2  -9  -3    0.01    0.07
   2   9   3    0.00    0.05
   2   9   3   -0.08    0.06
  -2   9  -3    0.04    0.08
  -3  -9  -3    0.06    0.08
   3  -9   3    0.13    0.09
   3  -9   3    0.00    0.06
   3   9   3    0.13    0.08
  -3   9  -3    0.22    0.10
   3   9   3    0.11    0.09
   4  -9   3    0.45    0.16
  -4  -9  -3    0.42    0.14
  -4   9  -3    0.30    0.13
   4   9   3    0.13    0.11
  -4 -10   3   -0.04    0.07
   4 -10  -3    0.08    0.09
   4 -10  -3    0.19    0.13
   4  10  -3    0.01    0.09
  -4  10   3    0.21    0.11
  -3 -10   3    3.49    0.28
   3 -10  -3    2.89    0.25
   3 -10  -3    3.13    0.24
  -3  10   3    3.22    0.26
   3  10  -3    2.57    0.27
   2 -10  -3    0.06    0.07
   2 -10  -3    0.14    0.08
  -2 -10   3    0.02    0.07
  -2  10   3    0.07    0.08
   2  10  -3    0.12    0.09
   1 -10  -3    1.51    0.15
  -1 -10   3    1.58    0.18
   1 -10  -3    1.07    0.17
  -1 -10   3    1.28    0.15
   1  10  -3    1.38    0.18
  -1  10   3    1.55    0.19
   1  10  -3    1.43    0.16
   0 -10   3    1.29    0.16
   0 -10  -3    0.95    0.16
   0 -10   3    1.30    0.15
   0  10   3    0.91    0.12
   0  10   3    0.87    0.15
   0  10  -3    0.96    0.13
   0  10  -3    0.82    0.13
   1 -10   3    1.22    0.16
   1 -10   3    1.52    0.18
  -1 -10  -3    1.46    0.20
   1  10   3    1.23    0.17
   1  10   3    1.11    0.15
  -1  10  -3    1.86    0.21
   2 -10   3    0.07    0.06
  -2 -10  -3    0.05    0.08
   2 -10   3    0.07    0.09
   2  10   3    0.06    0.08
  -2  10  -3    0.16    0.10
   2  10   3    0.03    0.07
   3 -10   3    0.08    0.10
   3 -10   3    0.00    0.06
  -3 -10  -3   -0.05    0.06
   3  10   3   -0.01    0.07
   3  10   3    0.05    0.08
  -3  10  -3   -0.06    0.07
  -4 -10  -3    0.15    0.10
   4 -10   3    0.06    0.10
  -4  10  -3    0.36    0.15
   4  10   3    0.22    0.13
   4 -11  -3    0.17    0.11
  -4 -11   3    0.15    0.11
   4 -11  -3    0.29    0.14
   4  11  -3   -0.02    0.08
  -4  11   3    0.12    0.11
   3 -11  -3    0.65    0.16
  -3 -11   3    0.57    0.15
   3 -11  -3    0.74    0.16
  -3  11   3    0.99    0.18
   3  11  -3    0.53    0.14
   2 -11  -3    0.48    0.12
   2 -11  -3    0.43    0.12
  -2 -11   3    0.54    0.14
  -2  11   3    0.43    0.13
   2  11  -3    0.42    0.12
   1 -11  -3    0.07    0.06
  -1 -11   3    0.12    0.08
   1 -11  -3    0.05    0.07
  -1 -11   3    0.00    0.05
  -1  11   3   -0.02    0.07
   1  11  -3    0.05    0.06
   1  11  -3    0.16    0.08
   0 -11   3    1.06    0.14
   0 -11   3    0.99    0.15
   0 -11  -3    1.14    0.17
   0  11   3    1.08    0.17
   0  11  -3    1.13    0.14
   0  11   3    1.04    0.14
   0  11  -3    1.25    0.17
  -1 -11  -3    0.11    0.09
   1 -11   3   -0.05    0.05
   1 -11   3    0.03    0.06
   1  11   3    0.03    0.06
  -1  11  -3    0.05    0.07
   1  11   3   -0.01    0.06
   2 -11   3    0.92    0.16
   2 -11   3    1.01    0.15
  -2 -11  -3    1.02    0.17
   2  11   3    1.02    0.17
  -2  11  -3    0.88    0.17
   2  11   3    1.42    0.19
  -3 -11  -3    0.31    0.13
   3 -11   3    0.31    0.13
   3  11   3    0.29    0.12
   3  11   3    0.38    0.12
  -3  11  -3    0.26    0.12
   3 -12  -3   -0.02    0.07
   3 -12  -3    0.00    0.08
  -3 -12   3    0.01    0.09
  -3  12   3    0.04    0.09
   3  12  -3   -0.06    0.09
  -2 -12   3    0.75    0.16
   2 -12  -3    0.81    0.15
   2 -12  -3    0.75    0.16
   2  12  -3    0.78    0.16
  -2  12   3    0.74    0.17
  -1 -12   3   -0.02    0.08
   1 -12  -3    0.04    0.08
   1  12  -3   -0.04    0.07
   1  12  -3   -0.04    0.07
  -1  12   3   -0.01    0.08
   0 -12   3    0.19    0.10
   0 -12  -3    0.07    0.08
   0 -12   3    0.06    0.07
   0  12   3    0.04    0.07
   0  12  -3    0.11    0.08
   0  12  -3    0.05    0.08
   0  12   3    0.05    0.08
  -1 -12  -3    5.08    0.31
   1 -12   3    5.40    0.30
   1 -12   3    5.28    0.29
   1  12   3    5.68    0.29
  -1  12  -3    5.44    0.32
   1  12   3    4.92    0.30
   2 -12   3    0.43    0.13
  -2 -12  -3    0.36    0.13
   2 -12   3    0.51    0.12
   2  12   3    0.58    0.13
  -2  12  -3    0.53    0.15
   2  12   3    0.22    0.11
   3 -12   3    0.15    0.11
  -3 -12  -3    0.13    0.11
  -3  12  -3    0.18    0.12
   3  12   3    0.32    0.14
  -3 -13   3   -0.05    0.08
   3 -13  -3    0.06    0.09
   3 -13  -3    0.02    0.09
   3  13  -3   -0.01    0.09
  -3  13   3    0.07    0.10
   2 -13  -3    0.06    0.09
  -2 -13   3   -0.05    0.08
   2  13  -3    0.03    0.09
  -2  13   3    0.01    0.08
  -1 -13   3    0.25    0.11
   1 -13  -3    0.24    0.11
   1  13  -3    0.50    0.12
  -1  13   3    0.37    0.13
   1  13  -3    0.36    0.12
   0 -13  -3    0.49    0.14
   0 -13   3    0.67    0.15
   0  13  -3    0.62    0.15
   0  13   3    0.50    0.14
   1 -13   3   -0.08    0.06
  -1 -13  -3    0.02    0.10
   1 -13   3    0.00    0.07
   1  13   3    0.00    0.06
  -1  13  -3   -0.11    0.08
   1  13   3    0.02    0.09
   2 -13   3    1.30    0.21
   2 -13   3    0.87    0.15
  -2 -13  -3    1.10    0.20
   2  13   3    0.72    0.16
   2  13   3    0.94    0.18
  -2  13  -3    0.56    0.15
   3 -13   3    0.32    0.14
  -3 -13  -3    0.21    0.13
   3  13   3    0.33    0.14
  -3  13  -3    0.11    0.12
  -2 -14   3    0.26    0.13
   2 -14  -3    0.14    0.10
  -2  14   3    0.04    0.11
   2  14  -3   -0.08    0.07
   1 -14  -3    1.00    0.19
  -1 -14   3    1.04    0.19
   1  14  -3    1.15    0.19
   1  14  -3    0.88    0.17
  -1  14   3    0.97    0.20
   0 -14  -3    0.03    0.09
   0 -14   3   -0.09    0.07
   0  14  -3    0.09    0.09
   0  14   3   -0.07    0.08
   1 -14   3   -0.01    0.08
  -1 -14  -3   -0.01    0.09
   1 -14   3   -0.04    0.07
  -1  14  -3   -0.16    0.08
   1  14   3    0.03    0.08
   1  14   3    0.06    0.12
  -2 -14  -3    0.12    0.10
   2 -14   3    0.13    0.11
   2 -14   3    0.07    0.09
   2  14   3    0.20    0.11
  -2  14  -3   -0.01    0.13
   2  14   3    0.06    0.10
   1 -15  -3   -0.07    0.08
  -1 -15   3   -0.02    0.10
   1  15  -3    0.09    0.09
  -1  15   3    0.09    0.12
   0 -15  -3    0.08    0.11
   0 -15   3    0.25    0.13
   0  15  -3    0.09    0.12
   0  15   3    0.12    0.13
   1 -15   3    0.02    0.08
  -1 -15  -3   -0.13    0.09
  -1  15  -3    0.05    0.11
   1  15   3    0.02    0.13
   5   0  -4    1.52    0.23
  -5   0   4    1.31    0.20
   4   0  -4    2.23    0.23
  -4   0   4    2.69    0.22
   4   0  -4    2.30    0.16
  -3   0   4    1.92    0.16
   3   0  -4    2.03    0.13
  -3   0   4    1.98    0.10
   3   0  -4    1.90    0.16
  -2   0   4    4.70    0.20
   2   0  -4    4.42    0.19
   2   0  -4    4.38    0.16
  -2   0   4    4.60    0.12
  -1   0   4    5.79    0.18
   1   0  -4    5.74    0.17
   1   0  -4    5.37    0.16
  -1   0   4    5.48    0.12
   0   0  -4   62.58    0.81
   0   0  -4   62.82    0.73
   0   0   4   60.95    0.79
  -1   0  -4  156.39    1.89
   1   0   4  155.44    1.88
   1   0   4  153.50    1.88
  -1   0  -4  153.79    1.85
   2   0   4    3.35    0.16
   2   0   4    3.27    0.14
   2   0   4    2.99    0.17
  -2   0  -4    3.28    0.17
   3   0   4    0.53    0.11
   3   0   4    0.56    0.09
   3   0   4    0.84    0.12
  -3   0  -4    0.67    0.11
   3   0   4    0.76    0.12
   4   0   4   -0.13    0.05
   4   0   4    0.15    0.09
  -4   0  -4    0.14    0.07
   4   0   4    0.05    0.08
   5   0   4    0.08    0.10
  -5   0  -4    0.09    0.08
   5  -1  -4    1.68    0.24
  -5  -1   4    1.87    0.25
  -5   1   4    1.61    0.23
   5   1  -4    1.78    0.24
  -4  -1   4    0.70    0.14
   4  -1  -4    0.63    0.10
   4  -1  -4    0.77    0.16
   4   1  -4    0.55    0.11
   4   1  -4    0.64    0.14
  -4   1   4    0.69    0.14
   3  -1  -4    0.94    0.13
  -3  -1   4    0.77    0.12
   3  -1  -4    1.06    0.09
  -3  -1   4    1.02    0.07
   3   1  -4    1.25    0.13
   3   1  -4    0.84    0.13
  -3   1   4    1.01    0.10
  -3   1   4    0.97    0.14
  -2  -1   4    2.56    0.07
   2  -1  -4    2.58    0.15
   2  -1  -4    2.50    0.11
  -2  -1   4    2.41    0.14
   2   1  -4    2.30    0.13
  -2   1   4    2.60    0.11
  -2   1   4    2.56    0.15
   2   1  -4    2.71    0.15
  -1  -1   4    1.13    0.04
   1  -1  -4    1.09    0.08
   1  -1  -4    1.19    0.07
  -1  -1   4    1.22    0.09
  -1   1   4    0.98    0.08
   1   1  -4    0.99    0.08
   1   1  -4    1.13    0.08
  -1   1   4    0.99    0.07
   0  -1  -4    0.58    0.05
   0  -1  -4    0.58    0.07
   0  -1   4    0.73    0.07
   0  -1   4    0.53    0.07
   0   1   4    0.54    0.06
   0   1  -4    0.51    0.03
   0   1  -4    0.52    0.07
   0   1   4    0.66    0.06
   1  -1   4    0.11    0.05
   1  -1   4    0.12    0.05
   1  -1   4    0.18    0.03
  -1  -1  -4    0.14    0.04
  -1  -1  -4    0.16    0.05
  -1   1  -4    0.19    0.05
   1   1   4    0.19    0.04
   1   1   4    0.09    0.05
   2  -1   4   97.14    1.38
  -2  -1  -4   98.34    1.28
   2  -1   4   99.33    1.25
   2  -1   4   98.59    1.37
   2   1   4  100.37    1.36
   2   1   4   99.19    1.33
   2   1   4   99.05    1.35
  -2   1  -4   98.61    1.31
   3  -1   4    1.31    0.15
   3  -1   4    1.06    0.12
   3  -1   4    1.38    0.16
  -3   1  -4    1.47    0.15
   3   1   4    1.33    0.16
   3   1   4    1.27    0.14
   3   1   4    1.18    0.14
   3   1   4    0.93    0.14
   4  -1   4    0.01    0.06
  -4  -1  -4    0.13    0.07
   4  -1   4    0.01    0.08
  -4   1  -4    0.05    0.08
   4   1   4    0.10    0.07
   4   1   4    0.02    0.07
   4   1   4    0.04    0.06
  -4   1  -4    0.05    0.08
   4   1   4    0.08    0.08
  -5  -1  -4    0.18    0.10
  -5  -1  -4    0.37    0.12
  -5  -1  -4    0.43    0.12
  -5  -1  -4    0.11    0.09
   5  -1   4    0.14    0.11
  -5   1  -4    0.31    0.11
   5  -2  -4   -0.04    0.10
  -5  -2   4   -0.04    0.09
   5   2  -4    0.08    0.08
  -5   2   4    0.06    0.09
   5   2  -4   -0.20    0.06
   4  -2  -4    0.01    0.07
  -4  -2   4   -0.02    0.05
   4   2  -4   -0.05    0.08
   4   2  -4    0.02    0.06
  -4   2   4    0.07    0.08
   3  -2  -4    1.81    0.11
  -3  -2   4    2.23    0.17
   3  -2  -4    2.05    0.16
   3   2  -4    1.82    0.19
  -3   2   4    2.00    0.12
   3   2  -4    2.03    0.15
  -3   2   4    1.96    0.17
  -2  -2   4    0.33    0.07
   2  -2  -4    0.22    0.06
   2  -2  -4    0.28    0.05
   2   2  -4    0.30    0.07
  -2   2   4    0.25    0.05
   2   2  -4    0.19    0.05
  -2   2   4    0.13    0.06
   1  -2  -4   13.21    0.29
  -1  -2   4   12.85    0.30
   1  -2  -4   12.79    0.24
   1   2  -4   13.14    0.18
  -1   2   4   13.08    0.27
   1   2  -4   12.87    0.27
  -1   2   4   12.64    0.29
   1   2  -4   12.96    0.29
   0  -2   4   14.33    0.31
   0  -2   4   14.44    0.27
   0  -2   4   14.86    0.22
   0  -2  -4   14.32    0.27
   0  -2  -4   14.31    0.28
   0   2   4   14.47    0.25
   0   2   4   14.77    0.29
   0   2  -4   14.22    0.29
  -1  -2  -4    0.06    0.03
   1  -2   4    0.13    0.02
   1  -2   4    0.17    0.06
   1  -2   4    0.13    0.05
  -1   2  -4    0.06    0.04
   1   2   4    0.14    0.05
   1   2   4    0.12    0.05
   1   2   4    0.12    0.03
   2  -2   4   35.68    0.66
  -2  -2  -4   35.35    0.60
   2  -2   4   34.23    0.54
   2  -2   4   35.78    0.66
   2   2   4   34.70    0.57
   2   2   4   34.55    0.64
  -2   2  -4   34.35    0.59
   2   2   4   34.96    0.64
  -3  -2  -4    0.51    0.10
   3  -2   4    0.40    0.08
   3  -2   4    0.40    0.10
   3  -2   4    0.41    0.10
   3   2   4    0.64    0.12
  -3   2  -4    0.22    0.08
  -3   2  -4    0.51    0.10
   3   2   4    0.36    0.09
   3   2   4    0.48    0.09
   4  -2   4   -0.06    0.06
   4  -2   4    0.11    0.07
  -4  -2  -4    0.09    0.08
   4   2   4    0.18    0.10
   4   2   4    0.10    0.08
  -4   2  -4    0.14    0.08
   4   2   4    0.00    0.06
  -4   2  -4    0.18    0.09
   5  -2   4   -0.07    0.09
  -5  -2  -4    0.00    0.07
   5   2   4   -0.09    0.08
  -5   2  -4    0.01    0.08
   5  -3  -4    0.03    0.10
  -5  -3   4    0.00    0.08
   5   3  -4   -0.14    0.06
   5   3  -4    0.03    0.08
  -5   3   4   -0.08    0.06
   4  -3  -4    0.16    0.09
  -4  -3   4    0.17    0.09
   4   3  -4    0.13    0.09
  -4   3   4    0.14    0.07
   4   3  -4    0.16    0.08
  -4   3   4    0.16    0.09
  -3  -3   4    0.65    0.11
   3  -3  -4    0.61    0.12
   3  -3  -4    0.81    0.07
  -3   3   4    0.72    0.10
  -3   3   4    0.58    0.12
   3   3  -4    0.69    0.12
   3   3  -4    0.74    0.12
   2  -3  -4    4.35    0.20
   2  -3  -4    3.88    0.11
  -2  -3   4    3.98    0.19
   2   3  -4    3.82    0.19
   2   3  -4    3.94    0.18
  -2   3   4    3.86    0.16
  -2   3   4    3.75    0.19
   1  -3  -4    1.93    0.12
  -1  -3   4    1.93    0.12
   1  -3  -4    2.05    0.08
  -1   3   4    1.97    0.11
   1   3  -4    2.05    0.11
   1   3  -4    2.02    0.07
   1   3  -4    1.99    0.12
  -1   3   4    1.92    0.11
   0  -3  -4    0.90    0.08
   0  -3   4    1.00    0.10
   0  -3  -4    0.89    0.09
   0  -3   4    0.84    0.05
   0   3  -4    0.84    0.08
   0   3   4    0.66    0.08
   0   3  -4    0.82    0.09
   0   3   4    0.82    0.05
   1  -3   4   30.60    0.42
   1  -3   4   31.13    0.55
   1  -3   4   30.78    0.57
  -1  -3  -4   31.43    0.52
  -1   3  -4   31.43    0.56
  -1   3  -4   30.36    0.49
   1   3   4   30.65    0.54
   1   3   4   31.83    0.55
   1   3   4   30.82    0.41
   2  -3   4    3.06    0.13
   2  -3   4    3.08    0.18
  -2  -3  -4    3.05    0.16
   2   3   4    2.94    0.17
  -2   3  -4    3.45    0.15
  -2   3  -4    3.28    0.19
   2   3   4    2.97    0.18
   2   3   4    3.31    0.13
  -3  -3  -4    3.48    0.21
   3  -3   4    3.02    0.21
   3  -3   4    3.03    0.17
  -3   3  -4    3.28    0.17
   3   3   4    3.43    0.18
  -3   3  -4    3.18    0.21
   3   3   4    3.53    0.22
   3   3   4    3.28    0.20
  -4  -3  -4    0.07    0.07
   4  -3   4    0.19    0.09
   4  -3   4    0.17    0.08
   4   3   4    0.19    0.10
  -4   3  -4    0.09    0.09
   4   3   4    0.23    0.11
   5  -3   4    0.11    0.12
  -5  -3  -4   -0.04    0.07
  -5   3  -4   -0.06    0.07
   5   3   4    0.09    0.11
   5  -4  -4    0.40    0.14
  -5  -4   4    0.30    0.12
   5   4  -4    0.31    0.13
  -5   4   4    0.52    0.14
   5   4  -4    0.50    0.14
   4  -4  -4   -0.05    0.06
  -4  -4   4   -0.01    0.07
  -4   4   4   -0.05    0.06
   4   4  -4    0.02    0.08
  -4   4   4    0.12    0.07
   4   4  -4   -0.08    0.05
  -3  -4   4    1.47    0.16
   3  -4  -4    1.44    0.17
  -3   4   4    1.19    0.13
   3   4  -4    1.28    0.16
   3   4  -4    1.45    0.17
  -3   4   4    1.05    0.15
   2  -4  -4   23.55    0.32
  -2  -4   4   22.75    0.49
   2  -4  -4   23.21    0.51
   2   4  -4   23.23    0.50
  -2   4   4   23.17    0.51
  -2   4   4   23.04    0.47
   2   4  -4   22.02    0.50
   1  -4  -4   11.56    0.22
  -1  -4   4   10.84    0.29
   1  -4  -4   11.60    0.30
  -1  -4   4   11.30    0.28
   1   4  -4   11.22    0.21
   1   4  -4   11.31    0.30
  -1   4   4   11.75    0.30
  -1   4   4   11.84    0.28
   0  -4  -4    1.60    0.11
   0  -4   4    1.47    0.11
   0  -4   4    1.67    0.09
   0   4   4    1.58    0.10
   0   4   4    1.53    0.07
   0   4  -4    1.46    0.09
   0   4   4    1.63    0.11
   0   4  -4    1.55    0.10
   1  -4   4    2.74    0.10
  -1  -4  -4    2.67    0.14
   1  -4   4    2.85    0.16
  -1   4  -4    2.75    0.15
  -1   4  -4    2.53    0.12
   1   4   4    2.83    0.15
   1   4   4    2.58    0.14
   2  -4   4    0.04    0.04
  -2  -4  -4    0.04    0.05
   2  -4   4    0.09    0.06
  -2   4  -4    0.00    0.05
   2   4   4    0.00    0.04
   2   4   4    0.05    0.06
  -2   4  -4    0.00    0.04
   2   4   4    0.02    0.03
   3  -4   4    1.26    0.17
   3  -4   4    1.45    0.12
  -3  -4  -4    1.28    0.16
  -3  -4  -4    1.37    0.12
  -3   4  -4    1.29    0.17
   3   4   4    1.53    0.17
  -3   4  -4    1.34    0.11
   3   4   4    1.69    0.19
   4  -4   4    0.01    0.08
   4  -4   4    0.14    0.08
  -4  -4  -4    0.09    0.08
   4   4   4    0.03    0.08
  -4   4  -4    0.09    0.08
   4   4   4    0.10    0.08
   5  -4   4   -0.01    0.10
  -5  -4  -4   -0.01    0.08
  -5   4  -4   -0.03    0.07
   5   4   4   -0.03    0.10
   5  -5  -4    0.32    0.11
  -5  -5   4    0.35    0.13
  -5  -5   4    0.29    0.12
  -5   5   4    0.22    0.12
   5   5  -4    0.26    0.12
   4  -5  -4   -0.04    0.06
  -4  -5   4   -0.09    0.07
   4   5  -4   -0.10    0.07
  -4   5   4    0.09    0.09
   4   5  -4   -0.05    0.06
  -4   5   4   -0.03    0.06
  -3  -5   4    0.01    0.06
  -3  -5   4    0.04    0.07
   3  -5  -4    0.02    0.06
   3   5  -4   -0.02    0.05
   3   5  -4    0.09    0.07
  -3   5   4   -0.03    0.04
  -3   5   4    0.00    0.06
  -2  -5   4    0.41    0.09
   2  -5  -4    0.56    0.10
   2  -5  -4    0.72    0.11
  -2  -5   4    0.57    0.09
   2   5  -4    0.57    0.04
   2   5  -4    0.72    0.12
  -2   5   4    0.60    0.10
  -2   5   4    0.69    0.11
  -1  -5   4    0.30    0.07
   1  -5  -4    0.29    0.04
   1  -5  -4    0.17    0.06
  -1  -5   4    0.31    0.07
   1   5  -4    0.24    0.04
  -1   5   4    0.34    0.06
  -1   5   4    0.33    0.07
   1   5  -4    0.29    0.07
   0  -5   4    6.36    0.19
   0  -5  -4    6.31    0.22
   0  -5   4    6.25    0.22
   0   5   4    6.50    0.20
   0   5   4    6.17    0.22
   0   5  -4    6.30    0.21
   0   5  -4    6.43    0.21
   0   5   4    6.63    0.15
   1  -5   4    5.69    0.17
   1  -5   4    5.81    0.23
  -1  -5  -4    5.72    0.22
   1   5   4    6.23    0.23
   1   5   4    5.95    0.23
  -1   5  -4    5.77    0.23
  -1   5  -4    5.99    0.19
   2  -5   4   15.16    0.44
  -2  -5  -4   16.05    0.27
   2  -5   4   15.11    0.34
  -2  -5  -4   15.72    0.42
   2   5   4   16.28    0.44
  -2   5  -4   16.63    0.34
  -2   5  -4   16.35    0.45
   2   5   4   15.64    0.41
   3  -5   4    0.23    0.07
   3  -5   4    0.30    0.10
  -3  -5  -4    0.30    0.09
   3   5   4    0.09    0.06
   3   5   4    0.25    0.10
  -3   5  -4    0.28    0.10
   4  -5   4    0.02    0.08
  -4  -5  -4    0.00    0.07
   4   5   4    0.08    0.08
  -4   5  -4    0.11    0.09
   4   5   4    0.06    0.09
   5  -5   4    0.07    0.11
  -5  -5  -4   -0.07    0.08
   5   5   4   -0.04    0.12
  -5   5  -4    0.02    0.09
   5  -6  -4    0.01    0.09
  -5  -6   4    0.02    0.08
  -5   6   4    0.08    0.10
   5   6  -4    0.04    0.10
   4  -6  -4    0.08    0.08
  -4  -6   4   -0.02    0.07
  -4  -6   4    0.12    0.08
  -4   6   4    0.01    0.06
  -4   6   4    0.02    0.07
   4   6  -4    0.08    0.09
   3  -6  -4    0.29    0.10
  -3  -6   4    0.44    0.10
  -3  -6   4    0.47    0.12
   3  -6  -4    0.38    0.10
  -3   6   4    0.46    0.10
  -3   6   4    0.50    0.11
   3   6  -4    0.53    0.13
   2  -6  -4    7.96    0.30
   2  -6  -4    7.57    0.29
  -2  -6   4    7.55    0.27
  -2  -6   4    8.23    0.30
   2   6  -4    7.47    0.18
   2   6  -4    7.60    0.30
  -2   6   4    7.47    0.28
  -1  -6   4    8.51    0.27
  -1  -6   4    8.50    0.27
   1  -6  -4    8.71    0.25
   1  -6  -4    8.77    0.20
   1  -6  -4    8.83    0.30
  -1   6   4    8.73    0.29
   1   6  -4    8.90    0.29
   1   6  -4    8.87    0.23
   0  -6  -4    1.59    0.13
   0  -6   4    1.47    0.10
   0  -6   4    1.32    0.11
   0   6   4    1.39    0.12
   0   6   4    1.73    0.11
   0   6   4    1.59    0.07
   0   6  -4    1.41    0.11
   0   6  -4    1.53    0.11
   1  -6   4    2.82    0.13
   1  -6   4    2.95    0.18
  -1  -6  -4    3.15    0.18
   1   6   4    3.20    0.17
   1   6   4    3.03    0.17
  -1   6  -4    3.16    0.14
  -1   6  -4    2.92    0.17
   2  -6   4    1.31    0.17
   2  -6   4    1.24    0.10
  -2  -6  -4    1.06    0.14
   2   6   4    1.25    0.15
   2   6   4    1.27    0.16
  -2   6  -4    1.25    0.16
  -2   6  -4    1.31    0.10
  -3  -6  -4    0.65    0.14
   3  -6   4    0.71    0.10
   3  -6   4    0.76    0.14
   3   6   4    1.00    0.14
  -3   6  -4    0.58    0.13
   3   6   4    0.61    0.13
  -4  -6  -4    0.01    0.07
   4  -6   4    0.04    0.08
   4   6   4    0.01    0.07
  -4   6  -4   -0.09    0.06
   4   6   4   -0.03    0.08
   5  -7  -4   -0.05    0.08
  -5  -7   4   -0.02    0.08
  -5   7   4    0.07    0.09
   5   7  -4   -0.09    0.10
  -4  -7   4    0.00    0.07
   4  -7  -4    0.01    0.09
  -4  -7   4   -0.02    0.06
  -4   7   4    0.14    0.09
   4   7  -4    0.01    0.07
  -4   7   4    0.04    0.07
  -3  -7   4    0.99    0.16
   3  -7  -4    0.93    0.15
  -3  -7   4    0.91    0.14
   3  -7  -4    0.78    0.15
  -3   7   4    0.83    0.14
   3   7  -4    0.79    0.15
  -2  -7   4    0.49    0.11
   2  -7  -4    0.38    0.10
   2  -7  -4    0.31    0.10
  -2  -7   4    0.40    0.09
   2   7  -4    0.47    0.11
   2   7  -4    0.50    0.07
  -2   7   4    0.34    0.10
  -1  -7   4    0.79    0.11
  -1  -7   4    0.76    0.11
   1  -7  -4    0.68    0.09
   1  -7  -4    0.74    0.07
   1  -7  -4    0.96    0.14
   1   7  -4    0.84    0.12
   1   7  -4    0.82    0.10
  -1   7   4    0.58    0.11
   0  -7   4    1.11    0.12
   0  -7  -4    0.73    0.11
   0  -7   4    0.91    0.12
   0   7   4    1.02    0.13
   0   7  -4    0.70    0.10
   0   7   4    0.94    0.06
   0   7  -4    0.61    0.09
   0   7   4    1.03    0.11
   1  -7   4    1.06    0.14
   1  -7   4    1.29    0.10
  -1  -7  -4    1.26    0.15
  -1   7  -4    1.26    0.15
  -1   7  -4    1.32    0.10
   1   7   4    1.25    0.15
   1   7   4    1.32    0.14
   2  -7   4    0.46    0.11
   2  -7   4    0.71    0.10
  -2  -7  -4    0.46    0.12
  -2   7  -4    0.51    0.11
   2   7   4    0.45    0.11
   2   7   4    0.41    0.10
  -2   7  -4    0.49    0.07
  -3  -7  -4    1.34    0.18
   3  -7   4    1.27    0.19
   3  -7   4    1.26    0.15
  -3   7  -4    1.10    0.17
   3   7   4    1.29    0.16
   3   7   4    1.00    0.17
   4  -7   4    0.41    0.15
  -4  -7  -4    0.34    0.12
   4   7   4    0.30    0.13
  -4   7  -4    0.16    0.11
  -4  -8   4    0.09    0.09
   4  -8  -4    0.01    0.09
   4   8  -4   -0.03    0.09
  -4   8   4    0.03    0.09
  -4   8   4    0.05    0.08
   3  -8  -4    0.06    0.07
  -3  -8   4    0.10    0.09
  -3  -8   4   -0.09    0.06
   3  -8  -4   -0.05    0.07
  -3   8   4   -0.01    0.06
   3   8  -4    0.02    0.07
   2  -8  -4   12.80    0.43
  -2  -8   4   11.83    0.36
  -2  -8   4   13.31    0.43
   2  -8  -4   13.08    0.41
  -2   8   4   12.90    0.42
   2   8  -4   12.63    0.42
  -1  -8   4   29.40    0.62
   1  -8  -4   29.46    0.65
  -1  -8   4   29.21    0.59
   1  -8  -4   28.95    0.47
   1  -8  -4   29.27    0.56
  -1   8   4   29.60    0.65
   1   8  -4   28.68    0.55
   1   8  -4   29.71    0.63
   0  -8   4    0.86    0.11
   0  -8  -4    1.15    0.15
   0  -8   4    0.92    0.12
   0   8  -4    1.00    0.12
   0   8  -4    0.88    0.12
   0   8   4    0.95    0.11
   0   8   4    0.88    0.13
   0   8   4    0.98    0.07
   1  -8   4    0.18    0.06
  -1  -8  -4    0.02    0.06
   1  -8   4    0.13    0.07
  -1   8  -4    0.15    0.06
   1   8   4    0.17    0.08
   1   8   4    0.18    0.07
  -1   8  -4    0.09    0.06
  -2  -8  -4    1.03    0.16
   2  -8   4    0.91    0.12
   2  -8   4    0.99    0.15
   2   8   4    0.88    0.14
  -2   8  -4    0.72    0.14
   2   8   4    0.69    0.13
  -3  -8  -4    0.52    0.13
   3  -8   4    0.53    0.14
  -3   8  -4    0.47    0.13
   3   8   4    0.48    0.14
   3   8   4    0.67    0.14
  -4  -8  -4    0.31    0.13
   4  -8   4    0.22    0.12
  -4   8  -4    0.33    0.13
   4   8   4    0.09    0.10
  -4  -9   4    0.13    0.11
   4  -9  -4    0.02    0.09
   4   9  -4    0.10    0.11
  -4   9   4    0.02    0.09
  -4   9   4    0.09    0.10
   3  -9  -4    8.22    0.38
   3  -9  -4    9.16    0.40
  -3  -9   4    8.70    0.40
   3   9  -4    8.86    0.40
  -3   9   4    8.99    0.39
  -2  -9   4    4.88    0.24
   2  -9  -4    4.77    0.25
   2  -9  -4    4.30    0.26
  -2  -9   4    4.14    0.26
   2   9  -4    4.89    0.28
  -2   9   4    4.45    0.26
   1  -9  -4   25.07    0.62
   1  -9  -4   24.69    0.52
  -1  -9   4   25.12    0.59
  -1  -9   4   25.49    0.56
  -1   9   4   24.12    0.61
   1   9  -4   25.06    0.59
   1   9  -4   24.60    0.53
   0  -9  -4    5.13    0.27
   0  -9   4    5.03    0.24
   0  -9   4    5.12    0.23
   0   9  -4    5.28    0.23
   0   9   4    4.78    0.25
   0   9   4    4.88    0.21
   0   9  -4    5.05    0.24
   1  -9   4    0.04    0.06
  -1  -9  -4    0.10    0.08
   1  -9   4    0.08    0.07
  -1   9  -4    0.01    0.06
  -1   9  -4    0.16    0.06
   1   9   4    0.00    0.07
   1   9   4    0.16    0.08
   2  -9   4    0.43    0.12
   2  -9   4    0.56    0.10
  -2  -9  -4    0.61    0.14
   2   9   4    0.41    0.11
   2   9   4    0.36    0.11
  -2   9  -4    0.48    0.12
  -3  -9  -4    0.42    0.13
   3  -9   4    0.64    0.15
   3   9   4    0.62    0.15
   3   9   4    0.61    0.13
  -3   9  -4    0.54    0.14
   4  -9   4   -0.04    0.08
  -4  -9  -4    0.11    0.09
   4   9   4    0.41    0.15
  -4   9  -4    0.23    0.13
  -4 -10   4    0.04    0.10
   4 -10  -4    0.03    0.08
  -4  10   4    0.17    0.11
   4  10  -4   -0.11    0.08
  -4  10   4    0.12    0.10
   3 -10  -4    0.61    0.14
   3 -10  -4    0.62    0.15
  -3 -10   4    0.34    0.13
  -3  10   4    0.25    0.11
   3  10  -4    0.59    0.15
  -2 -10   4    4.28    0.27
  -2 -10   4    4.33    0.23
   2 -10  -4    4.05    0.26
   2 -10  -4    4.41    0.25
   2  10  -4    4.15    0.26
  -2  10   4    4.46    0.28
   1 -10  -4   10.42    0.32
  -1 -10   4   11.15    0.36
  -1 -10   4   10.56    0.39
   1 -10  -4   10.53    0.40
   1  10  -4   10.28    0.38
   1  10  -4   10.34    0.34
  -1  10   4   10.72    0.41
   0 -10  -4    4.80    0.28
   0 -10   4    5.54    0.26
   0 -10   4    4.94    0.25
   0  10   4    5.25    0.23
   0  10   4    4.79    0.27
   0  10  -4    4.93    0.23
   0  10  -4    4.95    0.25
   1 -10   4    0.00    0.05
   1 -10   4   -0.03    0.06
  -1 -10  -4   -0.01    0.07
  -1  10  -4   -0.01    0.05
  -1  10  -4    0.01    0.06
   1  10   4   -0.02    0.04
   1  10   4   -0.05    0.07
  -2 -10  -4    0.18    0.11
   2 -10   4    0.47    0.13
   2 -10   4    0.36    0.09
   2  10   4    0.37    0.12
  -2  10  -4    0.23    0.10
   2  10   4    0.47    0.12
  -3 -10  -4    0.04    0.10
   3 -10   4    0.11    0.10
   3  10   4    0.10    0.08
  -3  10  -4    0.11    0.10
   3  10   4    0.29    0.12
   4 -10   4    0.04    0.10
  -4 -10  -4    0.08    0.11
  -4  10  -4    0.10    0.10
   4  10   4    0.05    0.12
  -4 -11   4    0.09    0.11
   4 -11  -4    0.28    0.12
   4  11  -4    0.33    0.13
  -4  11   4    0.15    0.13
  -4  11   4    0.43    0.15
  -3 -11   4    0.66    0.16
   3 -11  -4    0.50    0.14
   3 -11  -4    0.49    0.14
  -3  11   4    0.55    0.15
   3  11  -4    0.57    0.15
   2 -11  -4   -0.06    0.06
   2 -11  -4   -0.05    0.06
  -2 -11   4   -0.09    0.06
   2  11  -4    0.07    0.08
  -2  11   4   -0.09    0.06
  -1 -11   4    2.07    0.17
  -1 -11   4    2.32    0.19
   1 -11  -4    2.24    0.24
   1  11  -4    2.00    0.17
   1  11  -4    2.55    0.20
  -1  11   4    1.78    0.22
   0 -11   4    0.73    0.14
   0 -11   4    0.77    0.13
   0 -11  -4    0.71    0.15
   0  11  -4    0.74    0.13
   0  11  -4    0.82    0.15
   0  11   4    0.86    0.15
   0  11   4    0.77    0.12
   1 -11   4    0.30    0.11
  -1 -11  -4    0.22    0.10
   1 -11   4    0.18    0.09
   1  11   4    0.27    0.10
   1  11   4    0.38    0.10
  -1  11  -4    0.23    0.10
   2 -11   4    0.71    0.16
  -2 -11  -4    0.31    0.12
   2 -11   4    1.07    0.16
  -2  11  -4    0.46    0.13
   2  11   4    0.57    0.14
   2  11   4    0.97    0.16
   3 -11   4    0.01    0.09
  -3 -11  -4    0.05    0.08
  -3  11  -4   -0.01    0.09
   3  11   4   -0.01    0.09
   3  11   4   -0.10    0.08
  -3 -12   4   -0.07    0.08
   3 -12  -4    0.02    0.08
   3 -12  -4   -0.06    0.07
  -3  12   4   -0.13    0.07
   3  12  -4    0.15    0.11
   2 -12  -4    1.94    0.24
  -2 -12   4    1.70    0.23
   2 -12  -4    1.55    0.19
   2  12  -4    1.86    0.24
  -2  12   4    1.85    0.24
   1 -12  -4    0.41    0.13
  -1 -12   4    0.13    0.09
  -1  12   4    0.22    0.11
   1  12  -4    0.25    0.10
   1  12  -4    0.24    0.09
   0 -12  -4    0.57    0.14
   0 -12   4    0.36    0.11
   0 -12   4    0.45    0.12
   0  12   4    0.54    0.14
   0  12  -4    0.60    0.12
   0  12  -4    0.62    0.14
   0  12   4    0.44    0.11
   1 -12   4    0.07    0.08
   1 -12   4    0.19    0.09
  -1 -12  -4    0.06    0.10
   1  12   4    0.05    0.08
  -1  12  -4    0.12    0.09
   1  12   4    0.22    0.11
  -2 -12  -4    0.00    0.09
   2 -12   4    0.07    0.10
   2  12   4    0.08    0.10
  -2  12  -4    0.00    0.08
   2  12   4    0.10    0.09
  -3 -12  -4   -0.01    0.10
   3 -12   4    0.03    0.10
  -3  12  -4   -0.08    0.09
   3  12   4    0.07    0.09
   3  12   4    0.14    0.12
   3 -13  -4    0.14    0.10
  -3 -13   4   -0.03    0.09
   3 -13  -4    0.00    0.10
   3  13  -4    0.13    0.11
  -3  13   4   -0.07    0.08
   2 -13  -4    0.22    0.11
  -2 -13   4    0.39    0.13
  -2  13   4    0.36    0.13
   2  13  -4    0.37    0.13
   1 -13  -4    0.11    0.09
  -1 -13   4    0.24    0.11
   1  13  -4   -0.01    0.08
  -1  13   4    0.03    0.09
   1  13  -4    0.11    0.09
   0 -13   4    0.29    0.12
   0 -13  -4    0.39    0.13
   0 -13   4    0.35    0.11
   0  13  -4    0.28    0.11
   0  13   4    0.09    0.10
   1 -13   4   -0.06    0.06
  -1 -13  -4   -0.10    0.06
   1 -13   4    0.05    0.09
   1  13   4    0.02    0.07
   1  13   4   -0.01    0.10
  -1  13  -4   -0.09    0.09
  -2 -13  -4   -0.02    0.09
   2 -13   4    0.12    0.10
   2  13   4    0.11    0.10
  -2  13  -4    0.06    0.10
   2  13   4    0.15    0.10
   2 -14  -4    0.08    0.10
  -2 -14   4    0.14    0.10
  -2  14   4    0.13    0.11
   2  14  -4   -0.07    0.08
  -1 -14   4    0.84    0.17
   1 -14  -4    1.75    0.26
   1  14  -4    1.45    0.20
  -1  14   4    1.61    0.24
   0 -14  -4    0.05    0.10
   0 -14   4   -0.03    0.08
   0  14  -4   -0.03    0.08
   0  14   4   -0.14    0.08
  -1 -14  -4    0.10    0.11
   1 -14   4    0.11    0.09
   1 -14   4    0.19    0.10
   1  14   4    0.02    0.11
   1  14   4    0.15    0.10
  -1  14  -4   -0.10    0.08
  -2 -14  -4    0.22    0.14
   2 -14   4    0.04    0.09
   2  14   4    0.38    0.14
  -2  14  -4    0.29    0.13
   2  14   4    0.15    0.12
   1 -15  -4    0.74    0.18
  -1 -15   4    0.50    0.16
  -1  15   4    0.37    0.16
   1  15  -4    0.62    0.15
   0 -15  -4    0.38    0.13
   0 -15   4    0.62    0.15
   0  15  -4    0.21    0.13
   0  15   4    0.33    0.15
   1 -15   4    0.05    0.10
  -1 -15  -4   -0.14    0.07
   1  15   4   -0.13    0.10
  -1  15  -4   -0.03    0.12
   5   0  -5   -0.03    0.09
  -5   0   5    0.01    0.10
   4   0  -5    0.05    0.06
   4   0  -5   -0.04    0.06
  -4   0   5    0.01    0.06
   3   0  -5   -0.01    0.04
   3   0  -5    0.00    0.05
  -3   0   5    0.01    0.05
  -3   0   5    0.02    0.03
   2   0  -5    0.02    0.05
   2   0  -5   -0.02    0.03
  -2   0   5   -0.02    0.04
  -2   0   5   -0.02    0.02
   1   0  -5   -0.03    0.04
  -1   0   5   -0.08    0.03
   1   0  -5   -0.02    0.03
  -1   0   5   -0.03    0.02
   0   0  -5   -0.03    0.03
   0   0  -5    0.00    0.02
   0   0   5    0.00    0.04
   0   0   5   -0.01    0.03
   1   0   5    0.01    0.03
  -1   0  -5    0.04    0.02
   1   0   5   -0.02    0.03
  -1   0  -5    0.03    0.04
   2   0   5   -0.04    0.05
  -2   0  -5    0.04    0.03
  -2   0  -5    0.06    0.06
   2   0   5    0.08    0.05
   3   0   5    0.04    0.06
   3   0   5    0.02    0.06
   3   0   5   -0.02    0.04
  -3   0  -5   -0.03    0.05
   4   0   5   -0.06    0.06
   4   0   5    0.02    0.06
  -4   0  -5    0.16    0.09
   4   0   5   -0.07    0.07
   5   0   5   -0.05    0.09
  -5   0  -5   -0.01    0.06
   5  -1  -5   -0.04    0.09
  -5  -1   5   -0.02    0.08
  -5   1   5    0.05    0.09
   5   1  -5   -0.08    0.09
  -4  -1   5    1.48    0.20
   4  -1  -5    1.76    0.22
   4  -1  -5    1.34    0.14
  -4   1   5    1.36    0.20
   4   1  -5    1.43    0.17
   4   1  -5    1.53    0.19
   3  -1  -5    0.57    0.09
  -3  -1   5    0.56    0.11
   3  -1  -5    0.73    0.12
   3   1  -5    0.56    0.11
  -3   1   5    0.64    0.12
  -3   1   5    0.58    0.07
   3   1  -5    0.60    0.10
   2  -1  -5    5.95    0.23
  -2  -1   5    6.42    0.10
  -2  -1   5    6.71    0.24
   2  -1  -5    6.55    0.20
  -2   1   5    6.14    0.24
   2   1  -5    6.40    0.23
  -2   1   5    6.27    0.17
   2   1  -5    6.60    0.22
   1  -1  -5    1.69    0.10
  -1  -1   5    1.73    0.06
   1  -1  -5    1.55    0.09
  -1  -1   5    1.79    0.11
  -1   1   5    1.63    0.09
   1   1  -5    1.65    0.10
  -1   1   5    1.84    0.11
   1   1  -5    1.70    0.10
   0  -1   5   22.06    0.41
   0  -1  -5   22.46    0.34
   0  -1  -5   22.00    0.39
   0  -1   5   21.55    0.37
   0   1   5   22.11    0.38
   0   1  -5   22.30    0.29
   0   1   5   22.05    0.39
   0   1  -5   21.88    0.40
  -1  -1  -5    1.01    0.11
   1  -1   5    0.91    0.10
   1  -1   5    0.77    0.09
  -1  -1  -5    0.89    0.06
   1   1   5    0.72    0.09
  -1   1  -5    0.79    0.09
   1   1   5    0.87    0.07
  -1   1  -5    0.86    0.04
   2  -1   5   35.92    0.67
   2  -1   5   36.86    0.56
  -2  -1  -5   38.28    0.68
   2  -1   5   36.67    0.69
  -2  -1  -5   35.49    0.59
   2   1   5   37.32    0.68
   2   1   5   37.36    0.63
  -2   1  -5   36.25    0.64
   3  -1   5    6.29    0.23
   3  -1   5    6.21    0.28
  -3  -1  -5    6.18    0.27
   3  -1   5    6.53    0.29
  -3  -1  -5    6.65    0.25
   3   1   5    6.49    0.27
   3   1   5    5.93    0.27
   3   1   5    6.04    0.28
  -3   1  -5    6.10    0.26
   4  -1   5    0.04    0.06
   4  -1   5    0.00    0.08
  -4  -1  -5   -0.01    0.05
  -4  -1  -5    0.02    0.07
   4  -1   5   -0.02    0.08
   4   1   5   -0.03    0.08
  -4   1  -5    0.11    0.07
  -4   1  -5    0.15    0.08
   4   1   5    0.11    0.08
   5  -1   5   -0.02    0.09
  -5  -1  -5    0.04    0.09
  -5  -1  -5   -0.01    0.08
  -5   1  -5    0.00    0.07
  -5  -2   5    1.76    0.25
   5  -2  -5    1.77    0.25
   5   2  -5    1.64    0.24
   5   2  -5    1.87    0.22
  -5   2   5    1.67    0.24
  -4  -2   5    0.40    0.11
   4  -2  -5    0.45    0.13
   4   2  -5    0.30    0.10
  -4   2   5    0.19    0.10
   4   2  -5    0.22    0.10
   3  -2  -5    2.13    0.18
   3  -2  -5    1.98    0.12
  -3  -2   5    1.82    0.16
   3   2  -5    2.29    0.18
  -3   2   5    1.99    0.12
  -3   2   5    2.16    0.18
   3   2  -5    1.77    0.14
   2  -2  -5   39.48    0.58
   2  -2  -5   41.07    0.71
  -2  -2   5   39.65    0.71
   2   2  -5   39.63    0.69
  -2   2   5   39.52    0.72
  -2   2   5   39.82    0.61
   2   2  -5   38.59    0.67
  -1  -2   5    7.12    0.13
  -1  -2   5    7.05    0.22
   1  -2  -5    6.83    0.21
   1  -2  -5    6.97    0.18
   1   2  -5    6.88    0.19
   1   2  -5    6.88    0.22
  -1   2   5    7.50    0.22
   0  -2   5   24.15    0.32
   0  -2  -5   24.21    0.40
   0  -2  -5   24.66    0.43
   0  -2   5   24.51    0.46
   0  -2   5   24.66    0.41
   0   2  -5   24.83    0.44
   0   2   5   24.29    0.43
   0   2   5   25.19    0.39
  -1  -2  -5    3.19    0.16
  -1  -2  -5    3.25    0.13
   1  -2   5    3.23    0.16
   1  -2   5    3.32    0.07
   1  -2   5    3.09    0.15
   1   2   5    3.36    0.16
  -1   2  -5    3.27    0.14
   1   2   5    3.18    0.11
   2  -2   5    2.06    0.16
   2  -2   5    2.19    0.10
   2  -2   5    2.14    0.16
  -2  -2  -5    2.25    0.13
   2   2   5    2.69    0.17
   2   2   5    2.25    0.15
   2   2   5    2.30    0.13
  -2   2  -5    2.29    0.14
  -3  -2  -5    4.02    0.21
   3  -2   5    4.52    0.20
   3  -2   5    5.06    0.26
   3  -2   5    4.29    0.25
   3   2   5    4.43    0.24
   3   2   5    4.60    0.22
   3   2   5    4.35    0.24
  -3   2  -5    4.90    0.23
  -4  -2  -5    0.48    0.11
   4  -2   5    0.43    0.13
  -4   2  -5    0.23    0.10
  -4   2  -5    0.60    0.12
   4   2   5    0.34    0.12
   4   2   5    0.26    0.10
   4   2   5    0.49    0.13
  -5  -2  -5    0.07    0.09
   5  -2   5    0.03    0.10
  -5   2  -5   -0.01    0.08
   5   2   5    0.12    0.12
  -5  -3   5    0.08    0.10
   5  -3  -5    0.12    0.12
  -5   3   5   -0.02    0.08
   5   3  -5    0.17    0.12
   5   3  -5    0.16    0.09
  -4  -3   5   -0.04    0.05
   4  -3  -5    0.05    0.08
   4   3  -5    0.10    0.08
   4   3  -5    0.02    0.06
  -4   3   5   -0.01    0.06
   3  -3  -5    1.35    0.09
   3  -3  -5    1.14    0.15
  -3  -3   5    1.31    0.15
  -3   3   5    1.32    0.16
   3   3  -5    1.25    0.17
  -3   3   5    1.26    0.13
   3   3  -5    1.45    0.17
   2  -3  -5    1.85    0.14
   2  -3  -5    2.03    0.09
  -2  -3   5    2.08    0.15
   2   3  -5    2.09    0.14
  -2   3   5    1.93    0.12
  -2   3   5    2.00    0.14
   2   3  -5    1.86    0.13
   1  -3  -5  174.53    2.00
   1  -3  -5  172.14    2.10
  -1  -3   5  172.94    2.17
   1   3  -5  170.85    2.11
   1   3  -5  175.54    1.95
   1   3  -5  173.86    2.05
  -1   3   5  173.33    2.08
  -1   3   5  171.37    2.13
   0  -3  -5    0.11    0.05
   0  -3   5    0.15    0.03
   0  -3   5    0.04    0.04
   0  -3   5    0.15    0.04
   0  -3  -5    0.14    0.04
   0   3  -5    0.11    0.05
   0   3   5    0.13    0.05
   0   3   5    0.12    0.03
   1  -3   5    1.25    0.11
   1  -3   5    1.30    0.05
   1  -3   5    1.45    0.12
  -1  -3  -5    1.12    0.09
   1   3   5    1.25    0.11
  -1   3  -5    1.13    0.10
   1   3   5    1.28    0.13
   1   3   5    1.29    0.06
   2  -3   5    0.18    0.07
   2  -3   5    0.11    0.04
  -2  -3  -5    0.14    0.05
   2  -3   5    0.17    0.07
   2   3   5    0.21    0.07
   2   3   5    0.11    0.04
   2   3   5    0.23    0.07
  -2   3  -5    0.14    0.06
  -3  -3  -5    1.77    0.15
   3  -3   5    1.80    0.13
   3  -3   5    1.82    0.20
  -3   3  -5    1.27    0.17
   3   3   5    1.28    0.17
   3   3   5    1.94    0.20
   3   3   5    1.57    0.13
  -3   3  -5    1.68    0.14
   4  -3   5    0.26    0.11
  -4  -3  -5    0.55    0.13
   4   3   5    0.41    0.13
  -4   3  -5    0.53    0.13
   4   3   5    0.51    0.13
   5  -3   5    0.03    0.10
  -5  -3  -5    0.07    0.09
   5   3   5    0.10    0.11
  -5   3  -5    0.01    0.09
  -5  -4   5    0.27    0.12
   5  -4  -5    0.11    0.10
   5   4  -5    0.04    0.10
   5   4  -5    0.12    0.12
  -5   4   5    0.11    0.11
   4  -4  -5   -0.05    0.07
  -4  -4   5   -0.06    0.07
  -4   4   5   -0.04    0.06
   4   4  -5    0.02    0.07
   4   4  -5   -0.04    0.07
  -4   4   5    0.06    0.06
   3  -4  -5    0.39    0.10
  -3  -4   5    0.60    0.12
   3   4  -5    0.31    0.09
   3   4  -5    0.37    0.10
  -3   4   5    0.29    0.08
  -3   4   5    0.34    0.10
  -2  -4   5   16.76    0.42
   2  -4  -5   15.93    0.28
   2  -4  -5   15.50    0.41
  -2   4   5   16.46    0.42
  -2   4   5   15.13    0.37
   2   4  -5   15.46    0.40
   2   4  -5   16.13    0.42
  -1  -4   5    0.33    0.07
   1  -4  -5    0.47    0.06
  -1  -4   5    0.69    0.09
   1  -4  -5    0.41    0.08
  -1   4   5    0.53    0.08
  -1   4   5    0.47    0.08
   1   4  -5    0.53    0.05
   1   4  -5    0.50    0.09
   0  -4  -5    6.45    0.20
   0  -4   5    6.48    0.23
   0  -4   5    6.37    0.16
   0  -4  -5    6.36    0.21
   0   4  -5    6.45    0.20
   0   4   5    6.50    0.22
   0   4  -5    6.49    0.21
   0   4   5    6.56    0.16
   1  -4   5   16.32    0.41
   1  -4   5   16.47    0.27
  -1  -4  -5   16.78    0.37
  -1   4  -5   16.13    0.35
   1   4   5   16.73    0.39
   1   4   5   16.39    0.39
  -1   4  -5   16.40    0.40
   1   4   5   16.35    0.24
   2  -4   5    0.62    0.07
  -2  -4  -5    0.63    0.10
   2  -4   5    0.58    0.11
   2   4   5    0.60    0.06
  -2   4  -5    0.47    0.10
   2   4   5    0.58    0.10
   2   4   5    0.59    0.11
  -2   4  -5    0.60    0.09
   3  -4   5    0.06    0.05
  -3  -4  -5   -0.01    0.06
   3  -4   5   -0.01    0.06
   3   4   5    0.03    0.06
   3   4   5    0.04    0.06
  -3   4  -5   -0.08    0.05
  -3   4  -5    0.03    0.06
   4  -4   5    0.15    0.10
  -4  -4  -5    0.02    0.08
  -4   4  -5    0.14    0.10
   4   4   5    0.17    0.09
   4   4   5    0.06    0.09
   5  -4   5   -0.10    0.10
  -5  -4  -5   -0.13    0.06
   5   4   5   -0.05    0.10
  -5   4  -5   -0.10    0.06
   5  -5  -5   -0.06    0.07
  -5  -5   5    0.05    0.11
  -5  -5   5    0.12    0.08
  -5   5   5    0.09    0.10
   5   5  -5    0.14    0.11
   5   5  -5    0.02    0.10
  -4  -5   5    1.43    0.20
   4  -5  -5    1.14    0.19
   4   5  -5    0.91    0.17
  -4   5   5    1.02    0.18
  -4   5   5    1.11    0.15
   4   5  -5    1.04    0.18
   3  -5  -5    0.23    0.09
  -3  -5   5    0.17    0.08
   3   5  -5    0.17    0.08
  -3   5   5    0.14    0.07
  -3   5   5   -0.06    0.06
   3   5  -5    0.17    0.09
  -2  -5   5    0.08    0.05
  -2  -5   5   -0.01    0.05
   2  -5  -5    0.11    0.03
   2  -5  -5    0.11    0.06
  -2   5   5    0.11    0.06
   2   5  -5    0.10    0.07
   2   5  -5    0.11    0.02
  -2   5   5    0.18    0.07
   1  -5  -5    0.73    0.06
   1  -5  -5    0.68    0.11
  -1  -5   5    0.64    0.09
  -1  -5   5    0.61    0.10
   1   5  -5    0.65    0.07
  -1   5   5    0.64    0.08
  -1   5   5    0.66    0.10
   1   5  -5    0.78    0.11
   0  -5   5   18.99    0.35
   0  -5  -5   19.29    0.39
   0  -5  -5   19.10    0.42
   0  -5   5   19.24    0.44
   0   5   5   19.51    0.44
   0   5   5   19.03    0.31
   0   5  -5   18.80    0.41
   0   5  -5   19.08    0.39
  -1  -5  -5   14.10    0.36
   1  -5   5   14.13    0.39
   1  -5   5   13.68    0.27
  -1   5  -5   13.33    0.32
   1   5   5   13.68    0.37
   1   5   5   13.43    0.36
  -1   5  -5   13.75    0.37
   2  -5   5    0.04    0.04
  -2  -5  -5    0.05    0.06
   2  -5   5    0.08    0.06
  -2   5  -5    0.08    0.05
   2   5   5    0.09    0.07
   2   5   5    0.10    0.07
  -2   5  -5    0.03    0.06
   3  -5   5    0.35    0.09
   3  -5   5    0.18    0.09
  -3  -5  -5    0.24    0.09
   3   5   5    0.23    0.09
   3   5   5    0.35    0.12
  -3   5  -5    0.00    0.08
   4  -5   5    0.00    0.08
  -4  -5  -5   -0.06    0.05
   4   5   5    0.01    0.09
  -4   5  -5    0.03    0.07
   4   5   5   -0.03    0.06
  -5  -6   5    0.40    0.14
   5  -6  -5    0.17    0.12
  -5   6   5    0.47    0.15
   5   6  -5    0.31    0.13
  -4  -6   5    2.09    0.22
   4  -6  -5    1.88    0.23
  -4  -6   5    2.37    0.27
   4   6  -5    2.34    0.26
  -4   6   5    1.80    0.23
  -4   6   5    2.36    0.20
   3  -6  -5    0.50    0.12
  -3  -6   5    0.38    0.11
  -3  -6   5    0.41    0.10
  -3   6   5    0.37    0.11
  -3   6   5    0.37    0.10
   3   6  -5    0.34    0.11
  -2  -6   5   -0.05    0.04
  -2  -6   5   -0.09    0.03
   2  -6  -5    0.00    0.05
   2   6  -5    0.15    0.07
  -2   6   5    0.05    0.06
  -2   6   5   -0.08    0.03
   1  -6  -5    0.95    0.07
   1  -6  -5    1.21    0.14
  -1  -6   5    1.05    0.12
  -1  -6   5    1.13    0.14
   1   6  -5    0.93    0.12
  -1   6   5    1.10    0.13
   1   6  -5    0.98    0.08
  -1   6   5    1.27    0.10
   0  -6   5    7.49    0.27
   0  -6  -5    7.90    0.28
   0  -6   5    7.65    0.22
   0   6  -5    7.03    0.24
   0   6   5    7.42    0.17
   0   6  -5    7.78    0.25
   0   6   5    7.47    0.23
   0   6   5    7.71    0.27
   1  -6   5    2.67    0.18
   1  -6   5    2.68    0.12
  -1  -6  -5    2.71    0.17
   1   6   5    2.60    0.16
   1   6   5    2.04    0.15
  -1   6  -5    2.80    0.18
  -1   6  -5    2.71    0.14
   2  -6   5    1.04    0.10
  -2  -6  -5    0.93    0.14
   2  -6   5    0.62    0.13
   2   6   5    1.03    0.14
  -2   6  -5    1.04    0.15
  -2   6  -5    0.90    0.10
   2   6   5    0.74    0.13
  -3  -6  -5    0.35    0.10
   3  -6   5    0.22    0.10
   3   6   5    0.17    0.09
  -3   6  -5    0.26    0.10
   3   6   5    0.09    0.08
   4  -6   5   -0.02    0.08
  -4  -6  -5    0.04    0.08
   4   6   5   -0.04    0.07
  -4   6  -5   -0.05    0.06
   4   6   5    0.11    0.11
  -5  -7   5   -0.03    0.10
   5  -7  -5    0.07    0.10
   5   7  -5    0.06    0.11
  -5   7   5    0.00    0.09
   4  -7  -5    0.04    0.09
  -4  -7   5    0.17    0.10
  -4  -7   5    0.08    0.09
   4   7  -5   -0.01    0.08
  -4   7   5   -0.06    0.06
  -4   7   5    0.03    0.08
   3  -7  -5    2.45    0.21
  -3  -7   5    2.47    0.19
  -3  -7   5    1.87    0.21
  -3   7   5    1.91    0.22
  -3   7   5    2.30    0.19
   3   7  -5    2.13    0.23
   2  -7  -5    0.17    0.08
  -2  -7   5    0.06    0.07
  -2  -7   5    0.03    0.06
  -2   7   5    0.09    0.07
   2   7  -5    0.18    0.08
  -2   7   5    0.17    0.07
  -1  -7   5    8.62    0.30
   1  -7  -5    8.35    0.22
   1  -7  -5    8.35    0.31
  -1  -7   5    8.47    0.28
   1   7  -5    8.31    0.30
  -1   7   5    8.77    0.32
   1   7  -5    8.06    0.24
  -1   7   5    8.22    0.26
   0  -7   5    5.07    0.23
   0  -7   5    5.03    0.20
   0  -7  -5    5.27    0.24
   0   7   5    5.00    0.24
   0   7   5    5.50    0.21
   0   7  -5    5.44    0.22
   0   7   5    5.20    0.14
   0   7  -5    5.13    0.22
   1  -7   5    8.32    0.24
  -1  -7  -5    8.28    0.31
   1  -7   5    8.56    0.32
  -1   7  -5    8.86    0.26
   1   7   5    8.10    0.31
   1   7   5    8.03    0.30
  -1   7  -5    8.29    0.31
   2  -7   5    1.72    0.12
  -2  -7  -5    1.43    0.17
   2  -7   5    1.37    0.18
  -2   7  -5    1.38    0.13
  -2   7  -5    1.55    0.19
   2   7   5    1.21    0.16
   2   7   5    1.69    0.19
   3  -7   5    0.30    0.11
  -3  -7  -5    0.19    0.09
   3   7   5    0.10    0.09
  -3   7  -5    0.08    0.08
   3   7   5    0.36    0.11
   4  -7   5    0.02    0.09
  -4  -7  -5    0.00    0.08
   4   7   5   -0.10    0.06
  -4   7  -5    0.05    0.09
   4   7   5    0.10    0.11
   4  -8  -5    0.00    0.07
  -4  -8   5   -0.03    0.09
  -4   8   5   -0.06    0.06
  -4   8   5    0.01    0.08
   4   8  -5    0.04    0.09
   3  -8  -5    1.87    0.22
  -3  -8   5    1.31    0.19
  -3  -8   5    1.26    0.16
  -3   8   5    1.63    0.20
   3   8  -5    1.61    0.22
  -3   8   5    1.67    0.20
  -2  -8   5    7.81    0.33
   2  -8  -5    7.87    0.34
  -2  -8   5    7.54    0.30
  -2   8   5    7.70    0.33
   2   8  -5    7.41    0.33
  -2   8   5    7.30    0.30
  -1  -8   5    0.42    0.10
   1  -8  -5    0.23    0.09
   1  -8  -5    0.29    0.06
  -1  -8   5    0.27    0.08
  -1   8   5    0.24    0.06
   1   8  -5    0.26    0.07
  -1   8   5    0.40    0.11
   1   8  -5    0.41    0.10
   0  -8   5    0.46    0.10
   0  -8   5    0.63    0.10
   0  -8  -5    0.43    0.11
   0   8   5    0.47    0.09
   0   8  -5    0.52    0.10
   0   8  -5    0.51    0.10
   0   8   5    0.57    0.11
   1  -8   5    0.24    0.07
  -1  -8  -5    0.17    0.08
   1  -8   5    0.14    0.07
  -1   8  -5    0.14    0.08
  -1   8  -5    0.20    0.06
   1   8   5    0.13    0.07
   1   8   5    0.30    0.09
   2  -8   5    0.00    0.07
  -2  -8  -5    0.07    0.07
   2  -8   5    0.01    0.05
   2   8   5    0.09    0.08
  -2   8  -5   -0.06    0.06
   2   8   5    0.11    0.09
  -3  -8  -5    0.25    0.11
   3  -8   5    0.50    0.14
  -3   8  -5    0.22    0.10
   3   8   5    0.41    0.12
   3   8   5    0.08    0.09
  -4  -8  -5   -0.01    0.09
   4  -8   5    0.06    0.10
  -4   8  -5   -0.03    0.09
   4   8   5    0.02    0.10
  -4  -9   5   -0.01    0.08
   4  -9  -5    0.10    0.10
   4   9  -5    0.01    0.09
  -4   9   5    0.01    0.09
  -4   9   5   -0.01    0.09
   3  -9  -5    0.53    0.14
  -3  -9   5    0.20    0.10
  -3  -9   5    0.40    0.11
   3   9  -5    0.52    0.13
  -3   9   5    0.47    0.13
  -3   9   5    0.65    0.14
  -2  -9   5    2.54    0.24
  -2  -9   5    1.92    0.19
   2  -9  -5    2.41    0.20
   2  -9  -5    2.17    0.18
  -2   9   5    1.84    0.21
   2   9  -5    2.18    0.22
  -2   9   5    2.14    0.17
  -1  -9   5    9.84    0.34
   1  -9  -5    9.13    0.37
  -1  -9   5    9.48    0.34
   1   9  -5    8.46    0.34
  -1   9   5    9.11    0.36
  -1   9   5    9.31    0.29
   1   9  -5    8.80    0.29
   0  -9   5    4.99    0.23
   0  -9  -5    4.97    0.27
   0  -9   5    5.11    0.25
   0   9  -5    5.05    0.25
   0   9  -5    4.99    0.23
   0   9   5    5.12    0.27
   0   9   5    4.64    0.21
   1  -9   5    0.11    0.07
  -1  -9  -5    0.10    0.08
   1  -9   5    0.15    0.07
   1   9   5    0.17    0.08
  -1   9  -5    0.11    0.06
   1   9   5    0.06    0.06
  -1   9  -5    0.16    0.08
  -2  -9  -5    0.11    0.09
   2  -9   5    0.14    0.09
   2  -9   5    0.25    0.07
  -2   9  -5    0.14    0.09
   2   9   5    0.07    0.08
   2   9   5    0.09    0.08
  -3  -9  -5   -0.01    0.08
   3  -9   5    0.06    0.09
  -3   9  -5    0.17    0.10
   3   9   5    0.10    0.09
   3   9   5   -0.15    0.06
  -4  -9  -5   -0.06    0.09
   4  -9   5   -0.03    0.09
  -4   9  -5    0.03    0.11
   4   9   5   -0.05    0.10
  -4 -10   5    0.12    0.10
   4 -10  -5   -0.06    0.07
  -4  10   5    0.20    0.11
   4  10  -5    0.07    0.10
  -4  10   5    0.20    0.11
  -3 -10   5    0.46    0.14
   3 -10  -5    0.65    0.15
   3  10  -5    0.31    0.12
  -3  10   5    0.61    0.15
  -3  10   5    0.63    0.13
  -2 -10   5    0.89    0.14
   2 -10  -5    1.02    0.15
   2 -10  -5    0.73    0.14
  -2 -10   5    0.71    0.14
  -2  10   5    0.84    0.13
   2  10  -5    0.49    0.13
  -2  10   5    0.92    0.16
  -1 -10   5    3.97    0.23
  -1 -10   5    3.48    0.21
   1 -10  -5    3.35    0.24
   1  10  -5    3.65    0.20
   1  10  -5    3.38    0.22
  -1  10   5    3.50    0.24
  -1  10   5    3.68    0.19
   0 -10   5    1.25    0.16
   0 -10  -5    1.28    0.19
   0 -10   5    1.38    0.17
   0  10  -5    1.51    0.18
   0  10   5    1.43    0.16
   0  10  -5    1.73    0.17
   0  10   5    1.09    0.16
  -1 -10  -5    0.89    0.16
   1 -10   5    0.57    0.12
   1 -10   5    0.69    0.11
   1  10   5    0.70    0.13
   1  10   5    1.26    0.18
  -1  10  -5    0.76    0.11
  -1  10  -5    0.65    0.13
   2 -10   5    0.86    0.18
  -2 -10  -5    1.02    0.17
   2  10   5    0.81    0.15
  -2  10  -5    0.81    0.16
   2  10   5    1.12    0.17
  -3 -10  -5    0.24    0.12
   3 -10   5    0.07    0.09
  -3  10  -5    0.03    0.08
   3  10   5   -0.04    0.08
   3  10   5    0.09    0.10
   4 -11  -5    0.14    0.13
  -4 -11   5   -0.14    0.07
  -4  11   5    0.07    0.09
   4  11  -5    0.04    0.11
  -4  11   5    0.05    0.10
  -3 -11   5   -0.07    0.07
   3 -11  -5    0.06    0.09
  -3  11   5    0.06    0.08
   3  11  -5   -0.02    0.10
  -3  11   5   -0.08    0.07
  -2 -11   5    0.26    0.11
   2 -11  -5    0.36    0.12
   2 -11  -5    0.33    0.10
  -2  11   5    0.17    0.10
   2  11  -5    0.24    0.10
  -2  11   5    0.08    0.07
  -1 -11   5    1.01    0.15
  -1 -11   5    1.01    0.16
   1 -11  -5    1.12    0.18
   1  11  -5    0.95    0.14
  -1  11   5    1.18    0.18
   1  11  -5    0.65    0.13
   0 -11  -5    2.91    0.23
   0 -11   5    3.52    0.23
   0 -11   5    3.56    0.22
   0  11   5    3.15    0.19
   0  11   5    3.42    0.25
   0  11  -5    3.21    0.22
   0  11  -5    3.42    0.21
   1 -11   5    1.51    0.20
   1 -11   5    1.34    0.16
  -1 -11  -5    1.25    0.19
   1  11   5    1.09    0.17
   1  11   5    1.22    0.18
  -1  11  -5    0.92    0.16
  -2 -11  -5    0.53    0.15
   2 -11   5    0.61    0.16
   2  11   5    0.69    0.16
   2  11   5    0.49    0.13
  -2  11  -5    0.58    0.15
  -3 -11  -5    0.04    0.09
   3 -11   5    0.10    0.10
  -3  11  -5    0.05    0.09
   3  11   5    0.05    0.09
   3  11   5   -0.08    0.08
  -3 -12   5    0.12    0.10
   3 -12  -5    0.11    0.09
  -3  12   5    0.07    0.10
   3  12  -5    0.02    0.11
  -3  12   5    0.15    0.09
   2 -12  -5    0.31    0.12
  -2 -12   5    0.26    0.11
   2  12  -5    0.18    0.10
  -2  12   5    0.32    0.12
  -1 -12   5    0.19    0.10
  -1 -12   5    0.17    0.08
   1 -12  -5    0.01    0.08
   1  12  -5    0.21    0.09
  -1  12   5    0.06    0.08
   1  12  -5    0.18    0.10
   0 -12   5    0.55    0.13
   0 -12   5    0.70    0.14
   0 -12  -5    0.40    0.13
   0  12  -5    0.51    0.14
   0  12   5    0.55    0.14
   0  12  -5    0.53    0.12
   1 -12   5    0.06    0.08
   1 -12   5   -0.04    0.07
  -1 -12  -5   -0.01    0.08
   1  12   5    0.07    0.09
  -1  12  -5    0.11    0.10
   1  12   5    0.05    0.08
  -2 -12  -5    0.80    0.18
   2 -12   5    0.54    0.15
  -2  12  -5    0.44    0.14
   2  12   5    0.84    0.18
   2  12   5    0.85    0.16
  -3 -12  -5    0.12    0.11
   3 -12   5    0.05    0.10
   3  12   5    0.24    0.13
  -3  12  -5    0.35    0.14
   3  12   5    0.11    0.10
  -3 -13   5   -0.12    0.08
   3 -13  -5   -0.06    0.07
  -3  13   5   -0.12    0.08
   3  13  -5   -0.13    0.09
  -3  13   5    0.19    0.11
   2 -13  -5    0.91    0.18
  -2 -13   5    1.10    0.20
  -2  13   5    0.57    0.16
   2  13  -5    0.68    0.17
   1 -13  -5    0.23    0.10
  -1 -13   5    0.13    0.10
   1  13  -5   -0.01    0.08
  -1  13   5    0.18    0.11
   0 -13   5    0.10    0.10
   0 -13   5    0.12    0.07
   0 -13  -5    0.00    0.09
   0  13  -5    0.02    0.09
   0  13  -5    0.04    0.08
   0  13   5   -0.06    0.09
  -1 -13  -5    0.05    0.09
   1 -13   5    0.07    0.08
   1 -13   5    0.09    0.09
   1  13   5   -0.09    0.07
  -1  13  -5   -0.01    0.07
   1  13   5    0.01    0.08
   2 -13   5    0.06    0.09
  -2 -13  -5    0.06    0.11
   2  13   5    0.03    0.10
  -2  13  -5    0.06    0.11
   2  13   5    0.00    0.10
   2 -14  -5    0.02    0.08
  -2 -14   5    0.07    0.09
   2  14  -5    0.00    0.10
  -2  14   5   -0.02    0.10
  -1 -14   5    0.25    0.12
   1 -14  -5    0.22    0.12
   1  14  -5    0.28    0.11
  -1  14   5    0.32    0.13
   0 -14   5    0.25    0.12
   0 -14  -5    0.30    0.14
   0  14   5    0.26    0.13
   0  14  -5    0.21    0.12
   1 -14   5    0.07    0.09
  -1 -14  -5    0.11    0.10
   1  14   5   -0.02    0.12
   1  14   5   -0.02    0.08
  -1  14  -5   -0.11    0.10
   2 -14   5    0.03    0.10
  -2 -14  -5    0.08    0.11
   2  14   5    0.07    0.13
   2  14   5    0.13    0.12
  -2  14  -5   -0.05    0.09
   1 -15  -5    0.16    0.12
  -1 -15   5    0.17    0.13
   1  15  -5    0.17    0.12
  -1  15   5    0.23    0.14
   0 -15   5    0.27    0.13
   0 -15  -5    0.34    0.15
   0  15   5    0.23    0.14
   0  15  -5    0.29    0.14
   1 -15   5   -0.04    0.09
  -1 -15  -5   -0.05    0.09
   1  15   5    0.03    0.12
  -1  15  -5   -0.24    0.10
   5   0  -6    7.67    0.42
  -5   0   6    7.67    0.42
   4   0  -6    1.78    0.21
   4   0  -6    1.86    0.15
  -4   0   6    2.08    0.24
  -3   0   6    0.38    0.10
   3   0  -6    0.25    0.07
   3   0  -6    0.32    0.09
   2   0  -6    1.95    0.13
   2   0  -6    2.15    0.13
  -2   0   6    2.08    0.08
  -2   0   6    1.95    0.15
   1   0  -6    5.80    0.19
  -1   0   6    5.86    0.15
   1   0  -6    5.82    0.18
  -1   0   6    5.19    0.20
   0   0   6   31.15    0.52
   0   0  -6   32.17    0.54
   0   0  -6   32.84    0.44
   0   0   6   32.93    0.54
  -1   0  -6   23.06    0.46
  -1   0  -6   22.33    0.32
   1   0   6   22.90    0.44
   1   0   6   22.75    0.46
   2   0   6   17.17    0.41
  -2   0  -6   16.14    0.33
  -2   0  -6   17.19    0.42
  -3   0  -6    6.17    0.28
   3   0   6    5.73    0.29
   3   0   6    6.08    0.27
  -3   0  -6    5.92    0.23
   4   0   6    0.08    0.08
   4   0   6   -0.02    0.08
  -4   0  -6    0.14    0.09
   5   0   6   -0.16    0.09
  -5   0  -6   -0.01    0.07
  -5  -1   6    0.67    0.17
   5  -1  -6    0.38    0.14
  -5   1   6    0.72    0.17
   5   1  -6    0.63    0.16
   4  -1  -6    6.55    0.34
  -4  -1   6    7.50    0.36
  -4   1   6    7.09    0.35
   4   1  -6    6.93    0.29
   4   1  -6    7.07    0.35
   3  -1  -6    4.60    0.20
  -3  -1   6    4.71    0.25
   3  -1  -6    5.13    0.26
  -3   1   6    5.29    0.27
  -3   1   6    5.00    0.17
   3   1  -6    4.68    0.22
   3   1  -6    4.85    0.25
  -2  -1   6    4.06    0.08
   2  -1  -6    3.78    0.19
   2  -1  -6    4.22    0.16
  -2  -1   6    4.05    0.20
  -2   1   6    3.72    0.19
   2   1  -6    3.60    0.17
  -2   1   6    4.19    0.14
   2   1  -6    3.69    0.18
  -1  -1   6    3.04    0.15
   1  -1  -6    3.17    0.14
  -1  -1   6    3.26    0.10
   1  -1  -6    3.36    0.14
  -1   1   6    3.22    0.12
   1   1  -6    3.03    0.15
   1   1  -6    3.17    0.13
  -1   1   6    3.01    0.15
   0  -1  -6    8.04    0.23
   0  -1   6    8.10    0.24
   0  -1   6    8.31    0.22
   0  -1  -6    8.59    0.19
   0   1  -6    8.20    0.14
   0   1   6    8.05    0.22
   0   1   6    7.85    0.21
   0   1  -6    8.43    0.24
  -1  -1  -6    1.25    0.11
  -1  -1  -6    1.10    0.07
   1  -1   6    1.23    0.10
   1  -1   6    1.31    0.13
  -1   1  -6    1.34    0.13
   1   1   6    1.20    0.09
   1   1   6    1.15    0.12
  -1   1  -6    1.22    0.04
  -2  -1  -6    2.46    0.17
   2  -1   6    2.65    0.17
   2  -1   6    2.45    0.17
  -2  -1  -6    2.47    0.13
   2   1   6    2.48    0.15
  -2   1  -6    2.33    0.11
  -2   1  -6    2.60    0.16
   2   1   6    2.57    0.17
   3  -1   6    9.61    0.37
  -3  -1  -6   10.61    0.32
   3  -1   6    9.28    0.35
  -3  -1  -6   10.03    0.36
   3  -1   6    9.46    0.28
  -3   1  -6   10.14    0.35
   3   1   6    9.88    0.34
   3   1   6   10.20    0.38
   4  -1   6    0.05    0.09
   4  -1   6    0.01    0.08
  -4  -1  -6    0.02    0.08
  -4   1  -6    0.01    0.06
   4   1   6    0.02    0.08
   4   1   6   -0.01    0.08
  -5  -1  -6   -0.07    0.08
   5  -1   6    0.10    0.11
   5   1   6   -0.01    0.11
  -5   1  -6   -0.02    0.08
   5  -2  -6    0.79    0.18
  -5  -2   6    0.65    0.16
   5   2  -6    0.43    0.15
   5   2  -6    0.63    0.14
  -5   2   6    0.59    0.16
  -4  -2   6    1.46    0.20
   4  -2  -6    1.00    0.17
  -4   2   6    1.10    0.18
   4   2  -6    1.32    0.17
   4   2  -6    1.23    0.18
   3  -2  -6    0.95    0.14
   3  -2  -6    0.82    0.10
  -3  -2   6    0.93    0.14
   3   2  -6    0.91    0.14
  -3   2   6    0.83    0.14
   3   2  -6    0.87    0.12
  -3   2   6    0.76    0.09
  -2  -2   6    0.99    0.12
   2  -2  -6    1.14    0.13
   2  -2  -6    1.22    0.09
   2   2  -6    1.50    0.15
  -2   2   6    1.11    0.13
  -2   2   6    1.20    0.09
   2   2  -6    1.19    0.13
  -1  -2   6    4.30    0.19
   1  -2  -6    4.18    0.17
  -1  -2   6    4.41    0.12
   1  -2  -6    4.16    0.15
  -1   2   6    4.41    0.17
   1   2  -6    4.39    0.16
  -1   2   6    4.26    0.16
   1   2  -6    4.48    0.18
   0  -2  -6    0.82    0.09
   0  -2   6    0.80    0.04
   0  -2   6    0.60    0.09
   0  -2   6    0.76    0.08
   0  -2  -6    0.72    0.07
   0   2  -6    0.88    0.10
   0   2   6    0.62    0.08
   0   2   6    0.71    0.08
  -1  -2  -6    0.94    0.12
  -1  -2  -6    0.90    0.08
   1  -2   6    1.04    0.12
   1  -2   6    0.84    0.11
  -1   2  -6    1.01    0.11
   1   2   6    0.84    0.11
   1   2   6    0.93    0.07
  -2  -2  -6   -0.02    0.03
  -2  -2  -6   -0.06    0.04
   2  -2   6   -0.02    0.02
   2  -2   6    0.03    0.05
   2  -2   6    0.03    0.05
  -2   2  -6    0.03    0.05
   2   2   6    0.01    0.03
   2   2   6    0.05    0.05
   3  -2   6    1.47    0.18
  -3  -2  -6    1.58    0.18
   3  -2   6    1.69    0.12
  -3  -2  -6    1.34    0.15
   3  -2   6    1.76    0.20
   3   2   6    1.52    0.19
  -3   2  -6    1.33    0.16
   3   2   6    1.60    0.14
  -4  -2  -6    1.05    0.16
   4  -2   6    1.21    0.19
  -4  -2  -6    1.06    0.18
  -4   2  -6    0.92    0.15
   4   2   6    1.06    0.18
  -4   2  -6    0.86    0.16
   5  -2   6    0.11    0.11
  -5  -2  -6    0.08    0.09
  -5   2  -6    0.11    0.10
   5   2   6   -0.01    0.09
  -5  -3   6    0.79    0.17
   5  -3  -6    0.59    0.16
   5   3  -6    0.23    0.10
  -5   3   6    0.29    0.12
   5   3  -6    0.42    0.14
   4  -3  -6   -0.06    0.06
  -4  -3   6    0.11    0.09
   4   3  -6    0.03    0.07
   4   3  -6    0.01    0.07
  -4   3   6    0.07    0.08
   3  -3  -6    2.55    0.12
  -3  -3   6    2.61    0.19
   3  -3  -6    2.31    0.19
   3   3  -6    2.53    0.19
   3   3  -6    2.65    0.18
  -3   3   6    2.18    0.18
  -3   3   6    2.63    0.15
   2  -3  -6    0.35    0.06
  -2  -3   6    0.49    0.10
   2  -3  -6    0.25    0.07
   2   3  -6    0.57    0.10
   2   3  -6    0.44    0.09
  -2   3   6    0.39    0.08
  -2   3   6    0.27    0.06
   1  -3  -6   19.62    0.41
  -1  -3   6   19.78    0.44
   1  -3  -6   19.30    0.36
   1   3  -6   19.38    0.37
   1   3  -6   19.76    0.31
  -1   3   6   19.44    0.40
   1   3  -6   19.60    0.43
  -1   3   6   19.41    0.40
   0  -3   6   -0.01    0.03
   0  -3  -6    0.00    0.03
   0  -3   6    0.05    0.05
   0  -3  -6    0.01    0.04
   0  -3   6   -0.01    0.02
   0   3   6   -0.01    0.03
   0   3  -6   -0.02    0.04
   0   3   6   -0.03    0.04
   1  -3   6    0.86    0.11
  -1  -3  -6    0.74    0.10
  -1  -3  -6    0.91    0.10
   1  -3   6    0.63    0.10
   1   3   6    0.61    0.10
  -1   3  -6    0.75    0.10
   1   3   6    0.76    0.06
   2  -3   6    0.51    0.11
  -2  -3  -6    0.44    0.10
  -2  -3  -6    0.40    0.08
   2  -3   6    0.23    0.08
   2  -3   6    0.41    0.05
   2   3   6    0.16    0.08
   2   3   6    0.40    0.09
   2   3   6    0.47    0.07
  -2   3  -6    0.18    0.07
  -3  -3  -6    5.19    0.24
   3  -3   6    4.64    0.26
   3   3   6    5.25    0.27
   3   3   6    4.78    0.21
  -3   3  -6    5.08    0.28
  -3   3  -6    4.70    0.23
   3   3   6    4.97    0.27
  -4  -3  -6    0.24    0.09
  -4  -3  -6    0.14    0.09
   4  -3   6    0.13    0.10
   4   3   6    0.24    0.12
  -4   3  -6    0.07    0.08
   4   3   6    0.18    0.11
  -5  -3  -6    0.20    0.10
   5  -3   6   -0.04    0.10
  -5   3  -6    0.02    0.08
   5   3   6   -0.07    0.09
   5  -4  -6    0.20    0.10
  -5  -4   6    0.28    0.13
  -5   4   6    0.36    0.13
   5   4  -6    0.16    0.12
   5   4  -6    0.31    0.13
   4  -4  -6    0.74    0.16
  -4  -4   6    0.74    0.15
  -4   4   6    0.91    0.17
   4   4  -6    0.66    0.14
   4   4  -6    0.87    0.15
   3  -4  -6    0.82    0.14
  -3  -4   6    1.08    0.16
  -3   4   6    0.91    0.12
   3   4  -6    0.87    0.14
  -3   4   6    0.58    0.12
   3   4  -6    0.86    0.14
   2  -4  -6    0.45    0.06
   2  -4  -6    0.43    0.09
  -2  -4   6    0.21    0.08
  -2   4   6    0.67    0.11
  -2   4   6    0.42    0.08
   2   4  -6    0.52    0.10
   2   4  -6    0.51    0.10
   1  -4  -6    3.00    0.16
  -1  -4   6    3.08    0.17
   1  -4  -6    3.14    0.13
  -1  -4   6    2.91    0.14
   1   4  -6    2.83    0.11
  -1   4   6    3.18    0.16
   1   4  -6    2.71    0.16
  -1   4   6    2.93    0.15
   0  -4   6    2.91    0.10
   0  -4  -6    2.80    0.14
   0  -4   6    2.94    0.17
   0  -4  -6    2.88    0.15
   0   4  -6    2.94    0.15
   0   4  -6    2.73    0.14
   0   4   6    2.92    0.11
   0   4   6    3.12    0.16
  -1  -4  -6    0.25    0.07
   1  -4   6    0.30    0.04
  -1  -4  -6    0.26    0.08
   1  -4   6    0.28    0.08
   1   4   6    0.21    0.03
   1   4   6    0.20    0.07
  -1   4  -6    0.22    0.06
  -1   4  -6    0.28    0.08
   2  -4   6    0.75    0.07
   2  -4   6    0.53    0.11
  -2  -4  -6    0.51    0.09
  -2   4  -6    0.36    0.10
   2   4   6    0.57    0.11
  -2   4  -6    0.49    0.09
   2   4   6    0.65    0.07
   2   4   6    0.36    0.09
   3  -4   6    0.18    0.08
  -3  -4  -6    0.55    0.11
  -3   4  -6    0.36    0.09
   3   4   6    0.49    0.12
   3   4   6    0.39    0.11
  -3   4  -6    0.53    0.12
  -4  -4  -6    0.03    0.08
   4  -4   6   -0.02    0.07
  -4   4  -6    0.04    0.08
   4   4   6   -0.03    0.07
   4   4   6    0.05    0.08
  -5  -5   6    0.02    0.09
   5  -5  -6   -0.01    0.08
   5   5  -6   -0.07    0.07
   5   5  -6    0.13    0.11
  -5   5   6   -0.05    0.09
  -4  -5   6    2.35    0.24
   4  -5  -6    2.00    0.24
   4   5  -6    2.00    0.23
  -4   5   6    2.33    0.27
   4   5  -6    1.87    0.23
  -4   5   6    1.83    0.19
  -3  -5   6    0.11    0.08
   3  -5  -6    0.22    0.10
  -3   5   6    0.12    0.06
  -3   5   6    0.04    0.06
   3   5  -6    0.11    0.08
   3   5  -6    0.01    0.06
   2  -5  -6    0.98    0.07
  -2  -5   6    1.16    0.14
  -2  -5   6    1.10    0.14
   2  -5  -6    1.15    0.14
  -2   5   6    0.73    0.11
   2   5  -6    0.86    0.13
  -2   5   6    1.28    0.14
  -1  -5   6   -0.02    0.05
   1  -5  -6    0.09    0.04
   1  -5  -6    0.10    0.06
  -1  -5   6    0.06    0.04
  -1   5   6    0.07    0.04
   1   5  -6    0.08    0.06
  -1   5   6    0.07    0.05
   1   5  -6    0.05    0.03
   0  -5   6    1.88    0.14
   0  -5  -6    1.64    0.13
   0  -5  -6    1.83    0.12
   0  -5   6    1.71    0.09
   0   5   6    1.86    0.09
   0   5  -6    1.72    0.12
   0   5   6    1.72    0.13
   0   5  -6    1.75    0.13
   1  -5   6    0.69    0.12
   1  -5   6    0.84    0.06
  -1  -5  -6    0.82    0.11
   1   5   6    0.86    0.12
  -1   5  -6    0.95    0.13
   1   5   6    0.62    0.11
  -1   5  -6    0.54    0.09
   2  -5   6    5.08    0.17
  -2  -5  -6    5.53    0.24
   2  -5   6    6.07    0.29
   2   5   6    5.64    0.26
  -2   5  -6    5.76    0.28
   2   5   6    5.66    0.27
  -2   5  -6    5.38    0.21
  -3  -5  -6    0.56    0.12
   3  -5   6    0.25    0.10
   3   5   6    0.61    0.12
   3   5   6    0.45    0.12
  -3   5  -6    0.41    0.11
  -4  -5  -6    0.01    0.06
   4  -5   6    0.05    0.09
   4   5   6   -0.05    0.08
  -4   5  -6    0.07    0.08
   4   5   6    0.05    0.10
   5  -6  -6    0.74    0.19
  -5  -6   6    0.51    0.15
  -5  -6   6    0.58    0.16
  -5   6   6    0.43    0.15
   5   6  -6    0.43    0.16
  -4  -6   6    0.14    0.10
   4  -6  -6    0.28    0.12
  -4  -6   6    0.35    0.13
  -4   6   6    0.16    0.08
  -4   6   6    0.20    0.11
   4   6  -6    0.34    0.12
  -3  -6   6    0.03    0.08
  -3  -6   6    0.08    0.08
   3  -6  -6    0.10    0.08
  -3   6   6    0.11    0.07
   3   6  -6   -0.03    0.06
  -3   6   6    0.13    0.09
   2  -6  -6    0.77    0.13
  -2  -6   6    1.00    0.13
  -2  -6   6    0.80    0.12
  -2   6   6    0.67    0.11
  -2   6   6    0.70    0.12
   2   6  -6    0.79    0.13
   1  -6  -6    1.09    0.14
  -1  -6   6    1.37    0.16
   1  -6  -6    1.25    0.09
  -1  -6   6    1.33    0.11
  -1   6   6    1.25    0.12
   1   6  -6    1.21    0.09
   1   6  -6    1.06    0.13
  -1   6   6    1.24    0.14
   0  -6   6    1.47    0.10
   0  -6  -6    1.60    0.13
   0  -6   6    1.14    0.14
   0  -6  -6    1.31    0.13
   0   6   6    1.36    0.08
   0   6  -6    1.52    0.13
   0   6   6    1.24    0.14
   0   6  -6    1.08    0.11
   1  -6   6    0.40    0.06
  -1  -6  -6    0.66    0.12
   1  -6   6    0.43    0.11
   1   6   6    0.40    0.10
  -1   6  -6    0.48    0.09
   1   6   6    0.36    0.09
  -1   6  -6    0.38    0.09
  -2  -6  -6    0.09    0.07
   2  -6   6    0.00    0.07
  -2   6  -6    0.05    0.06
   2   6   6    0.14    0.08
  -2   6  -6    0.04    0.07
   2   6   6   -0.02    0.05
  -3  -6  -6   -0.10    0.05
   3  -6   6    0.00    0.07
   3   6   6   -0.08    0.06
  -3   6  -6    0.08    0.08
   3   6   6    0.02    0.07
  -4  -6  -6    0.10    0.09
   4  -6   6    0.07    0.09
   4   6   6   -0.01    0.06
  -4   6  -6   -0.02    0.07
   4   6   6   -0.07    0.08
  -5  -7   6    0.24    0.12
   5  -7  -6    0.07    0.11
   5   7  -6    0.36    0.14
  -5   7   6    0.33    0.15
   4  -7  -6    0.01    0.07
  -4  -7   6    0.04    0.08
  -4  -7   6   -0.09    0.07
  -4   7   6    0.02    0.08
  -4   7   6    0.09    0.10
   4   7  -6    0.12    0.09
  -3  -7   6   -0.06    0.06
  -3  -7   6   -0.05    0.06
   3  -7  -6    0.03    0.07
  -3   7   6    0.10    0.09
  -3   7   6   -0.10    0.06
   3   7  -6    0.01    0.07
   2  -7  -6    1.91    0.20
  -2  -7   6    2.12    0.21
  -2  -7   6    1.98    0.17
  -2   7   6    1.98    0.17
   2   7  -6    1.96    0.21
  -2   7   6    1.87    0.16
  -1  -7   6    0.15    0.07
   1  -7  -6    0.15    0.07
   1  -7  -6    0.11    0.05
  -1  -7   6    0.14    0.06
   1   7  -6    0.27    0.09
  -1   7   6    0.26    0.08
  -1   7   6    0.19    0.06
   1   7  -6    0.22    0.06
   0  -7  -6    3.24    0.17
   0  -7   6    3.62    0.21
   0  -7  -6    3.31    0.20
   0  -7   6    3.55    0.16
   0   7   6    3.56    0.12
   0   7  -6    3.35    0.19
   0   7  -6    3.70    0.19
   0   7   6    3.45    0.20
   1  -7   6    0.04    0.04
   1  -7   6    0.03    0.06
  -1  -7  -6    0.00    0.05
  -1   7  -6   -0.02    0.05
   1   7   6    0.12    0.07
  -1   7  -6    0.03    0.06
   1   7   6   -0.10    0.04
  -2  -7  -6    0.07    0.07
   2  -7   6    0.01    0.06
   2   7   6    0.09    0.07
   2   7   6    0.11    0.09
  -2   7  -6    0.07    0.06
  -2   7  -6    0.07    0.08
  -3  -7  -6    0.58    0.13
   3  -7   6    0.47    0.13
   3   7   6    0.68    0.15
  -3   7  -6    0.52    0.13
   3   7   6    0.51    0.13
   4  -7   6    0.06    0.11
  -4  -7  -6    0.19    0.12
   4   7   6    0.07    0.10
  -4   7  -6   -0.01    0.08
   4   7   6   -0.14    0.09
  -4  -8   6   -0.09    0.08
   4  -8  -6    0.00    0.08
  -4  -8   6    0.01    0.08
   4   8  -6    0.02    0.09
  -4   8   6    0.10    0.08
  -4   8   6    0.06    0.09
  -3  -8   6    0.07    0.08
   3  -8  -6    0.09    0.08
  -3  -8   6    0.03    0.07
  -3   8   6    0.04    0.08
  -3   8   6    0.01    0.07
   3   8  -6    0.04    0.08
  -2  -8   6    2.76    0.20
  -2  -8   6    2.26    0.19
   2  -8  -6    2.74    0.21
  -2   8   6    2.72    0.19
   2   8  -6    3.03    0.22
  -2   8   6    2.42    0.19
  -1  -8   6    6.58    0.29
   1  -8  -6    5.90    0.28
  -1  -8   6    6.76    0.26
   1  -8  -6    6.17    0.21
   1   8  -6    6.39    0.29
   1   8  -6    6.40    0.23
  -1   8   6    6.05    0.28
  -1   8   6    6.12    0.23
   0  -8   6   21.61    0.47
   0  -8  -6   22.48    0.56
   0  -8  -6   21.81    0.49
   0  -8   6   21.34    0.55
   0   8  -6   22.10    0.51
   0   8   6   21.38    0.55
   0   8   6   21.64    0.48
   0   8  -6   22.08    0.52
  -1  -8  -6    0.82    0.14
   1  -8   6    1.25    0.17
   1  -8   6    1.15    0.12
  -1   8  -6    1.14    0.13
  -1   8  -6    1.07    0.15
   1   8   6    1.42    0.17
   1   8   6    1.46    0.17
  -2  -8  -6    0.03    0.08
   2  -8   6    0.05    0.08
  -2   8  -6    0.08    0.08
   2   8   6   -0.04    0.05
   2   8   6    0.05    0.07
   3  -8   6    0.29    0.12
  -3  -8  -6    0.32    0.11
   3   8   6    0.33    0.11
   3   8   6    0.26    0.11
  -3   8  -6    0.19    0.11
  -4  -8  -6    0.01    0.09
   4  -8   6    0.00    0.10
   4   8   6    0.11    0.10
   4   8   6   -0.03    0.09
  -4   8  -6    0.00    0.08
   4  -9  -6    0.06    0.10
  -4  -9   6   -0.03    0.08
  -4   9   6   -0.08    0.08
   4   9  -6   -0.11    0.08
  -4   9   6    0.03    0.09
   3  -9  -6    0.39    0.12
  -3  -9   6    0.58    0.13
  -3  -9   6    0.40    0.12
   3   9  -6    0.54    0.14
  -3   9   6    0.46    0.13
  -3   9   6    0.21    0.10
  -2  -9   6   12.94    0.42
   2  -9  -6   12.61    0.45
  -2  -9   6   11.98    0.43
  -2   9   6   12.64    0.41
   2   9  -6   12.47    0.45
  -2   9   6   12.23    0.45
   1  -9  -6   27.03    0.66
  -1  -9   6   25.76    0.60
  -1  -9   6   26.58    0.62
   1   9  -6   26.13    0.63
   1   9  -6   25.76    0.54
  -1   9   6   26.80    0.54
  -1   9   6   25.71    0.65
   0  -9   6   -0.02    0.06
   0  -9   6    0.00    0.06
   0  -9  -6   -0.02    0.07
   0   9  -6    0.07    0.06
   0   9  -6    0.01    0.06
   0   9   6    0.06    0.07
   0   9   6   -0.01    0.06
  -1  -9  -6    2.21    0.23
   1  -9   6    2.33    0.20
   1  -9   6    1.96    0.14
   1   9   6    2.14    0.22
  -1   9  -6    1.92    0.21
   1   9   6    1.86    0.19
  -1   9  -6    2.01    0.15
  -2  -9  -6    0.19    0.10
   2  -9   6    0.01    0.07
   2   9   6   -0.02    0.06
   2   9   6   -0.05    0.06
  -2   9  -6   -0.06    0.06
  -3  -9  -6    0.13    0.10
   3  -9   6    0.18    0.11
  -3   9  -6    0.14    0.11
   3   9   6    0.38    0.13
   3   9   6    0.17    0.10
   4  -9   6    0.40    0.16
  -4  -9  -6    0.24    0.13
  -4   9  -6    0.08    0.11
   4   9   6    0.34    0.15
   4 -10  -6    0.05    0.09
  -4 -10   6   -0.06    0.08
  -4  10   6    0.05    0.08
   4  10  -6   -0.06    0.10
  -4  10   6    0.00    0.08
  -3 -10   6    0.00    0.08
   3 -10  -6    0.16    0.10
   3  10  -6   -0.02    0.08
  -3  10   6   -0.02    0.08
  -3  10   6   -0.01    0.08
   2 -10  -6    6.34    0.34
  -2 -10   6    6.68    0.31
  -2 -10   6    5.76    0.31
   2  10  -6    7.50    0.36
  -2  10   6    6.38    0.34
  -2  10   6    6.16    0.29
  -1 -10   6    1.47    0.18
  -1 -10   6    1.29    0.17
   1 -10  -6    0.92    0.16
  -1  10   6    1.42    0.19
   1  10  -6    1.06    0.17
   1  10  -6    1.17    0.14
   0 -10   6   21.10    0.57
   0 -10  -6   21.23    0.60
   0 -10   6   20.39    0.50
   0  10  -6   20.86    0.53
   0  10  -6   21.16    0.55
   0  10   6   20.79    0.59
   0  10   6   21.08    0.50
   1 -10   6    0.10    0.06
  -1 -10  -6    0.29    0.11
   1 -10   6    0.30    0.10
   1  10   6    0.19    0.10
  -1  10  -6    0.26    0.09
  -1  10  -6    0.47    0.13
   1  10   6    0.49    0.12
   2 -10   6    0.15    0.09
  -2 -10  -6    0.19    0.11
  -2  10  -6    0.19    0.11
   2  10   6    0.01    0.08
   2  10   6    0.04    0.08
  -3 -10  -6    0.75    0.18
   3 -10   6    0.56    0.16
   3  10   6    0.98    0.19
  -3  10  -6    0.95    0.19
   3  10   6    0.74    0.17
  -3 -11   6    0.23    0.12
   3 -11  -6    0.17    0.11
  -3  11   6    0.01    0.10
  -3  11   6    0.14    0.10
   3  11  -6    0.14    0.08
  -2 -11   6    0.02    0.07
   2 -11  -6    0.09    0.08
  -2 -11   6   -0.02    0.07
   2  11  -6    0.27    0.11
  -2  11   6    0.14    0.09
  -2  11   6    0.02    0.07
  -1 -11   6    0.70    0.13
   1 -11  -6    0.83    0.16
  -1 -11   6    0.78    0.14
  -1  11   6    0.95    0.17
   1  11  -6    0.67    0.12
   1  11  -6    0.63    0.13
   0 -11   6    2.03    0.17
   0 -11   6    1.81    0.21
   0 -11  -6    1.96    0.23
   0  11   6    2.29    0.25
   0  11  -6    1.99    0.20
   0  11  -6    2.31    0.23
   0  11   6    2.20    0.17
  -1 -11  -6    0.35    0.13
   1 -11   6    0.15    0.08
   1  11   6    0.26    0.10
   1  11   6    0.16    0.09
  -1  11  -6    0.25    0.10
  -2 -11  -6    0.49    0.14
   2 -11   6    0.42    0.14
  -2  11  -6    0.33    0.12
   2  11   6    0.31    0.11
   2  11   6    0.36    0.13
  -3 -11  -6   -0.17    0.07
   3 -11   6    0.09    0.08
   3  11   6    0.12    0.10
   3  11   6    0.14    0.11
  -3  11  -6    0.08    0.11
   3 -12  -6    0.65    0.17
  -3 -12   6    0.56    0.15
  -3  12   6    0.41    0.14
   3  12  -6    0.60    0.16
  -3  12   6    0.73    0.16
  -2 -12   6    0.17    0.11
   2 -12  -6    0.02    0.07
   2  12  -6    0.08    0.09
  -2  12   6    0.12    0.10
  -1 -12   6    0.65    0.15
   1 -12  -6    0.25    0.11
  -1 -12   6    0.63    0.13
  -1  12   6    0.24    0.12
   1  12  -6    0.43    0.12
   0 -12   6    0.20    0.10
   0 -12   6    0.17    0.09
   0 -12  -6    0.12    0.09
   0  12  -6    0.20    0.09
   0  12   6    0.17    0.11
   0  12  -6    0.27    0.10
   1 -12   6    1.85    0.24
  -1 -12  -6    1.52    0.22
  -1  12  -6    1.74    0.22
   1  12   6    1.43    0.19
   1  12   6    1.63    0.23
   2 -12   6    0.11    0.11
  -2 -12  -6   -0.06    0.07
   2  12   6    0.03    0.09
  -2  12  -6    0.11    0.11
   2  12   6    0.18    0.10
  -3 -12  -6    0.06    0.11
   3 -12   6    0.01    0.11
  -3  12  -6    0.12    0.12
   3  12   6   -0.01    0.11
   3  12   6    0.11    0.11
  -3 -13   6    0.15    0.13
   3 -13  -6   -0.02    0.09
   3  13  -6    0.19    0.14
  -3  13   6    0.03    0.11
  -2 -13   6    0.24    0.12
   2 -13  -6    0.30    0.11
   2  13  -6    0.24    0.11
  -2  13   6    0.13    0.11
   1 -13  -6    0.45    0.14
  -1 -13   6    0.44    0.13
  -1  13   6    0.20    0.11
   1  13  -6    0.47    0.12
   0 -13   6    0.56    0.13
   0 -13   6    0.57    0.13
   0 -13  -6    0.63    0.16
   0  13  -6    0.59    0.13
   0  13   6    0.64    0.16
   0  13  -6    0.63    0.15
  -1 -13  -6    0.28    0.12
   1 -13   6    0.26    0.12
   1  13   6    0.02    0.09
   1  13   6    0.04    0.10
  -1  13  -6    0.26    0.13
   2 -13   6   -0.11    0.08
  -2 -13  -6    0.16    0.12
   2  13   6    0.13    0.09
   2  13   6    0.15    0.11
  -2  13  -6   -0.07    0.10
   2 -14  -6    0.16    0.10
  -2 -14   6    0.34    0.14
   2  14  -6    0.28    0.13
  -2  14   6    0.29    0.14
  -1 -14   6   -0.08    0.08
   1 -14  -6   -0.13    0.07
  -1  14   6    0.19    0.11
   1  14  -6    0.13    0.10
   0 -14  -6    1.25    0.22
   0 -14   6    1.20    0.19
   0 -14   6    1.24    0.19
   0  14  -6    1.40    0.22
   0  14   6    1.57    0.25
  -1 -14  -6    0.25    0.14
   1 -14   6    0.33    0.13
   1  14   6    0.19    0.13
   1  14   6    0.16    0.10
  -1  14  -6    0.28    0.13
  -1 -15   6   -0.22    0.08
   1 -15  -6    0.03    0.10
   1  15  -6    0.04    0.09
  -1  15   6   -0.06    0.09
   0 -15  -6    0.05    0.10
   0  15  -6    0.18    0.12
   0  15   6   -0.07    0.11
  -5   0   7    0.10    0.11
   5   0  -7    0.10    0.09
  -4   0   7    0.04    0.08
   4   0  -7   -0.15    0.05
   4   0  -7    0.05    0.06
  -3   0   7   -0.07    0.05
   3   0  -7    0.02    0.05
   3   0  -7   -0.02    0.06
  -2   0   7    0.01    0.03
   2   0  -7   -0.05    0.04
  -2   0   7    0.00    0.05
   2   0  -7   -0.01    0.04
  -1   0   7   -0.03    0.04
   1   0  -7    0.02    0.04
  -1   0   7    0.06    0.03
   1   0  -7    0.00    0.03
   0   0   7    0.02    0.04
   0   0  -7   -0.01    0.04
   0   0  -7    0.00    0.02
   0   0   7    0.02    0.03
   1   0   7   -0.03    0.04
  -1   0  -7    0.01    0.05
  -1   0  -7    0.00    0.02
   1   0   7    0.03    0.04
   2   0   7   -0.05    0.04
   2   0   7    0.01    0.05
  -2   0  -7    0.03    0.03
  -2   0  -7    0.01    0.05
  -3   0  -7   -0.09    0.06
   3   0   7   -0.04    0.05
   3   0   7   -0.03    0.06
   4   0   7    0.11    0.11
   4   0   7    0.15    0.09
  -4   0  -7    0.08    0.09
   5  -1  -7    0.92    0.19
  -5  -1   7    0.71    0.18
   5   1  -7    0.99    0.20
  -5   1   7    0.59    0.17
   4  -1  -7    2.64    0.23
  -4  -1   7    2.60    0.27
   4   1  -7    2.80    0.23
   4   1  -7    2.60    0.19
  -4   1   7    2.56    0.27
   3  -1  -7    0.85    0.11
  -3  -1   7    0.63    0.12
   3  -1  -7    0.68    0.12
   3   1  -7    0.51    0.11
   3   1  -7    0.74    0.12
  -3   1   7    0.53    0.12
   2  -1  -7    1.67    0.13
   2  -1  -7    1.52    0.11
  -2  -1   7    1.31    0.15
  -2  -1   7    1.57    0.06
  -2   1   7    1.59    0.14
   2   1  -7    1.48    0.12
   2   1  -7    1.63    0.13
  -2   1   7    1.75    0.10
   1  -1  -7    9.64    0.25
  -1  -1   7    9.50    0.21
  -1  -1   7    9.23    0.29
   1  -1  -7    9.52    0.26
  -1   1   7    9.24    0.28
   1   1  -7    9.73    0.24
  -1   1   7    9.47    0.24
   1   1  -7    9.86    0.28
   0  -1   7   10.10    0.26
   0  -1  -7   10.17    0.28
   0  -1   7   10.25    0.29
   0  -1  -7    9.83    0.22
   0   1  -7   10.41    0.29
   0   1   7   10.08    0.26
   0   1   7   10.16    0.27
   0   1  -7   10.15    0.18
  -1  -1  -7    0.35    0.05
  -1  -1  -7    0.38    0.08
   1  -1   7    0.33    0.08
   1  -1   7    0.55    0.09
   1   1   7    0.38    0.08
   1   1   7    0.41    0.08
  -1   1  -7    0.32    0.08
  -2  -1  -7    0.44    0.07
   2  -1   7    0.38    0.09
  -2  -1  -7    0.38    0.10
   2  -1   7    0.43    0.10
   2   1   7    0.32    0.09
   2   1   7    0.39    0.08
  -2   1  -7    0.42    0.06
  -2   1  -7    0.57    0.10
   3  -1   7    1.79    0.19
   3  -1   7    1.66    0.20
  -3  -1  -7    1.73    0.14
  -3  -1  -7    1.58    0.18
  -3   1  -7    1.58    0.18
   3   1   7    1.84    0.16
   3   1   7    1.70    0.20
   4  -1   7    1.23    0.20
  -4  -1  -7    1.07    0.17
   4  -1   7    1.07    0.18
   4   1   7    1.62    0.22
  -4   1  -7    1.12    0.17
   4   1   7    1.06    0.16
  -5  -2   7    0.00    0.08
   5  -2  -7   -0.02    0.09
  -5   2   7    0.03    0.09
   5   2  -7   -0.02    0.07
   5   2  -7   -0.12    0.09
   4  -2  -7    1.21    0.19
  -4  -2   7    1.80    0.22
  -4   2   7    1.54    0.21
   4   2  -7    1.36    0.18
   4   2  -7    1.31    0.20
   3  -2  -7    0.36    0.10
   3  -2  -7    0.46    0.08
  -3  -2   7    0.87    0.14
   3   2  -7    0.52    0.10
  -3   2   7    0.67    0.13
  -3   2   7    0.50    0.08
   3   2  -7    0.55    0.12
  -2  -2   7    7.57    0.29
   2  -2  -7    6.88    0.26
   2  -2  -7    6.68    0.22
  -2   2   7    7.43    0.28
  -2   2   7    6.63    0.21
   2   2  -7    7.33    0.26
   2   2  -7    7.30    0.27
   1  -2  -7   31.52    0.55
  -1  -2   7   31.69    0.61
   1  -2  -7   31.31    0.54
  -1  -2   7   32.26    0.47
  -1   2   7   32.56    0.58
  -1   2   7   29.95    0.53
   1   2  -7   31.71    0.52
   1   2  -7   33.23    0.60
   0  -2   7   20.46    0.45
   0  -2  -7   20.07    0.42
   0  -2  -7   20.29    0.37
   0  -2   7   20.81    0.40
   0   2  -7   19.99    0.43
   0   2  -7   20.70    0.28
   0   2   7   20.09    0.42
   0   2   7   20.41    0.39
   1  -2   7    6.81    0.25
  -1  -2  -7    6.92    0.25
  -1  -2  -7    6.78    0.19
   1  -2   7    6.60    0.25
  -1   2  -7    6.38    0.23
   1   2   7    6.55    0.20
   1   2   7    7.17    0.26
   2  -2   7    1.36    0.16
   2  -2   7    1.51    0.16
  -2  -2  -7    1.29    0.10
  -2  -2  -7    1.58    0.17
  -2   2  -7    1.39    0.07
   2   2   7    1.31    0.11
   2   2   7    1.51    0.17
  -2   2  -7    1.31    0.15
   3  -2   7    3.89    0.24
  -3  -2  -7    3.37    0.19
   3  -2   7    3.08    0.23
  -3  -2  -7    3.13    0.22
   3   2   7    3.68    0.20
   3   2   7    3.33    0.23
  -3   2  -7    3.51    0.22
   4  -2   7    0.11    0.09
  -4  -2  -7    0.00    0.07
  -4   2  -7   -0.07    0.06
  -4   2  -7   -0.06    0.06
   4   2   7    0.00    0.08
  -5  -3   7   -0.07    0.08
   5  -3  -7   -0.03    0.08
  -5   3   7   -0.09    0.06
   5   3  -7   -0.03    0.09
   5   3  -7    0.03    0.09
  -4  -3   7    0.07    0.09
   4  -3  -7    0.24    0.10
   4   3  -7    0.04    0.09
   4   3  -7    0.19    0.10
  -4   3   7    0.23    0.12
   3  -3  -7    0.08    0.05
   3  -3  -7    0.16    0.08
  -3  -3   7    0.17    0.09
  -3   3   7    0.15    0.06
  -3   3   7    0.04    0.07
   3   3  -7    0.11    0.08
   3   3  -7    0.06    0.06
   2  -3  -7    0.54    0.08
   2  -3  -7    0.45    0.09
  -2  -3   7    0.43    0.10
  -2   3   7    0.35    0.09
   2   3  -7    0.59    0.10
   2   3  -7    0.50    0.10
  -2   3   7    0.63    0.09
  -1  -3   7   15.36    0.28
   1  -3  -7   15.72    0.34
  -1  -3   7   14.93    0.39
   1  -3  -7   15.15    0.36
  -1   3   7   15.20    0.36
   1   3  -7   14.99    0.32
  -1   3   7   14.99    0.35
   1   3  -7   15.17    0.39
   0  -3   7   23.93    0.45
   0  -3   7   23.60    0.34
   0  -3  -7   23.55    0.47
   0  -3  -7   23.74    0.44
   0  -3   7   23.69    0.51
   0   3  -7   24.20    0.49
   0   3   7   23.64    0.49
   0   3   7   23.33    0.42
  -1  -3  -7    0.09    0.06
   1  -3   7    0.03    0.04
  -1  -3  -7    0.06    0.04
   1  -3   7    0.08    0.06
   1   3   7    0.16    0.06
  -1   3  -7    0.06    0.05
   1   3   7    0.05    0.03
   2  -3   7   -0.01    0.06
  -2  -3  -7    0.06    0.06
   2  -3   7   -0.06    0.05
  -2  -3  -7    0.05    0.05
   2   3   7    0.03    0.04
  -2   3  -7    0.02    0.06
   2   3   7   -0.04    0.05
   3  -3   7    0.11    0.08
  -3  -3  -7    0.07    0.08
  -3  -3  -7    0.11    0.07
   3  -3   7    0.19    0.09
  -3   3  -7    0.27    0.10
   3   3   7    0.14    0.08
  -3   3  -7    0.12    0.08
  -4  -3  -7   -0.06    0.07
   4  -3   7   -0.03    0.09
   4   3   7    0.10    0.11
  -4   3  -7   -0.06    0.06
   5  -4  -7    0.11    0.11
  -5  -4   7   -0.15    0.08
  -5   4   7   -0.06    0.08
   5   4  -7   -0.14    0.07
   5   4  -7   -0.12    0.09
  -4  -4   7    0.19    0.10
   4  -4  -7    0.02    0.08
  -4   4   7    0.14    0.10
   4   4  -7    0.10    0.08
   4   4  -7    0.00    0.07
   3  -4  -7    0.15    0.08
  -3  -4   7    0.21    0.10
   3   4  -7    0.22    0.09
  -3   4   7    0.13    0.09
  -3   4   7    0.32    0.08
   3   4  -7    0.02    0.06
   2  -4  -7    1.99    0.16
   2  -4  -7    2.00    0.11
  -2  -4   7    1.81    0.15
   2   4  -7    2.10    0.16
   2   4  -7    2.24    0.16
  -2   4   7    1.94    0.13
  -1  -4   7   22.03    0.51
   1  -4  -7   22.06    0.42
  -1  -4   7   22.36    0.43
   1  -4  -7   22.57    0.48
   1   4  -7   22.28    0.49
  -1   4   7   21.28    0.45
   1   4  -7   21.72    0.37
  -1   4   7   22.44    0.48
   0  -4  -7    6.45    0.23
   0  -4   7    7.07    0.27
   0  -4  -7    6.39    0.22
   0  -4   7    6.53    0.16
   0   4   7    6.63    0.19
   0   4  -7    6.47    0.22
   0   4   7    6.79    0.25
   0   4  -7    6.37    0.24
   1  -4   7    2.19    0.15
  -1  -4  -7    2.39    0.14
   1  -4   7    3.01    0.18
  -1  -4  -7    2.25    0.16
  -1   4  -7    2.29    0.15
   1   4   7    3.17    0.18
   1   4   7    2.60    0.10
  -1   4  -7    2.56    0.16
  -2  -4  -7    1.63    0.16
   2  -4   7    1.46    0.17
  -2  -4  -7    1.46    0.18
  -2   4  -7    1.66    0.16
   2   4   7    1.62    0.18
  -2   4  -7    1.39    0.17
  -3  -4  -7    1.64    0.21
  -3  -4  -7    1.59    0.17
   3  -4   7    1.63    0.21
  -3   4  -7    1.71    0.20
   3   4   7    1.69    0.21
   3   4   7    1.43    0.19
  -3   4  -7    1.52    0.16
  -4  -4  -7    0.57    0.13
  -4  -4  -7    0.55    0.14
   4  -4   7    0.53    0.15
   4   4   7    1.15    0.19
  -4   4  -7    0.49    0.14
  -5  -5   7   -0.03    0.10
   5  -5  -7   -0.09    0.07
   5   5  -7    0.07    0.10
  -5   5   7    0.00    0.10
   5   5  -7    0.07    0.11
   4  -5  -7    0.58    0.15
  -4  -5   7    0.63    0.14
   4   5  -7    0.76    0.16
  -4   5   7    0.69    0.16
   4   5  -7    0.66    0.15
  -3  -5   7    7.09    0.33
   3  -5  -7    7.09    0.33
   3   5  -7    7.74    0.34
   3   5  -7    7.27    0.32
  -3   5   7    7.37    0.29
  -3   5   7    6.84    0.33
  -2  -5   7    2.42    0.17
   2  -5  -7    2.43    0.11
  -2  -5   7    2.83    0.20
   2  -5  -7    2.51    0.18
   2   5  -7    2.51    0.17
  -2   5   7    2.44    0.18
   2   5  -7    2.79    0.19
  -2   5   7    2.64    0.17
   1  -5  -7    1.18    0.09
  -1  -5   7    1.06    0.11
  -1  -5   7    0.83    0.12
   1  -5  -7    0.91    0.12
  -1   5   7    1.09    0.14
  -1   5   7    1.00    0.11
   1   5  -7    0.94    0.07
   1   5  -7    1.18    0.14
   0  -5   7   12.43    0.38
   0  -5  -7   12.01    0.33
   0  -5  -7   11.95    0.33
   0  -5   7   12.05    0.25
   0   5  -7   11.69    0.34
   0   5   7   12.43    0.36
   0   5   7   12.47    0.26
   0   5  -7   12.24    0.32
  -1  -5  -7    0.97    0.13
   1  -5   7    0.98    0.14
  -1  -5  -7    1.24    0.14
   1  -5   7    1.04    0.06
  -1   5  -7    1.01    0.12
  -1   5  -7    0.86    0.12
   1   5   7    1.12    0.14
   1   5   7    1.16    0.06
  -2  -5  -7    4.52    0.23
   2  -5   7    4.56    0.26
   2   5   7    4.37    0.24
  -2   5  -7    4.38    0.21
  -2   5  -7    4.86    0.26
   2   5   7    4.41    0.25
   3  -5   7    0.15    0.09
  -3  -5  -7    0.40    0.11
   3   5   7    0.03    0.09
   3   5   7    0.11    0.08
  -3   5  -7    0.15    0.09
  -3   5  -7    0.29    0.09
  -4  -5  -7    0.10    0.10
   4  -5   7    0.01    0.10
  -4  -5  -7    0.12    0.09
   4   5   7    0.22    0.11
   4   5   7    0.23    0.11
  -4   5  -7    0.14    0.11
   5  -6  -7    0.01    0.08
  -5  -6   7    0.24    0.13
  -5  -6   7    0.05    0.09
   5   6  -7    0.22    0.12
  -5   6   7    0.03    0.10
   4  -6  -7    0.06    0.09
  -4  -6   7    0.11    0.11
  -4  -6   7    0.22    0.10
  -4   6   7    0.04    0.07
   4   6  -7    0.06    0.08
  -4   6   7    0.06    0.07
   3  -6  -7    3.19    0.23
  -3  -6   7    2.98    0.22
  -3  -6   7    3.13    0.22
   3   6  -7    3.21    0.23
  -3   6   7    3.07    0.21
  -3   6   7    3.26    0.24
  -2  -6   7   -0.05    0.04
   2  -6  -7    0.06    0.06
  -2  -6   7   -0.05    0.06
   2   6  -7    0.08    0.07
  -2   6   7    0.00    0.05
  -2   6   7    0.06    0.06
  -1  -6   7   -0.01    0.04
   1  -6  -7    0.00    0.03
   1  -6  -7   -0.03    0.05
  -1  -6   7   -0.02    0.06
  -1   6   7    0.01    0.06
  -1   6   7   -0.04    0.04
   1   6  -7   -0.03    0.05
   1   6  -7   -0.03    0.03
   0  -6  -7    0.56    0.10
   0  -6  -7    0.56    0.09
   0  -6   7    0.68    0.08
   0  -6   7    0.41    0.10
   0   6   7    0.58    0.11
   0   6  -7    0.43    0.08
   0   6   7    0.47    0.06
   0   6  -7    0.70    0.11
  -1  -6  -7    0.03    0.06
   1  -6   7   -0.01    0.03
  -1  -6  -7    0.11    0.07
   1  -6   7    0.00    0.06
   1   6   7    0.06    0.06
  -1   6  -7    0.10    0.06
  -1   6  -7   -0.03    0.04
   2  -6   7    0.19    0.10
  -2  -6  -7    0.19    0.09
   2   6   7    0.14    0.08
   2   6   7    0.18    0.08
  -2   6  -7    0.19    0.09
  -2   6  -7    0.30    0.08
  -3  -6  -7    0.10    0.08
   3  -6   7    0.08    0.10
   3   6   7    0.17    0.09
  -3   6  -7    0.11    0.08
   3   6   7    0.13    0.11
   4  -6   7   -0.01    0.10
  -4  -6  -7   -0.05    0.07
  -4   6  -7    0.06    0.09
   4   6   7   -0.03    0.07
   4   6   7   -0.04    0.09
  -4  -7   7    0.45    0.14
   4  -7  -7    0.47    0.14
  -4  -7   7    0.27    0.12
   4   7  -7    0.30    0.12
  -4   7   7    0.22    0.09
  -4   7   7    0.28    0.12
  -3  -7   7    0.58    0.13
   3  -7  -7    0.54    0.13
  -3  -7   7    0.44    0.12
  -3   7   7    0.35    0.10
  -3   7   7    0.57    0.13
   3   7  -7    0.45    0.13
  -2  -7   7    6.34    0.28
  -2  -7   7    6.44    0.30
   2  -7  -7    6.19    0.30
   2   7  -7    6.21    0.30
  -2   7   7    6.56    0.30
  -2   7   7    6.87    0.29
   1  -7  -7    6.70    0.30
   1  -7  -7    6.53    0.22
  -1  -7   7    6.16    0.24
  -1  -7   7    6.80    0.30
   1   7  -7    6.66    0.29
  -1   7   7    6.77    0.24
   1   7  -7    6.33    0.22
  -1   7   7    6.31    0.28
   0  -7   7    0.03    0.05
   0  -7  -7    0.07    0.07
   0  -7   7    0.11    0.07
   0  -7  -7   -0.02    0.04
   0   7  -7    0.08    0.05
   0   7   7    0.02    0.06
   0   7  -7   -0.05    0.05
  -1  -7  -7    2.94    0.20
   1  -7   7    2.75    0.21
   1   7   7    2.95    0.20
  -1   7  -7    2.67    0.19
  -1   7  -7    3.04    0.18
   1   7   7    2.81    0.19
  -2  -7  -7    0.48    0.11
   2  -7   7    0.39    0.11
   2   7   7    0.48    0.13
   2   7   7    0.58    0.13
  -2   7  -7    0.52    0.12
  -2   7  -7    0.42    0.09
  -3  -7  -7    0.23    0.10
   3  -7   7    0.26    0.11
   3   7   7    0.20    0.11
   3   7   7    0.15    0.11
  -3   7  -7    0.31    0.12
  -4  -7  -7    0.03    0.08
   4  -7   7    0.07    0.10
   4   7   7    0.11    0.11
  -4   7  -7    0.07    0.10
   4   7   7    0.12    0.11
   4  -8  -7   -0.09    0.07
  -4  -8   7    0.03    0.09
  -4  -8   7   -0.05    0.08
   4   8  -7    0.05    0.10
  -4   8   7   -0.05    0.07
  -4   8   7   -0.06    0.06
   3  -8  -7    0.02    0.07
  -3  -8   7    0.10    0.08
  -3  -8   7    0.02    0.08
  -3   8   7    0.02    0.06
  -3   8   7   -0.01    0.07
   3   8  -7   -0.04    0.07
  -2  -8   7    4.45    0.25
   2  -8  -7    3.86    0.25
  -2  -8   7    4.08    0.24
  -2   8   7    3.93    0.23
   2   8  -7    4.35    0.27
  -2   8   7    4.46    0.26
  -1  -8   7    2.83    0.20
  -1  -8   7    2.77    0.18
   1  -8  -7    2.95    0.15
   1  -8  -7    2.38    0.19
   1   8  -7    2.80    0.20
  -1   8   7    2.94    0.21
   1   8  -7    2.71    0.16
  -1   8   7    2.49    0.15
   0  -8   7   11.85    0.41
   0  -8  -7   11.98    0.36
   0  -8   7   11.54    0.32
   0  -8  -7   11.59    0.39
   0   8  -7   11.96    0.38
   0   8  -7   11.43    0.36
   0   8   7   10.97    0.40
   1  -8   7    0.51    0.13
  -1  -8  -7    0.35    0.10
  -1   8  -7    0.44    0.10
   1   8   7    0.45    0.11
   1   8   7    0.48    0.11
  -1   8  -7    0.22    0.08
  -2  -8  -7   -0.01    0.06
   2  -8   7    0.11    0.08
  -2   8  -7   -0.01    0.07
   2   8   7    0.07    0.08
   2   8   7    0.02    0.08
   3  -8   7    0.02    0.08
  -3  -8  -7    0.25    0.11
   3   8   7    0.15    0.11
  -3   8  -7    0.04    0.08
   3   8   7    0.06    0.10
   4  -8   7    0.14    0.11
  -4  -8  -7    0.14    0.11
  -4   8  -7    0.22    0.12
   4   8   7    0.14    0.12
   4   8   7    0.09    0.12
  -4  -9   7    0.01    0.09
   4  -9  -7    0.05    0.10
   4   9  -7   -0.06    0.10
  -4   9   7   -0.04    0.09
  -4   9   7   -0.04    0.08
  -3  -9   7    0.17    0.10
  -3  -9   7    0.34    0.12
   3  -9  -7    0.20    0.10
   3   9  -7    0.49    0.14
  -3   9   7    0.16    0.09
  -3   9   7    0.34    0.11
  -2  -9   7    0.16    0.08
  -2  -9   7    0.24    0.10
   2  -9  -7    0.29    0.11
   2   9  -7    0.30    0.10
  -2   9   7    0.12    0.08
  -2   9   7    0.21    0.08
   1  -9  -7    4.85    0.28
  -1  -9   7    5.15    0.25
  -1  -9   7    5.09    0.27
   1   9  -7    5.37    0.28
   1   9  -7    5.00    0.22
  -1   9   7    4.98    0.22
  -1   9   7    5.08    0.28
   0  -9  -7    7.46    0.34
   0  -9   7    7.60    0.27
   0  -9  -7    7.80    0.29
   0  -9   7    7.41    0.33
   0   9   7    7.69    0.34
   0   9  -7    7.58    0.31
   0   9  -7    7.44    0.30
   1  -9   7   -0.05    0.06
  -1  -9  -7    0.11    0.08
  -1   9  -7    0.02    0.06
  -1   9  -7    0.02    0.07
   1   9   7    0.10    0.07
   1   9   7    0.08    0.08
   2  -9   7    0.09    0.10
  -2  -9  -7    0.06    0.09
   2   9   7    0.05    0.08
  -2   9  -7    0.03    0.08
   2   9   7    0.03    0.07
  -3  -9  -7    0.00    0.07
   3  -9   7    0.00    0.08
   3   9   7    0.04    0.09
  -3   9  -7   -0.03    0.08
   3   9   7    0.02    0.08
  -4 -10   7    0.44    0.15
   4 -10  -7    0.07    0.11
  -4  10   7    0.15    0.11
   4  10  -7    0.19    0.13
  -4  10   7    0.15    0.11
  -3 -10   7    0.06    0.08
  -3 -10   7    0.11    0.09
   3 -10  -7    0.13    0.10
  -3  10   7    0.27    0.11
   3  10  -7    0.27    0.12
  -3  10   7    0.13    0.09
  -2 -10   7    0.21    0.10
   2 -10  -7    0.30    0.11
  -2 -10   7    0.15    0.09
   2  10  -7    0.38    0.12
  -2  10   7    0.25    0.11
  -2  10   7    0.35    0.09
   1 -10  -7    0.36    0.11
  -1 -10   7    0.33    0.10
  -1 -10   7    0.23    0.08
   1  10  -7    0.44    0.10
  -1  10   7    0.36    0.11
   1  10  -7    0.15    0.09
   0 -10   7    2.50    0.21
   0 -10   7    2.38    0.17
   0 -10  -7    2.70    0.23
   0 -10  -7    2.39    0.17
   0  10  -7    2.53    0.20
   0  10   7    2.54    0.22
   0  10  -7    2.58    0.20
   1 -10   7    4.90    0.30
  -1 -10  -7    4.99    0.29
  -1  10  -7    4.76    0.29
   1  10   7    5.01    0.27
   1  10   7    5.31    0.30
  -1  10  -7    4.71    0.24
  -2 -10  -7    0.60    0.15
   2 -10   7    0.60    0.15
   2  10   7    0.77    0.16
  -2  10  -7    0.63    0.16
   2  10   7    0.77    0.15
  -3 -10  -7    0.05    0.09
   3 -10   7    0.35    0.14
  -3  10  -7    0.22    0.13
   3  10   7    0.21    0.12
   3  10   7    0.47    0.14
  -3 -11   7    0.21    0.12
   3 -11  -7   -0.03    0.07
  -3  11   7   -0.10    0.07
   3  11  -7    0.25    0.11
  -3  11   7    0.07    0.08
  -2 -11   7    0.12    0.09
  -2 -11   7    0.19    0.09
   2 -11  -7    0.23    0.11
  -2  11   7    0.17    0.10
   2  11  -7    0.03    0.10
  -1 -11   7   -0.02    0.06
  -1 -11   7    0.03    0.06
   1 -11  -7    0.03    0.08
   1  11  -7   -0.05    0.07
  -1  11   7    0.02    0.07
   0 -11   7    3.51    0.25
   0 -11  -7    3.66    0.21
   0 -11  -7    3.91    0.27
   0 -11   7    3.87    0.22
   0  11   7    3.86    0.28
   0  11  -7    3.63    0.24
   0  11  -7    3.56    0.24
   1 -11   7    2.80    0.24
  -1 -11  -7    2.62    0.27
   1  11   7    2.36    0.26
  -1  11  -7    2.63    0.27
   1  11   7    2.18    0.23
  -2 -11  -7    0.72    0.16
   2 -11   7    0.79    0.18
  -2  11  -7    0.38    0.13
   2  11   7    0.72    0.16
   2  11   7    0.56    0.15
   3 -11   7    0.29    0.13
  -3 -11  -7    0.15    0.11
   3  11   7    0.13    0.10
  -3  11  -7    0.29    0.13
   3  11   7    0.49    0.15
   3 -12  -7    1.99    0.27
  -3 -12   7    1.25    0.21
  -3  12   7    1.76    0.25
  -3  12   7    1.59    0.21
   3  12  -7    2.14    0.27
  -2 -12   7    0.16    0.10
   2 -12  -7    0.17    0.11
   2  12  -7    0.07    0.09
  -2  12   7   -0.04    0.09
  -1 -12   7    0.31    0.11
  -1 -12   7    0.34    0.12
   1 -12  -7    0.23    0.11
  -1  12   7    0.21    0.11
   1  12  -7    0.11    0.10
   0 -12   7    0.02    0.08
   0 -12  -7    0.09    0.08
   0 -12   7    0.16    0.09
   0  12  -7   -0.06    0.07
   0  12  -7    0.07    0.08
   0  12   7    0.01    0.08
  -1 -12  -7   -0.05    0.08
   1 -12   7    0.04    0.08
   1  12   7    0.11    0.11
   1  12   7   -0.05    0.07
  -1  12  -7    0.15    0.11
   2 -12   7   -0.03    0.09
  -2 -12  -7   -0.02    0.11
   2  12   7   -0.03    0.10
  -2  12  -7   -0.02    0.10
   2  12   7   -0.06    0.09
  -2 -13   7    0.00    0.10
   2 -13  -7    0.01    0.08
   2  13  -7   -0.08    0.07
  -2  13   7   -0.09    0.07
  -1 -13   7    1.63    0.21
  -1 -13   7    1.20    0.19
   1 -13  -7    1.34    0.23
   1  13  -7    1.50    0.22
  -1  13   7    1.51    0.23
   0 -13   7   -0.09    0.07
   0 -13  -7    0.06    0.09
   0  13   7    0.24    0.11
   0  13  -7    0.05    0.08
   0  13  -7   -0.02    0.08
   1 -13   7    0.01    0.08
  -1 -13  -7    0.30    0.13
  -1  13  -7    0.14    0.12
   1  13   7    0.30    0.13
   1  13   7    0.06    0.09
  -2 -13  -7    0.01    0.10
   2 -13   7    0.02    0.10
   2  13   7   -0.04    0.08
  -2  13  -7    0.14    0.11
   2  13   7    0.25    0.14
   2 -14  -7    0.15    0.11
  -2 -14   7    0.03    0.09
  -2  14   7   -0.06    0.09
   2  14  -7    0.07    0.11
  -1 -14   7    0.65    0.15
   1 -14  -7    0.94    0.20
   1  14  -7    0.52    0.15
  -1  14   7    0.79    0.19
   0 -14   7    0.20    0.10
   0 -14  -7    0.04    0.10
   0  14   7    0.01    0.10
   0  14  -7    0.07    0.11
   1 -14   7   -0.02    0.09
  -1 -14  -7    0.11    0.12
   1  14   7    0.14    0.14
   1  14   7    0.06    0.09
  -1  14  -7    0.08    0.11
   5   0  -8    0.22    0.11
  -5   0   8    0.27    0.14
   4   0  -8   13.90    0.50
  -4   0   8   14.46    0.52
   4   0  -8   13.26    0.41
   3   0  -8   31.84    0.63
   3   0  -8   30.95    0.69
  -3   0   8   29.23    0.70
  -2   0   8    3.40    0.20
  -2   0   8    3.60    0.12
   2   0  -8    3.59    0.19
   2   0  -8    3.37    0.18
   1   0  -8    1.51    0.10
  -1   0   8    1.46    0.13
   1   0  -8    1.67    0.12
  -1   0   8    1.51    0.09
   0   0  -8    0.70    0.10
   0   0   8    0.59    0.09
   0   0  -8    0.70    0.05
   0   0   8    0.47    0.08
  -1   0  -8    8.27    0.28
  -1   0  -8    8.29    0.15
   1   0   8    8.00    0.28
   1   0   8    8.43    0.27
   2   0   8    2.30    0.16
  -2   0  -8    2.16    0.18
   2   0   8    2.33    0.18
   3   0   8    0.10    0.07
   3   0   8   -0.04    0.06
  -3   0  -8    0.00    0.08
   4   0   8    0.74    0.17
   4   0   8    0.62    0.14
  -4   0  -8    0.63    0.14
   5  -1  -8   -0.07    0.07
  -5  -1   8   -0.01    0.09
   5   1  -8    0.08    0.09
  -5   1   8   -0.01    0.09
  -4  -1   8   15.04    0.54
   4  -1  -8   15.54    0.54
   4   1  -8   16.27    0.48
  -4   1   8   16.21    0.56
   4   1  -8   15.84    0.54
   3  -1  -8   10.21    0.32
   3  -1  -8    9.82    0.37
  -3  -1   8   10.21    0.40
  -3   1   8    9.90    0.38
   3   1  -8    9.85    0.37
   3   1  -8   10.09    0.34
   2  -1  -8   11.44    0.34
   2  -1  -8   10.97    0.31
  -2  -1   8   10.74    0.20
  -2  -1   8   10.38    0.35
   2   1  -8   10.93    0.33
  -2   1   8   11.03    0.26
  -2   1   8   11.02    0.36
   2   1  -8   10.59    0.32
  -1  -1   8    0.89    0.12
   1  -1  -8    0.73    0.09
  -1  -1   8    0.88    0.08
   1  -1  -8    0.92    0.11
  -1   1   8    1.05    0.09
  -1   1   8    0.87    0.11
   1   1  -8    0.99    0.08
   1   1  -8    0.94    0.11
   0  -1   8    3.70    0.19
   0  -1   8    3.38    0.16
   0  -1  -8    3.35    0.17
   0  -1  -8    3.58    0.13
   0   1   8    3.68    0.17
   0   1  -8    3.54    0.10
   0   1  -8    3.56    0.18
   0   1   8    3.68    0.17
   1  -1   8   10.71    0.32
  -1  -1  -8    9.99    0.32
   1  -1   8    9.31    0.31
  -1  -1  -8    9.39    0.21
   1   1   8    9.90    0.32
  -1   1  -8    9.48    0.31
   1   1   8    9.90    0.28
   2  -1   8    1.15    0.16
   2  -1   8    1.19    0.15
  -2  -1  -8    1.04    0.09
  -2  -1  -8    0.92    0.15
  -2   1  -8    1.05    0.14
   2   1   8    0.90    0.11
   2   1   8    1.11    0.15
   3  -1   8    1.13    0.16
   3  -1   8    0.89    0.15
  -3  -1  -8    1.11    0.17
   3   1   8    1.32    0.16
  -3   1  -8    1.33    0.18
   3   1   8    1.32    0.18
  -4  -1  -8    0.04    0.09
   4  -1   8    0.16    0.10
   4  -1   8    0.12    0.11
   4   1   8    0.16    0.11
  -4   1  -8    0.29    0.11
   5  -2  -8    0.34    0.14
  -5  -2   8    0.17    0.13
  -5   2   8    0.21    0.14
   5   2  -8    0.09    0.12
  -4  -2   8    0.19    0.10
   4  -2  -8    0.10    0.08
  -4   2   8   -0.10    0.07
   4   2  -8    0.06    0.09
   4   2  -8    0.08    0.08
   3  -2  -8    5.07    0.21
   3  -2  -8    4.70    0.26
  -3  -2   8    4.69    0.28
   3   2  -8    4.90    0.27
  -3   2   8    4.85    0.27
   3   2  -8    4.80    0.25
  -2  -2   8    2.89    0.19
   2  -2  -8    2.96    0.15
   2  -2  -8    2.76    0.17
   2   2  -8    3.80    0.20
   2   2  -8    3.08    0.17
  -2   2   8    3.17    0.19
  -2   2   8    2.87    0.14
  -1  -2   8   -0.01    0.05
   1  -2  -8    0.03    0.04
  -1  -2   8   -0.01    0.03
   1  -2  -8    0.00    0.03
  -1   2   8    0.07    0.04
   1   2  -8    0.02    0.03
   1   2  -8   -0.01    0.04
  -1   2   8    0.04    0.04
   0  -2  -8    9.54    0.24
   0  -2  -8    9.83    0.30
   0  -2   8    9.85    0.31
   0  -2   8    9.19    0.27
   0   2   8    9.81    0.27
   0   2   8    9.77    0.29
   0   2  -8    9.59    0.30
   0   2  -8    9.66    0.17
  -1  -2  -8    2.90    0.13
   1  -2   8    2.94    0.18
  -1  -2  -8    3.00    0.19
   1  -2   8    2.86    0.17
  -1   2  -8    2.97    0.18
   1   2   8    2.83    0.14
   1   2   8    2.77    0.17
  -2  -2  -8   -0.01    0.04
  -2  -2  -8    0.03    0.07
   2  -2   8   -0.05    0.04
   2  -2   8    0.11    0.07
   2   2   8   -0.02    0.04
  -2   2  -8   -0.04    0.05
   2   2   8    0.03    0.06
  -3  -2  -8    0.46    0.12
   3  -2   8    0.67    0.14
   3  -2   8    0.76    0.16
  -3   2  -8    0.48    0.12
   3   2   8    0.54    0.13
   3   2   8    0.65    0.11
   4  -2   8    0.23    0.12
  -4  -2  -8    0.49    0.14
   4  -2   8    0.48    0.14
   4   2   8    0.66    0.16
  -4   2  -8    0.55    0.15
  -4   2  -8    0.66    0.14
   5  -3  -8    0.40    0.15
  -5  -3   8    0.31    0.14
   5   3  -8    0.26    0.12
  -5   3   8    0.20    0.13
   5   3  -8    0.23    0.14
   4  -3  -8    0.49    0.13
  -4  -3   8    0.50    0.15
  -4   3   8    0.56    0.15
   4   3  -8    0.78    0.15
   4   3  -8    0.50    0.14
   3  -3  -8    2.33    0.23
  -3  -3   8    2.35    0.20
   3  -3  -8    2.33    0.14
  -3   3   8    2.02    0.22
  -3   3   8    2.61    0.15
   3   3  -8    2.16    0.21
   3   3  -8    2.01    0.21
   2  -3  -8    5.99    0.26
   2  -3  -8    6.11    0.21
  -2  -3   8    6.36    0.28
   2   3  -8    6.34    0.25
  -2   3   8    6.43    0.27
   2   3  -8    6.43    0.27
  -2   3   8    6.43    0.23
   1  -3  -8    0.02    0.04
  -1  -3   8    0.05    0.05
  -1  -3   8    0.01    0.03
   1  -3  -8    0.00    0.04
   1   3  -8    0.04    0.05
  -1   3   8    0.05    0.05
  -1   3   8    0.01    0.04
   1   3  -8    0.05    0.04
   0  -3  -8    5.59    0.22
   0  -3   8    5.32    0.20
   0  -3   8    5.12    0.23
   0  -3  -8    5.49    0.19
   0  -3   8    5.42    0.12
   0   3   8    5.41    0.19
   0   3  -8    5.58    0.23
   0   3   8    5.51    0.22
   1  -3   8    0.56    0.10
   1  -3   8    0.83    0.12
  -1  -3  -8    0.78    0.09
  -1  -3  -8    0.73    0.12
   1   3   8    0.75    0.08
   1   3   8    0.64    0.11
  -1   3  -8    0.91    0.13
   2  -3   8    0.34    0.09
   2  -3   8    0.31    0.10
  -2  -3  -8    0.24    0.09
  -2  -3  -8    0.30    0.08
   2   3   8    0.29    0.09
  -2   3  -8    0.31    0.09
   2   3   8    0.30    0.07
  -3  -3  -8    0.12    0.08
   3  -3   8   -0.09    0.05
   3  -3   8    0.13    0.09
  -3  -3  -8    0.02    0.06
  -3   3  -8    0.14    0.08
   3   3   8    0.02    0.07
   4  -3   8    1.42    0.21
  -4  -3  -8    1.53    0.22
   4   3   8    1.92    0.25
  -4   3  -8    1.39    0.21
  -5  -4   8    0.04    0.10
   5  -4  -8    0.08    0.09
  -5   4   8   -0.06    0.10
   5   4  -8   -0.04    0.09
   5   4  -8   -0.14    0.09
  -4  -4   8    1.05    0.19
   4  -4  -8    1.06    0.18
  -4   4   8    1.21    0.20
   4   4  -8    1.26    0.18
   4   4  -8    1.40    0.20
   3  -4  -8    1.14    0.16
  -3  -4   8    1.31    0.18
  -3   4   8    1.23    0.14
  -3   4   8    1.33    0.18
   3   4  -8    1.26    0.17
   3   4  -8    1.36    0.17
   2  -4  -8    2.42    0.13
  -2  -4   8    2.60    0.19
   2  -4  -8    2.43    0.17
  -2   4   8    2.14    0.17
   2   4  -8    2.26    0.16
   2   4  -8    2.87    0.19
  -2   4   8    2.39    0.15
   1  -4  -8   -0.05    0.03
   1  -4  -8   -0.03    0.04
  -1  -4   8    0.01    0.03
  -1  -4   8    0.01    0.06
  -1   4   8   -0.02    0.04
   1   4  -8    0.06    0.06
  -1   4   8   -0.03    0.04
   1   4  -8    0.00    0.03
   0  -4   8   10.00    0.29
   0  -4  -8   10.46    0.30
   0  -4   8   10.65    0.20
   0  -4  -8   10.32    0.31
   0   4   8   10.65    0.26
   0   4  -8   10.25    0.32
   0   4   8   10.67    0.33
   1  -4   8    1.26    0.15
  -1  -4  -8    1.48    0.16
   1  -4   8    1.14    0.15
  -1  -4  -8    1.38    0.12
   1   4   8    1.24    0.15
  -1   4  -8    1.29    0.14
   1   4   8    1.25    0.08
   2  -4   8    0.04    0.07
  -2  -4  -8    0.02    0.07
  -2  -4  -8    0.08    0.06
   2  -4   8    0.03    0.06
  -2   4  -8    0.01    0.07
   2   4   8   -0.02    0.06
  -2   4  -8    0.03    0.06
  -3  -4  -8   -0.01    0.07
  -3  -4  -8    0.01    0.06
   3  -4   8   -0.05    0.06
  -3   4  -8   -0.03    0.07
  -3   4  -8   -0.05    0.06
   3   4   8    0.06    0.07
   4  -4   8    0.15    0.09
  -4  -4  -8    0.01    0.10
   4   4   8    0.06    0.09
  -4   4  -8    0.12    0.11
  -5  -5   8   -0.01    0.10
   5  -5  -8    0.08    0.11
   5   5  -8   -0.15    0.09
   5   5  -8   -0.02    0.12
  -5   5   8   -0.07    0.09
  -4  -5   8    1.82    0.24
   4  -5  -8    1.20    0.19
   4   5  -8    1.79    0.23
   4   5  -8    1.31    0.20
  -4   5   8    0.86    0.18
   3  -5  -8    1.93    0.22
  -3  -5   8    2.32    0.20
  -3   5   8    2.07    0.22
  -3   5   8    1.88    0.16
   3   5  -8    2.12    0.22
   3   5  -8    2.28    0.20
  -2  -5   8    0.16    0.08
   2  -5  -8    0.16    0.08
   2  -5  -8    0.31    0.06
  -2   5   8    0.15    0.07
  -2   5   8    0.23    0.08
   2   5  -8    0.14    0.07
   2   5  -8    0.26    0.08
  -1  -5   8    2.99    0.19
   1  -5  -8    3.34    0.16
   1  -5  -8    3.26    0.18
  -1  -5   8    3.04    0.15
   1   5  -8    3.17    0.14
  -1   5   8    3.21    0.17
   1   5  -8    3.14    0.19
  -1   5   8    3.32    0.19
   0  -5  -8    0.27    0.08
   0  -5   8    0.33    0.05
   0  -5   8    0.20    0.08
   0  -5  -8    0.32    0.09
   0   5  -8    0.27    0.07
   0   5  -8    0.25    0.09
   0   5   8    0.26    0.06
   0   5   8    0.40    0.10
   1  -5   8    1.44    0.17
  -1  -5  -8    1.98    0.20
  -1  -5  -8    1.85    0.15
  -1   5  -8    1.94    0.16
   1   5   8    2.01    0.16
  -1   5  -8    1.87    0.15
  -2  -5  -8   -0.07    0.05
  -2  -5  -8    0.00    0.07
   2  -5   8   -0.01    0.06
  -2   5  -8    0.05    0.08
   2   5   8    0.02    0.07
  -2   5  -8    0.05    0.07
   3  -5   8    1.22    0.19
  -3  -5  -8    0.92    0.15
  -3  -5  -8    1.09    0.18
  -3   5  -8    1.03    0.15
   3   5   8    1.06    0.18
  -3   5  -8    0.84    0.16
   4  -5   8    0.16    0.10
  -4  -5  -8    0.00    0.08
  -4   5  -8   -0.04    0.08
   4   5   8    0.03    0.10
  -5  -6   8    0.06    0.09
   5  -6  -8    0.00    0.10
   5   6  -8    0.05    0.11
  -4  -6   8   -0.09    0.08
  -4  -6   8    0.22    0.10
   4  -6  -8    0.25    0.12
   4   6  -8    0.03    0.08
   4   6  -8    0.19    0.11
  -4   6   8    0.31    0.13
   3  -6  -8   -0.05    0.05
  -3  -6   8    0.07    0.07
  -3  -6   8    0.10    0.08
   3   6  -8    0.01    0.07
  -3   6   8   -0.07    0.06
  -3   6   8    0.03    0.06
   2  -6  -8    0.01    0.06
  -2  -6   8   -0.06    0.04
  -2  -6   8    0.00    0.06
  -2   6   8   -0.05    0.05
  -2   6   8    0.00    0.05
   2   6  -8   -0.05    0.07
   1  -6  -8    0.15    0.07
   1  -6  -8    0.21    0.06
  -1  -6   8    0.30    0.07
  -1  -6   8    0.12    0.09
  -1   6   8    0.12    0.05
  -1   6   8    0.04    0.06
   1   6  -8    0.18    0.08
   1   6  -8    0.14    0.05
   0  -6  -8    3.11    0.18
   0  -6  -8    2.62    0.17
   0  -6   8    2.86    0.20
   0  -6   8    2.75    0.12
   0   6  -8    3.01    0.19
   0   6   8    2.68    0.12
   0   6   8    2.60    0.19
   0   6  -8    2.59    0.16
   1  -6   8    1.17    0.17
  -1  -6  -8    1.34    0.15
  -1  -6  -8    1.40    0.17
  -1   6  -8    1.24    0.16
  -1   6  -8    1.45    0.15
   1   6   8    1.35    0.17
   2  -6   8    0.05    0.07
  -2  -6  -8    0.11    0.08
  -2  -6  -8    0.04    0.07
   2   6   8   -0.05    0.06
  -2   6  -8    0.09    0.07
  -2   6  -8    0.11    0.08
  -3  -6  -8    0.07    0.08
   3  -6   8    0.04    0.08
  -3  -6  -8    0.20    0.09
   3   6   8    0.36    0.12
   3   6   8    0.25    0.11
  -3   6  -8    0.00    0.08
   4  -6   8    0.24    0.13
  -4  -6  -8   -0.02    0.08
   4   6   8    0.03    0.11
  -4   6  -8    0.06    0.10
  -4  -7   8    0.94    0.17
   4  -7  -8    0.76    0.17
  -4  -7   8    0.71    0.16
  -4   7   8    0.66    0.16
   4   7  -8    0.97    0.19
  -4   7   8    0.85    0.15
  -3  -7   8    1.13    0.18
  -3  -7   8    0.98    0.16
   3  -7  -8    1.22    0.18
  -3   7   8    1.05    0.17
   3   7  -8    0.78    0.15
  -3   7   8    0.87    0.15
  -2  -7   8    0.11    0.07
   2  -7  -8    0.24    0.10
  -2  -7   8    0.17    0.09
   2   7  -8    0.13    0.08
  -2   7   8   -0.05    0.06
  -2   7   8    0.12    0.07
  -1  -7   8    1.62    0.19
   1  -7  -8    1.44    0.18
  -1  -7   8    1.63    0.13
   1  -7  -8    1.46    0.11
  -1   7   8    1.70    0.13
   1   7  -8    1.69    0.19
   1   7  -8    1.40    0.11
  -1   7   8    1.58    0.18
   0  -7   8    0.11    0.07
   0  -7  -8    0.20    0.08
   0  -7   8    0.18    0.06
   0  -7  -8    0.17    0.07
   0   7  -8    0.09    0.06
   0   7   8    0.13    0.08
   0   7  -8    0.14    0.07
  -1  -7  -8    1.11    0.16
   1  -7   8    1.05    0.17
  -1  -7  -8    1.01    0.15
   1   7   8    1.23    0.17
  -1   7  -8    1.15    0.14
  -1   7  -8    1.00    0.15
   2  -7   8    0.43    0.13
  -2  -7  -8    0.33    0.11
  -2  -7  -8    0.24    0.10
  -2   7  -8    0.35    0.09
   2   7   8    0.45    0.13
  -2   7  -8    0.22    0.11
   2   7   8    0.41    0.11
  -3  -7  -8    0.11    0.09
  -3  -7  -8   -0.03    0.07
   3  -7   8   -0.18    0.07
  -3   7  -8    0.06    0.10
   3   7   8    0.04    0.09
   3   7   8    0.03    0.09
   4  -7   8    0.02    0.11
  -4  -7  -8    0.02    0.09
  -4  -7  -8    0.30    0.15
   4   7   8    0.11    0.12
  -4   7  -8   -0.02    0.09
  -4  -8   8    0.04    0.09
   4  -8  -8    0.02    0.08
  -4  -8   8    0.19    0.12
  -4   8   8    0.01    0.07
  -4   8   8   -0.05    0.08
   4   8  -8    0.05    0.09
  -3  -8   8    0.00    0.08
  -3  -8   8   -0.04    0.06
   3  -8  -8   -0.07    0.05
   3   8  -8    0.00    0.08
  -3   8   8   -0.09    0.06
  -3   8   8   -0.10    0.06
  -2  -8   8    0.50    0.13
   2  -8  -8    0.58    0.13
  -2  -8   8    0.72    0.13
   2   8  -8    0.54    0.13
  -2   8   8    0.66    0.12
  -2   8   8    0.66    0.13
   1  -8  -8   15.05    0.48
  -1  -8   8   14.61    0.47
   1  -8  -8   14.49    0.37
  -1  -8   8   16.56    0.42
   1   8  -8   15.08    0.38
   1   8  -8   14.54    0.47
  -1   8   8   14.49    0.47
  -1   8   8   14.14    0.37
   0  -8  -8    0.06    0.08
   0  -8  -8    0.10    0.07
   0  -8   8    0.09    0.05
   0  -8   8    0.13    0.09
   0   8   8    0.01    0.07
   0   8  -8   -0.08    0.05
   0   8  -8    0.17    0.09
  -1  -8  -8    4.15    0.25
   1  -8   8    3.91    0.26
  -1  -8  -8    3.99    0.24
   1   8   8    4.36    0.26
  -1   8  -8    3.62    0.24
  -1   8  -8    4.01    0.22
  -2  -8  -8    0.86    0.16
   2  -8   8    0.50    0.13
  -2   8  -8    0.39    0.12
   2   8   8    0.43    0.12
   2   8   8    0.47    0.13
   3  -8   8    0.07    0.09
  -3  -8  -8    0.09    0.09
  -3   8  -8   -0.01    0.08
   3   8   8   -0.06    0.08
   3   8   8    0.03    0.09
  -4  -9   8    0.02    0.10
   4  -9  -8    0.04    0.10
  -4  -9   8    0.04    0.10
  -4   9   8    0.10    0.08
  -4   9   8    0.00    0.09
   4   9  -8    0.05    0.10
  -3  -9   8    0.04    0.08
  -3  -9   8    0.08    0.08
   3  -9  -8    0.06    0.08
   3   9  -8   -0.07    0.07
  -3   9   8    0.03    0.08
  -3   9   8    0.01    0.08
   2  -9  -8    0.41    0.12
  -2  -9   8    0.32    0.11
  -2  -9   8    0.23    0.09
   2   9  -8    0.32    0.11
  -2   9   8    0.38    0.10
  -2   9   8    0.19    0.09
  -1  -9   8    1.98    0.21
   1  -9  -8    2.03    0.23
  -1  -9   8    2.28    0.17
  -1   9   8    2.09    0.22
   1   9  -8    2.22    0.23
   1   9  -8    2.20    0.16
   0  -9   8   14.48    0.38
   0  -9  -8   15.74    0.49
   0  -9  -8   14.56    0.43
   0  -9   8   14.51    0.49
   0   9  -8   14.93    0.45
   0   9   8   15.00    0.50
   0   9  -8   15.22    0.46
  -1  -9  -8    5.06    0.29
   1  -9   8    4.28    0.28
  -1  -9  -8    4.46    0.26
  -1   9  -8    4.52    0.24
  -1   9  -8    4.73    0.28
   1   9   8    5.03    0.29
   2  -9   8    0.31    0.12
  -2  -9  -8    0.37    0.13
   2   9   8    0.18    0.10
   2   9   8    0.22    0.11
  -2   9  -8    0.36    0.12
   3  -9   8    0.03    0.09
  -3  -9  -8   -0.06    0.07
   3   9   8    0.02    0.08
  -3   9  -8   -0.02    0.09
   3   9   8    0.24    0.13
  -4 -10   8    0.75    0.18
   4 -10  -8    0.38    0.15
  -4  10   8    0.31    0.13
   4  10  -8    0.60    0.17
  -4  10   8    0.50    0.16
   3 -10  -8    0.21    0.11
  -3 -10   8    0.26    0.11
  -3 -10   8    0.73    0.16
   3  10  -8    0.31    0.12
  -3  10   8    0.30    0.11
  -3  10   8    0.35    0.12
  -2 -10   8    0.16    0.08
   2 -10  -8    0.04    0.08
  -2 -10   8   -0.05    0.07
  -2  10   8    0.18    0.11
   2  10  -8   -0.09    0.06
  -2  10   8    0.13    0.07
  -1 -10   8    6.76    0.29
  -1 -10   8    6.40    0.32
   1 -10  -8    7.05    0.35
   1  10  -8    6.53    0.33
  -1  10   8    6.58    0.34
   0 -10  -8    0.12    0.07
   0 -10  -8    0.07    0.09
   0 -10   8    0.11    0.08
   0  10   8    0.30    0.10
   0  10  -8    0.19    0.10
   0  10  -8    0.29    0.10
  -1 -10  -8    6.44    0.33
  -1 -10  -8    5.95    0.33
   1 -10   8    6.50    0.36
   1  10   8    6.90    0.35
  -1  10  -8    6.85    0.30
  -1  10  -8    7.40    0.35
   2 -10   8   -0.07    0.08
  -2 -10  -8    0.19    0.11
  -2  10  -8    0.02    0.10
   2  10   8    0.16    0.10
   2  10   8    0.07    0.09
  -3 -10  -8   -0.05    0.09
   3 -10   8   -0.06    0.09
   3  10   8    0.01    0.09
   3  10   8    0.16    0.11
  -3  10  -8   -0.02    0.10
  -3 -11   8   -0.02    0.09
   3 -11  -8    0.20    0.12
  -3  11   8    0.24    0.12
   3  11  -8    0.41    0.14
  -3  11   8    0.35    0.13
  -2 -11   8   -0.09    0.06
   2 -11  -8    0.07    0.08
  -2 -11   8    0.10    0.08
   2  11  -8    0.03    0.08
  -2  11   8   -0.02    0.08
  -1 -11   8    0.38    0.11
  -1 -11   8    0.07    0.08
   1 -11  -8    0.06    0.09
   1  11  -8    0.17    0.10
  -1  11   8    0.03    0.08
   0 -11   8    0.01    0.08
   0 -11  -8    0.17    0.08
   0 -11  -8    0.15    0.10
   0  11   8    0.16    0.10
   0  11  -8    0.06    0.08
   0  11  -8    0.18    0.09
  -1 -11  -8   -0.04    0.08
   1 -11   8    0.05    0.08
  -1 -11  -8   -0.05    0.07
  -1  11  -8   -0.06    0.07
   1  11   8   -0.01    0.09
   2 -11   8    0.74    0.18
  -2 -11  -8    0.68    0.17
   2  11   8    0.64    0.16
   2  11   8    1.03    0.20
  -2  11  -8    0.61    0.16
  -3 -11  -8    0.06    0.11
   3 -11   8    0.18    0.13
   3  11   8    0.03    0.09
  -3  11  -8   -0.02    0.10
   3  11   8    0.07    0.11
  -3 -12   8    0.18    0.12
   3 -12  -8    0.33    0.14
  -3  12   8    0.20    0.14
   3  12  -8    0.15    0.11
  -2 -12   8    0.74    0.16
   2 -12  -8    0.62    0.16
  -2 -12   8    0.79    0.17
   2  12  -8    0.97    0.19
  -2  12   8    0.66    0.15
  -1 -12   8   -0.04    0.07
   1 -12  -8    0.00    0.08
  -1 -12   8   -0.07    0.06
  -1  12   8    0.12    0.10
   1  12  -8   -0.08    0.06
   0 -12  -8   -0.02    0.09
   0 -12   8    0.06    0.08
   0  12   8   -0.08    0.07
   0  12  -8    0.06    0.09
   0  12  -8    0.01    0.07
  -1 -12  -8    0.19    0.11
   1 -12   8    0.18    0.10
  -1 -12  -8    0.25    0.13
   1  12   8    0.03    0.10
  -1  12  -8    0.12    0.11
   2 -12   8    0.26    0.11
  -2 -12  -8    0.15    0.11
   2  12   8    0.28    0.13
  -2  12  -8    0.50    0.15
   2  12   8    0.35    0.13
   2 -13  -8    0.01    0.09
  -2 -13   8    0.02    0.10
  -2  13   8    0.04    0.10
   2  13  -8    0.15    0.10
  -1 -13   8    0.21    0.11
  -1 -13   8    0.11    0.08
   1 -13  -8    0.20    0.11
  -1  13   8    0.17    0.11
   1  13  -8    0.09    0.10
   0 -13  -8    0.07    0.10
   0 -13   8    0.45    0.15
   0  13  -8    0.09    0.10
   0  13  -8    0.04    0.09
   0  13   8    0.32    0.13
  -1 -13  -8    0.27    0.14
  -1 -13  -8    0.17    0.11
   1 -13   8    0.09    0.10
   1  13   8    0.14    0.13
  -1  13  -8    0.27    0.13
   1 -14  -8    0.43    0.16
  -1  14   8    0.15    0.12
   1  14  -8    0.38    0.14
   0 -14   8    0.07    0.10
   0 -14  -8    0.15    0.12
   0  14   8    0.13    0.12
   0  14  -8    0.09    0.12
  -1 -14  -8    0.20    0.11
  -1 -14  -8    0.09    0.13
   1 -14   8    0.01    0.09
   1  14   8   -0.02    0.13
  -1  14  -8    0.16    0.13
  -5   0   9   -0.03    0.08
   5   0  -9   -0.04    0.09
   4   0  -9    0.20    0.09
  -4   0   9    0.04    0.09
   4   0  -9    0.00    0.06
   3   0  -9    0.01    0.06
  -3   0   9    0.11    0.09
   3   0  -9    0.03    0.06
   2   0  -9   -0.02    0.05
   2   0  -9    0.01    0.05
  -2   0   9    0.01    0.03
  -2   0   9    0.04    0.07
   1   0  -9   -0.02    0.04
   1   0  -9   -0.03    0.03
  -1   0   9    0.06    0.04
  -1   0   9   -0.03    0.04
   0   0  -9   -0.02    0.02
   0   0   9    0.03    0.04
   0   0  -9   -0.04    0.04
   0   0   9    0.12    0.06
  -1   0  -9   -0.07    0.05
  -1   0  -9   -0.01    0.02
   1   0   9   -0.04    0.04
   1   0   9    0.04    0.05
  -2   0  -9    0.07    0.07
   2   0   9    0.03    0.06
   2   0   9    0.02    0.05
   3   0   9    0.01    0.06
   3   0   9    0.01    0.08
  -3   0  -9    0.02    0.07
   4   0   9    0.13    0.11
   4   0   9    0.01    0.08
  -4   0  -9   -0.04    0.08
   5  -1  -9   -0.03    0.10
  -5  -1   9   -0.01    0.10
   5   1  -9    0.02    0.10
  -5   1   9    0.07    0.11
   4  -1  -9    0.03    0.08
  -4  -1   9    0.32    0.12
  -4   1   9    0.23    0.11
   4   1  -9    0.35    0.12
   4   1  -9    0.20    0.09
  -3  -1   9    2.81    0.23
   3  -1  -9    2.44    0.17
   3  -1  -9    2.30    0.19
   3   1  -9    2.54    0.18
  -3   1   9    3.20    0.23
   3   1  -9    3.08    0.21
   2  -1  -9    3.64    0.19
  -2  -1   9    3.26    0.11
  -2  -1   9    2.99    0.20
   2  -1  -9    3.42    0.18
   2   1  -9    3.27    0.19
  -2   1   9    3.27    0.14
   2   1  -9    3.50    0.19
  -2   1   9    3.26    0.21
   1  -1  -9    0.49    0.08
   1  -1  -9    0.41    0.08
  -1  -1   9    0.44    0.09
  -1  -1   9    0.51    0.07
  -1   1   9    0.47    0.08
   1   1  -9    0.52    0.10
   1   1  -9    0.40    0.06
  -1   1   9    0.53    0.10
   0  -1   9    2.89    0.16
   0  -1  -9    2.51    0.11
   0  -1  -9    2.64    0.17
   0  -1   9    2.50    0.16
   0   1   9    2.69    0.16
   0   1  -9    2.54    0.17
   0   1  -9    2.59    0.09
   0   1   9    2.60    0.15
   1  -1   9    1.55    0.16
  -1  -1  -9    1.70    0.17
   1  -1   9    1.75    0.14
  -1  -1  -9    1.49    0.08
  -1   1  -9    1.80    0.18
   1   1   9    1.26    0.15
   1   1   9    1.65    0.13
   2  -1   9    0.44    0.11
  -2  -1  -9    0.54    0.12
   2  -1   9    0.53    0.11
  -2   1  -9    0.51    0.11
   2   1   9    0.44    0.11
   2   1   9    0.48    0.10
   3  -1   9    0.59    0.14
   3  -1   9    0.45    0.12
  -3  -1  -9    0.28    0.10
   3   1   9    0.53    0.13
   3   1   9    0.44    0.10
  -3   1  -9    0.41    0.11
   4  -1   9    0.31    0.12
   4  -1   9    0.32    0.14
  -4  -1  -9   -0.10    0.09
   4   1   9    0.28    0.13
  -4   1  -9    0.39    0.12
  -5  -2   9    0.13    0.13
   5  -2  -9    0.00    0.09
  -5   2   9    0.12    0.12
   5   2  -9    0.07    0.11
   4  -2  -9    0.19    0.09
  -4  -2   9    0.24    0.12
   4   2  -9    0.30    0.10
   4   2  -9    0.25    0.11
  -4   2   9    0.13    0.11
   3  -2  -9    0.23    0.07
   3  -2  -9    0.27    0.09
  -3  -2   9    0.00    0.07
   3   2  -9    0.14    0.08
  -3   2   9    0.29    0.10
   3   2  -9    0.12    0.08
   2  -2  -9    1.32    0.15
   2  -2  -9    1.63    0.15
  -2  -2   9    1.85    0.20
  -2   2   9    1.52    0.11
  -2   2   9    1.55    0.16
   2   2  -9    1.46    0.16
   2   2  -9    1.34    0.14
   1  -2  -9    7.58    0.26
  -1  -2   9    7.86    0.21
   1  -2  -9    7.73    0.25
  -1  -2   9    8.27    0.30
  -1   2   9    7.53    0.27
   1   2  -9    8.46    0.30
   1   2  -9    7.80    0.22
  -1   2   9    8.06    0.26
   0  -2   9    0.87    0.10
   0  -2   9    1.00    0.13
   0  -2  -9    0.76    0.11
   0  -2  -9    1.00    0.10
   0   2   9    1.06    0.12
   0   2  -9    0.94    0.13
   0   2  -9    0.90    0.05
   0   2   9    0.90    0.12
  -1  -2  -9    6.81    0.20
   1  -2   9    6.69    0.28
   1  -2   9    7.19    0.28
  -1  -2  -9    6.50    0.27
   1   2   9    7.16    0.29
  -1   2  -9    7.05    0.28
   1   2   9    6.47    0.23
  -2  -2  -9   -0.07    0.05
   2  -2   9    0.10    0.07
  -2  -2  -9    0.09    0.05
   2  -2   9    0.05    0.07
   2   2   9   -0.01    0.04
  -2   2  -9    0.04    0.07
   2   2   9   -0.04    0.05
   3  -2   9    0.13    0.09
  -3  -2  -9    0.12    0.09
   3  -2   9    0.13    0.09
  -3   2  -9    0.27    0.10
   3   2   9   -0.02    0.07
   4  -2   9    0.47    0.16
   4  -2   9    0.64    0.15
  -4  -2  -9    0.77    0.17
  -4   2  -9    0.63    0.14
   4   2   9    0.66    0.17
   5  -3  -9    0.07    0.10
  -5  -3   9    0.09    0.11
   5   3  -9   -0.02    0.09
   5   3  -9   -0.06    0.09
  -5   3   9   -0.01    0.09
   4  -3  -9    0.05    0.08
  -4  -3   9    0.10    0.10
   4   3  -9   -0.03    0.07
  -4   3   9    0.16    0.10
   4   3  -9    0.09    0.08
  -3  -3   9    0.25    0.10
   3  -3  -9    0.15    0.06
   3  -3  -9    0.44    0.11
  -3   3   9    0.23    0.07
   3   3  -9    0.16    0.08
   3   3  -9    0.21    0.09
  -3   3   9    0.23    0.09
   2  -3  -9    0.09    0.06
  -2  -3   9    0.12    0.08
   2  -3  -9    0.15    0.06
   2   3  -9    0.03    0.07
  -2   3   9    0.16    0.07
  -2   3   9    0.03    0.05
   2   3  -9    0.08    0.06
  -1  -3   9    0.11    0.07
  -1  -3   9    0.00    0.03
   1  -3  -9    0.06    0.05
   1  -3  -9    0.11    0.05
   1   3  -9    0.05    0.04
  -1   3   9    0.08    0.05
   1   3  -9    0.01    0.05
  -1   3   9   -0.01    0.04
   0  -3   9   25.11    0.58
   0  -3   9   25.16    0.35
   0  -3   9   25.29    0.51
   0  -3  -9   25.76    0.54
   0  -3  -9   25.32    0.48
   0   3   9   25.22    0.49
   0   3   9   25.31    0.55
   0   3  -9   26.37    0.58
  -1  -3  -9    0.01    0.06
  -1  -3  -9    0.09    0.05
   1  -3   9    0.10    0.07
   1  -3   9    0.22    0.08
   1   3   9    0.15    0.05
   1   3   9    0.08    0.07
  -1   3  -9    0.12    0.07
  -2  -3  -9   -0.05    0.06
  -2  -3  -9    0.07    0.06
   2  -3   9   -0.03    0.05
   2  -3   9   -0.06    0.05
  -2   3  -9    0.06    0.07
   2   3   9    0.07    0.08
   2   3   9   -0.01    0.04
  -3  -3  -9    0.11    0.09
   3  -3   9   -0.04    0.08
   3  -3   9   -0.02    0.07
  -3   3  -9    0.04    0.07
   3   3   9   -0.01    0.07
   4  -3   9    0.31    0.12
  -4  -3  -9    0.14    0.11
  -4   3  -9    0.27    0.12
   4   3   9    0.61    0.16
  -5  -4   9    0.04    0.12
   5  -4  -9    0.30    0.13
  -5   4   9    0.02    0.12
   5   4  -9    0.09    0.12
   5   4  -9    0.16    0.12
  -4  -4   9   -0.08    0.08
   4  -4  -9   -0.02    0.07
  -4   4   9   -0.05    0.08
   4   4  -9   -0.06    0.06
   4   4  -9    0.14    0.09
  -3  -4   9    0.44    0.12
   3  -4  -9    0.59    0.13
   3   4  -9    0.43    0.12
   3   4  -9    0.52    0.12
  -3   4   9    0.46    0.09
  -3   4   9    0.55    0.13
  -2  -4   9    0.25    0.10
   2  -4  -9    0.12    0.07
   2  -4  -9    0.18    0.06
  -2   4   9    0.21    0.08
   2   4  -9    0.14    0.07
   2   4  -9    0.14    0.08
  -2   4   9    0.18    0.07
   1  -4  -9    0.02    0.06
  -1  -4   9    0.01    0.03
   1  -4  -9    0.00    0.04
  -1  -4   9    0.13    0.07
  -1   4   9    0.00    0.04
   1   4  -9   -0.01    0.05
   1   4  -9    0.00    0.03
  -1   4   9   -0.01    0.05
   1   4  -9    0.01    0.03
   0  -4   9    8.83    0.18
   0  -4  -9    8.62    0.28
   0  -4   9    8.68    0.33
   0  -4   9    8.86    0.28
   0  -4  -9    8.36    0.29
   0   4   9    8.33    0.30
   0   4   9    8.94    0.25
   0   4  -9    9.25    0.32
   1  -4   9    4.39    0.23
  -1  -4  -9    4.22    0.23
   1  -4   9    4.63    0.25
  -1  -4  -9    4.31    0.20
  -1   4  -9    4.65    0.23
   1   4   9    4.42    0.24
   1   4   9    4.63    0.17
   2  -4   9    0.59    0.13
  -2  -4  -9    0.56    0.13
  -2  -4  -9    0.67    0.11
   2  -4   9    0.64    0.13
   2   4   9    0.77    0.14
  -2   4  -9    0.69    0.13
  -3  -4  -9   -0.03    0.06
   3  -4   9   -0.03    0.07
  -3   4  -9   -0.03    0.07
  -3   4  -9   -0.03    0.07
   3   4   9    0.01    0.08
  -4  -4  -9    0.24    0.12
   4  -4   9    0.20    0.12
  -4   4  -9    0.17    0.12
   4   4   9   -0.10    0.09
   5  -5  -9   -0.01    0.10
  -5  -5   9    0.11    0.12
  -5   5   9   -0.07    0.11
   5   5  -9    0.04    0.12
   5   5  -9    0.16    0.12
   4  -5  -9    0.00    0.08
  -4  -5   9    0.02    0.09
   4   5  -9   -0.01    0.06
  -4   5   9    0.10    0.11
   4   5  -9    0.09    0.09
   3  -5  -9    1.89    0.22
  -3  -5   9    2.25    0.23
  -3   5   9    1.62    0.20
   3   5  -9    1.57    0.19
  -3   5   9    1.98    0.16
   3   5  -9    2.27    0.19
   2  -5  -9    7.52    0.24
  -2  -5   9    8.29    0.35
   2  -5  -9    7.91    0.32
  -2   5   9    7.84    0.31
  -2   5   9    7.44    0.29
   2   5  -9    8.58    0.31
   2   5  -9    8.41    0.35
  -1  -5   9    4.78    0.25
  -1  -5   9    4.18    0.18
   1  -5  -9    4.74    0.20
   1  -5  -9    4.31    0.22
  -1   5   9    4.37    0.20
   1   5  -9    4.73    0.25
  -1   5   9    4.55    0.23
   1   5  -9    4.63    0.17
   0  -5  -9    0.05    0.06
   0  -5   9    0.01    0.07
   0  -5  -9    0.06    0.06
   0   5  -9    0.02    0.04
   0   5  -9    0.02    0.06
   0   5   9    0.14    0.05
   0   5   9    0.09    0.07
   1  -5   9    9.89    0.38
  -1  -5  -9   10.09    0.32
  -1  -5  -9    9.56    0.35
  -1   5  -9    9.69    0.35
   1   5   9   10.15    0.37
  -1   5  -9    9.26    0.33
   2  -5   9    0.63    0.14
  -2  -5  -9    0.44    0.10
  -2  -5  -9    0.46    0.11
   2   5   9    0.60    0.13
  -2   5  -9    0.52    0.12
  -2   5  -9    0.42    0.10
   3  -5   9    0.14    0.10
  -3  -5  -9    0.27    0.12
  -3   5  -9    0.32    0.11
   3   5   9    0.44    0.13
  -3   5  -9    0.21    0.10
  -4  -5  -9    0.06    0.10
   4  -5   9    0.08    0.11
  -4   5  -9   -0.09    0.06
   4   5   9   -0.01    0.10
  -4  -6   9    0.34    0.13
  -4  -6   9    0.34    0.13
   4  -6  -9    0.32    0.12
  -4   6   9    0.50    0.14
   4   6  -9    0.29    0.12
   4   6  -9    0.61    0.16
   3  -6  -9    0.38    0.11
  -3  -6   9    0.82    0.16
  -3  -6   9    0.45    0.12
  -3   6   9    0.42    0.12
   3   6  -9    0.69    0.14
  -3   6   9    0.47    0.10
  -2  -6   9    0.00    0.08
  -2  -6   9    0.02    0.06
   2  -6  -9   -0.07    0.06
  -2   6   9    0.09    0.06
   2   6  -9    0.06    0.08
  -2   6   9   -0.02    0.05
  -1  -6   9    0.01    0.07
   1  -6  -9    0.03    0.06
   1  -6  -9    0.14    0.06
  -1  -6   9    0.00    0.04
   1   6  -9    0.07    0.04
  -1   6   9    0.02    0.06
  -1   6   9    0.01    0.05
   1   6  -9    0.03    0.06
   0  -6  -9    0.06    0.05
   0  -6   9    0.09    0.08
   0  -6  -9    0.02    0.07
   0   6   9   -0.01    0.04
   0   6  -9    0.08    0.08
   0   6   9   -0.06    0.05
   0   6  -9    0.05    0.06
  -1  -6  -9    1.45    0.18
   1  -6   9    0.90    0.15
  -1  -6  -9    0.90    0.13
  -1   6  -9    0.86    0.13
   1   6   9    1.14    0.16
  -1   6  -9    0.92    0.14
  -2  -6  -9    0.09    0.08
  -2  -6  -9    0.01    0.07
   2  -6   9    0.07    0.08
  -2   6  -9    0.13    0.08
  -2   6  -9    0.08    0.10
   2   6   9   -0.02    0.07
  -3  -6  -9    0.03    0.08
  -3  -6  -9    0.04    0.10
   3  -6   9   -0.04    0.07
   3   6   9    0.16    0.11
  -3   6  -9    0.00    0.09
   4  -6   9    0.34    0.15
  -4  -6  -9   -0.11    0.09
  -4   6  -9    0.07    0.09
   4   6   9    0.18    0.14
   4  -7  -9    0.44    0.14
  -4  -7   9    0.88    0.18
  -4  -7   9    0.62    0.15
   4   7  -9    0.54    0.16
  -4   7   9    0.58    0.16
  -3  -7   9    0.60    0.15
  -3  -7   9    0.41    0.11
   3  -7  -9    0.49    0.12
   3   7  -9    0.33    0.13
  -3   7   9    0.26    0.11
  -3   7   9    0.33    0.10
   2  -7  -9    2.95    0.22
  -2  -7   9    2.68    0.19
  -2  -7   9    3.08    0.23
   2   7  -9    2.90    0.22
  -2   7   9    2.87    0.20
  -2   7   9    3.22    0.22
  -1  -7   9    6.28    0.31
   1  -7  -9    6.28    0.24
  -1  -7   9    6.20    0.24
   1  -7  -9    6.28    0.30
  -1   7   9    6.23    0.30
  -1   7   9    5.97    0.24
   1   7  -9    6.73    0.31
   1   7  -9    6.75    0.23
   0  -7  -9   11.59    0.39
   0  -7   9   12.26    0.43
   0  -7  -9   11.07    0.37
   0   7   9   11.24    0.40
   0   7  -9   11.88    0.37
   0   7  -9   11.77    0.39
  -1  -7  -9    2.31    0.22
   1  -7   9    2.52    0.25
  -1  -7  -9    2.01    0.21
   1   7   9    2.46    0.20
  -1   7  -9    2.25    0.20
  -1   7  -9    2.60    0.19
  -2  -7  -9    0.70    0.14
   2  -7   9    0.60    0.14
  -2  -7  -9    0.80    0.15
  -2   7  -9    0.77    0.15
   2   7   9    0.52    0.13
  -2   7  -9    1.02    0.15
  -3  -7  -9    0.05    0.08
   3  -7   9    0.00    0.09
  -3  -7  -9   -0.07    0.06
   3   7   9   -0.04    0.08
  -3   7  -9   -0.05    0.08
  -4  -8   9   -0.06    0.09
   4  -8  -9    0.00    0.07
  -4  -8   9    0.13    0.11
   4   8  -9   -0.08    0.09
  -4   8   9   -0.10    0.08
  -3  -8   9    0.05    0.08
  -3  -8   9   -0.04    0.07
   3  -8  -9    0.06    0.08
  -3   8   9    0.03    0.07
  -3   8   9   -0.01    0.06
   3   8  -9    0.10    0.09
  -2  -8   9    0.12    0.08
  -2  -8   9    0.16    0.09
   2  -8  -9    0.23    0.09
  -2   8   9    0.09    0.08
  -2   8   9    0.00    0.06
   2   8  -9    0.00    0.07
   1  -8  -9    1.28    0.14
  -1  -8   9    1.00    0.17
   1  -8  -9    1.05    0.16
  -1  -8   9    1.30    0.14
   1   8  -9    1.42    0.19
  -1   8   9    1.28    0.14
   1   8  -9    1.09    0.13
  -1   8   9    0.97    0.16
   0  -8  -9    1.79    0.19
   0  -8   9    1.42    0.19
   0  -8  -9    1.50    0.19
   0   8  -9    1.56    0.18
   0   8  -9    1.66    0.17
   0   8   9    1.46    0.19
   1  -8   9    3.48    0.26
  -1  -8  -9    3.52    0.23
  -1  -8  -9    3.28    0.23
  -1   8  -9    2.72    0.20
  -1   8  -9    3.60    0.24
   1   8   9    3.13    0.23
  -2  -8  -9    0.10    0.09
  -2  -8  -9    0.12    0.09
   2  -8   9    0.09    0.10
  -2   8  -9   -0.04    0.08
  -2   8  -9    0.10    0.09
   2   8   9    0.07    0.09
  -3  -8  -9   -0.01    0.08
   3  -8   9    0.05    0.10
  -3  -8  -9    0.10    0.09
   3   8   9   -0.04    0.09
  -3   8  -9   -0.08    0.07
  -4  -9   9   -0.11    0.08
   4  -9  -9   -0.03    0.09
  -4  -9   9   -0.11    0.09
   4   9  -9   -0.07    0.09
  -4   9   9   -0.13    0.07
  -4   9   9    0.16    0.10
  -3  -9   9   -0.11    0.08
  -3  -9   9    0.04    0.09
   3  -9  -9    0.06    0.08
  -3   9   9    0.04    0.08
   3   9  -9    0.22    0.12
  -3   9   9    0.05    0.07
  -2  -9   9    0.51    0.12
   2  -9  -9    0.12    0.10
  -2  -9   9    0.35    0.11
  -2   9   9    0.29    0.12
  -2   9   9    0.16    0.08
   2   9  -9    0.48    0.13
  -1  -9   9    3.32    0.20
   1  -9  -9    3.38    0.24
  -1  -9   9    3.07    0.24
  -1   9   9    3.49    0.25
   1   9  -9    2.64    0.22
   0  -9   9    1.81    0.22
   0  -9  -9    1.77    0.19
   0  -9  -9    1.87    0.21
   0   9   9    1.91    0.22
   0   9  -9    1.38    0.17
   0   9  -9    1.50    0.18
   1  -9   9    2.01    0.25
  -1  -9  -9    1.84    0.21
  -1  -9  -9    1.86    0.22
  -1   9  -9    1.98    0.20
  -1   9  -9    1.63    0.20
   1   9   9    1.62    0.21
   2  -9   9    0.13    0.10
  -2  -9  -9    0.12    0.09
  -2  -9  -9    0.26    0.11
  -2   9  -9    0.08    0.10
   2   9   9    0.21    0.13
   3  -9   9   -0.02    0.10
  -3  -9  -9    0.06    0.09
  -3  -9  -9   -0.05    0.08
  -3   9  -9   -0.09    0.08
   3   9   9    0.09    0.12
  -3 -10   9    0.23    0.11
   3 -10  -9    0.39    0.13
  -3 -10   9    0.32    0.12
  -3  10   9    0.39    0.12
  -3  10   9    0.32    0.12
   3  10  -9    0.37    0.14
   2 -10  -9    0.71    0.16
  -2 -10   9    0.69    0.14
  -2 -10   9    0.76    0.14
   2  10  -9    0.81    0.16
  -2  10   9    0.62    0.15
  -1 -10   9    0.06    0.08
   1 -10  -9   -0.08    0.08
  -1 -10   9    0.06    0.08
   1  10  -9    0.01    0.07
  -1  10   9    0.00    0.08
   0 -10  -9    1.28    0.20
   0 -10  -9    1.09    0.16
   0 -10   9    0.55    0.14
   0  10   9    1.09    0.18
   0  10  -9    1.23    0.18
   0  10  -9    1.14    0.16
  -1 -10  -9    0.04    0.08
  -1 -10  -9    0.16    0.11
   1 -10   9   -0.07    0.07
   1  10   9    0.07    0.11
  -1  10  -9   -0.04    0.09
  -1  10  -9    0.06    0.07
  -2 -10  -9    1.08    0.19
   2 -10   9    1.35    0.22
  -2 -10  -9    1.42    0.21
   2  10   9    1.79    0.24
  -2  10  -9    1.45    0.22
  -3 -10  -9    0.18    0.13
  -3 -10  -9    0.22    0.13
   3 -10   9    0.24    0.13
  -3  10  -9    0.24    0.13
   3  10   9    0.11    0.12
  -3 -11   9    1.56    0.24
   3 -11  -9    1.54    0.24
  -3 -11   9    1.57    0.22
   3  11  -9    1.31    0.23
  -3  11   9    1.26    0.21
  -3  11   9    1.17    0.20
  -2 -11   9    0.06    0.09
   2 -11  -9    0.26    0.11
  -2 -11   9    0.06    0.09
   2  11  -9    0.11    0.09
  -2  11   9    0.08    0.10
  -1 -11   9   -0.02    0.08
   1 -11  -9    0.05    0.09
  -1  11   9    0.02    0.08
   1  11  -9    0.06    0.09
   0 -11  -9   -0.01    0.07
   0 -11  -9    0.00    0.07
   0 -11   9   -0.10    0.08
   0  11   9   -0.03    0.08
   0  11  -9    0.02    0.07
   0  11  -9   -0.01    0.08
   1 -11   9    4.45    0.32
  -1 -11  -9    4.22    0.28
  -1 -11  -9    4.21    0.31
   1  11   9    3.98    0.29
  -1  11  -9    3.83    0.28
   2 -11   9    0.12    0.10
  -2 -11  -9    0.15    0.11
  -2 -11  -9    0.13    0.11
  -2  11  -9    0.05    0.09
   2  11   9    0.13    0.12
   2 -12  -9    1.23    0.21
  -2 -12   9    1.12    0.19
  -2 -12   9    1.44    0.21
  -2  12   9    0.82    0.17
   2  12  -9    0.70    0.16
   1 -12  -9    0.08    0.10
  -1 -12   9    0.08    0.09
  -1  12   9    0.05    0.09
   1  12  -9   -0.06    0.07
   0 -12  -9    0.03    0.09
   0 -12   9   -0.10    0.08
   0  12  -9   -0.01    0.08
   0  12   9   -0.04    0.08
   0  12  -9    0.01    0.08
  -1 -12  -9    0.01    0.09
   1 -12   9    0.06    0.10
  -1 -12  -9    0.02    0.09
   1  12   9    0.17    0.12
  -1  12  -9   -0.01    0.09
  -2 -12  -9    0.12    0.10
   2 -12   9    0.17    0.13
  -2 -12  -9    0.00    0.09
   2  12   9    0.36    0.15
  -2  12  -9    0.05    0.10
   2 -13  -9    0.64    0.17
  -2 -13   9    0.33    0.12
   2  13  -9    0.47    0.15
  -2  13   9    0.47    0.16
  -1 -13   9    0.20    0.10
   1 -13  -9    0.06    0.10
  -1  13   9    0.11    0.11
   1  13  -9    0.08    0.10
   0 -13  -9    0.21    0.12
   0 -13   9    0.44    0.14
   0  13  -9    0.48    0.14
   0  13  -9    0.50    0.13
   0  13   9    0.81    0.18
  -1 -13  -9   -0.01    0.08
  -1 -13  -9    0.08    0.11
   1 -13   9    0.05    0.10
  -1  13  -9    0.01    0.10
   1  13   9    0.21    0.14
   0 -14  -9    0.80    0.19
   0 -14   9    1.05    0.21
   0  14   9    1.00    0.23
   5   0 -10    0.00    0.09
  -5   0  10   -0.03    0.10
   4   0 -10    1.49    0.21
  -4   0  10    1.78    0.25
   4   0 -10    1.44    0.19
  -3   0  10    0.06    0.09
   3   0 -10    0.02    0.06
   3   0 -10    0.09    0.09
  -2   0  10   36.68    0.78
  -2   0  10   36.80    0.58
   2   0 -10   37.65    0.72
   2   0 -10   36.79    0.71
  -1   0  10    8.70    0.26
   1   0 -10    8.74    0.26
  -1   0  10    9.01    0.32
   1   0 -10    8.37    0.30
   0   0  10    1.50    0.13
   0   0 -10    1.55    0.08
   0   0 -10    1.64    0.17
   0   0  10    1.54    0.16
   1   0  10    1.35    0.15
  -1   0 -10    1.46    0.17
   1   0  10    1.70    0.18
   2   0  10   -0.07    0.06
  -2   0 -10    0.05    0.07
   2   0  10    0.04    0.06
   3   0  10   -0.08    0.05
  -3   0 -10   -0.10    0.06
   3   0  10   -0.03    0.07
  -4   0 -10    0.36    0.14
   4   0  10    0.58    0.16
  -5  -1  10   -0.01    0.10
   5  -1 -10   -0.03    0.08
   5   1 -10   -0.20    0.07
  -5   1  10   -0.05    0.08
  -4  -1  10    0.37    0.15
   4  -1 -10    0.24    0.11
   4   1 -10    0.54    0.13
  -4   1  10    0.26    0.12
   4   1 -10    0.33    0.11
   3  -1 -10   48.50    0.87
  -3  -1  10   49.01    1.01
   3  -1 -10   48.56    0.95
   3   1 -10   49.59    0.95
   3   1 -10   47.01    0.91
  -3   1  10   48.89    1.00
   2  -1 -10    3.56    0.20
  -2  -1  10    3.29    0.22
   2  -1 -10    3.62    0.20
  -2   1  10    3.23    0.15
   2   1 -10    3.55    0.20
   2   1 -10    3.74    0.21
  -2   1  10    3.37    0.22
  -1  -1  10    4.82    0.24
  -1  -1  10    4.70    0.18
   1  -1 -10    5.55    0.24
   1  -1 -10    4.51    0.19
  -1   1  10    4.92    0.20
   1   1 -10    4.69    0.23
  -1   1  10    3.47    0.20
   1   1 -10    4.70    0.18
   0  -1 -10    0.09    0.06
   0  -1  10    0.11    0.06
   0  -1  10    0.09    0.07
   0  -1 -10    0.20    0.05
   0   1  10    0.07    0.05
   0   1 -10    0.11    0.06
   0   1  10    0.13    0.06
   0   1 -10    0.14    0.03
   1  -1  10    1.78    0.18
   1  -1  10    1.58    0.17
  -1  -1 -10    1.64    0.18
   1   1  10    1.70    0.18
   1   1  10    1.53    0.13
  -1   1 -10    1.62    0.18
  -2  -1 -10    1.83    0.20
   2  -1  10    1.76    0.19
   2  -1  10    1.77    0.21
   2   1  10    1.72    0.14
   2   1  10    1.79    0.21
  -2   1 -10    1.50    0.18
   3  -1  10    0.20    0.10
   3  -1  10    0.18    0.10
  -3  -1 -10    0.30    0.12
   3   1  10    0.26    0.09
  -3   1 -10    0.17    0.09
   3   1  10    0.39    0.13
   4  -1  10    0.20    0.13
  -4  -1 -10    0.17    0.11
   4  -1  10    0.17    0.10
   4   1  10    0.09    0.12
  -4   1 -10    0.12    0.09
  -5  -2  10    0.17    0.14
   5  -2 -10    0.19    0.12
   5   2 -10    0.14    0.13
  -5   2  10    0.09    0.11
  -4  -2  10   -0.15    0.06
   4  -2 -10    0.00    0.07
   4   2 -10    0.00    0.06
   4   2 -10   -0.07    0.07
  -4   2  10   -0.06    0.08
   3  -2 -10    0.06    0.08
  -3  -2  10    0.10    0.09
   3  -2 -10    0.11    0.06
  -3   2  10    0.32    0.11
   3   2 -10    0.12    0.09
   3   2 -10    0.21    0.09
   2  -2 -10    0.01    0.05
   2  -2 -10   -0.04    0.04
  -2  -2  10    0.04    0.07
   2   2 -10   -0.04    0.05
   2   2 -10   -0.03    0.05
  -2   2  10   -0.04    0.04
  -2   2  10    0.02    0.06
  -1  -2  10    0.49    0.11
  -1  -2  10    0.54    0.08
   1  -2 -10    0.63    0.09
   1  -2 -10    0.41    0.09
  -1   2  10    0.50    0.09
   1   2 -10    0.34    0.09
  -1   2  10    0.62    0.11
   1   2 -10    0.39    0.07
   0  -2 -10    0.01    0.06
   0  -2 -10    0.04    0.04
   0  -2  10    0.02    0.05
   0  -2  10    0.02    0.06
   0   2 -10    0.14    0.07
   0   2  10    0.02    0.05
   0   2  10    0.05    0.06
   1  -2  10    1.73    0.18
  -1  -2 -10    1.86    0.11
  -1  -2 -10    2.01    0.17
   1  -2  10    1.99    0.20
   1   2  10    1.72    0.18
  -1   2 -10    1.66    0.18
   1   2  10    1.76    0.13
   2  -2  10    0.72    0.13
  -2  -2 -10    1.11    0.17
   2  -2  10    0.92    0.15
   2   2  10    0.88    0.16
  -2   2 -10    0.94    0.15
   2   2  10    0.87    0.12
  -3  -2 -10    0.07    0.08
   3  -2  10    0.02    0.08
   3  -2  10   -0.02    0.06
  -3   2 -10    0.06    0.08
   3   2  10    0.04    0.08
   4  -2  10    0.37    0.15
   4  -2  10    0.23    0.12
  -4  -2 -10    0.07    0.09
  -4   2 -10    0.29    0.12
   4   2  10    0.39    0.15
   5  -3 -10   -0.03    0.08
  -5  -3  10    0.03    0.10
   5   3 -10   -0.01    0.09
   5   3 -10    0.03    0.09
  -5   3  10    0.07    0.11
  -4  -3  10    1.17    0.21
   4  -3 -10    1.23    0.20
  -4   3  10    1.10    0.20
   4   3 -10    0.82    0.17
   4   3 -10    0.99    0.17
   3  -3 -10    1.29    0.14
   3  -3 -10    1.36    0.19
  -3  -3  10    1.46    0.21
   3   3 -10    1.72    0.20
   3   3 -10    1.15    0.16
  -3   3  10    1.23    0.18
   2  -3 -10   15.92    0.45
   2  -3 -10   14.80    0.39
  -2  -3  10   15.52    0.48
  -2   3  10   14.86    0.45
   2   3 -10   15.72    0.42
   2   3 -10   16.20    0.48
  -2   3  10   16.04    0.40
  -1  -3  10    1.40    0.17
   1  -3 -10    1.76    0.14
   1  -3 -10    1.36    0.14
  -1  -3  10    1.67    0.11
  -1   3  10    1.64    0.14
  -1   3  10    1.73    0.14
   1   3 -10    1.59    0.11
   1   3 -10    1.47    0.17
   0  -3  10    0.37    0.10
   0  -3 -10    0.36    0.07
   0  -3 -10    0.33    0.09
   0  -3  10    0.45    0.09
   0   3 -10    0.50    0.11
   0   3  10    0.35    0.09
   0   3  10    0.42    0.08
  -1  -3 -10    0.06    0.08
  -1  -3 -10    0.20    0.06
   1  -3  10    0.20    0.08
   1  -3  10    0.24    0.08
   1   3  10    0.26    0.07
   1   3  10    0.16    0.08
  -1   3 -10    0.16    0.09
   2  -3  10    0.58    0.13
   2  -3  10    0.50    0.12
  -2  -3 -10    0.43    0.12
  -2   3 -10    0.61    0.12
   2   3  10    0.47    0.12
  -3  -3 -10    0.04    0.08
   3  -3  10    0.08    0.09
   3  -3  10   -0.02    0.07
   3   3  10   -0.01    0.08
  -3   3 -10    0.13    0.10
   4  -3  10    0.04    0.09
  -4  -3 -10    0.11    0.10
  -4   3 -10    0.14    0.10
   4   3  10    0.15    0.14
   5  -4 -10    0.07    0.10
  -5  -4  10    0.16    0.14
   5   4 -10    0.04    0.11
  -5   4  10    0.30    0.14
   5   4 -10    0.34    0.14
  -4  -4  10    0.87    0.19
   4  -4 -10    0.47    0.14
   4   4 -10    0.41    0.13
  -4   4  10    0.63    0.16
   4   4 -10    0.38    0.12
   3  -4 -10    0.03    0.07
  -3  -4  10   -0.01    0.08
  -3   4  10    0.04    0.06
   3   4 -10    0.05    0.07
  -3   4  10    0.05    0.09
   3   4 -10    0.12    0.08
  -2  -4  10    2.13    0.23
   2  -4 -10    1.72    0.13
   2  -4 -10    1.57    0.17
   2   4 -10    1.78    0.20
  -2   4  10    1.76    0.19
   2   4 -10    1.85    0.15
  -2   4  10    1.83    0.15
  -1  -4  10    0.09    0.08
   1  -4 -10    0.04    0.05
  -1  -4  10    0.06    0.04
   1  -4 -10    0.06    0.06
   1   4 -10    0.01    0.04
  -1   4  10    0.08    0.06
  -1   4  10    0.09    0.06
   1   4 -10    0.08    0.07
   0  -4 -10    0.07    0.05
   0  -4 -10    0.03    0.06
   0  -4  10    0.03    0.05
   0  -4  10    0.06    0.07
   0   4  10   -0.06    0.05
   0   4 -10    0.01    0.06
   0   4  10    0.00    0.04
   1  -4  10    4.30    0.24
  -1  -4 -10    4.34    0.20
   1  -4  10    4.93    0.27
  -1  -4 -10    4.55    0.25
  -1   4 -10    4.57    0.24
   1   4  10    4.09    0.24
   1   4  10    4.23    0.17
  -2  -4 -10    1.35    0.18
   2  -4  10    1.09    0.16
  -2  -4 -10    1.14    0.14
   2  -4  10    0.91    0.15
  -2   4 -10    1.24    0.16
   2   4  10    1.08    0.17
   3  -4  10    0.04    0.08
  -3  -4 -10    0.02    0.08
   3   4  10    0.01    0.08
  -3   4 -10   -0.01    0.08
  -3   4 -10    0.03    0.09
  -4  -4 -10   -0.08    0.08
   4  -4  10    0.13    0.12
   4   4  10    0.05    0.12
  -4   4 -10    0.08    0.09
   4  -5 -10    0.06    0.08
  -4  -5  10    0.03    0.09
   4   5 -10   -0.08    0.08
   4   5 -10    0.10    0.09
  -4   5  10   -0.02    0.08
  -3  -5  10    5.67    0.33
   3  -5 -10    5.33    0.30
   3   5 -10    5.67    0.31
  -3   5  10    6.03    0.27
   3   5 -10    5.72    0.30
  -3   5  10    5.48    0.31
   2  -5 -10    0.74    0.13
  -2  -5  10    0.74    0.15
   2  -5 -10    0.53    0.09
   2   5 -10    0.47    0.12
  -2   5  10    0.50    0.10
  -2   5  10    0.56    0.11
   2   5 -10    0.63    0.11
   1  -5 -10    2.14    0.16
  -1  -5  10    2.44    0.21
  -1  -5  10    2.86    0.15
   1  -5 -10    2.50    0.18
  -1   5  10    2.74    0.19
  -1   5  10    3.01    0.18
   1   5 -10    2.96    0.15
   1   5 -10    2.67    0.20
   0  -5 -10    1.36    0.16
   0  -5 -10    1.60    0.16
   0  -5  10    1.24    0.17
   0   5 -10    1.03    0.13
   0   5  10    1.37    0.11
   0   5 -10    1.09    0.15
   0   5  10    1.46    0.17
   1  -5  10    0.16    0.08
  -1  -5 -10    0.24    0.09
  -1  -5 -10    0.24    0.08
  -1   5 -10    0.18    0.08
  -1   5 -10    0.24    0.09
   1   5  10    0.13    0.08
  -2  -5 -10    0.10    0.09
   2  -5  10    0.14    0.09
  -2  -5 -10    0.11    0.07
   2   5  10    0.08    0.08
  -2   5 -10    0.30    0.10
  -2   5 -10    0.20    0.10
   3  -5  10   -0.07    0.08
  -3  -5 -10    0.04    0.08
  -3   5 -10   -0.08    0.07
  -3   5 -10    0.05    0.08
   3   5  10    0.04    0.10
  -4  -5 -10   -0.02    0.09
   4  -5  10    0.03    0.11
  -4   5 -10    0.03    0.08
   4   5  10    0.04    0.11
  -4  -6  10    0.30    0.13
  -4  -6  10    0.20    0.10
   4  -6 -10    0.13    0.10
   4   6 -10    0.06    0.08
   4   6 -10    0.01    0.08
  -4   6  10    0.10    0.09
   3  -6 -10   -0.01    0.07
  -3  -6  10    0.03    0.09
  -3  -6  10    0.17    0.08
  -3   6  10   -0.03    0.07
  -3   6  10    0.16    0.07
   3   6 -10    0.19    0.10
  -2  -6  10    1.20    0.15
   2  -6 -10    1.30    0.18
  -2  -6  10    1.07    0.18
  -2   6  10    1.19    0.16
   2   6 -10    1.32    0.18
  -2   6  10    1.24    0.16
   1  -6 -10    0.93    0.14
   1  -6 -10    1.21    0.14
  -1  -6  10    0.82    0.15
  -1  -6  10    0.99    0.12
   1   6 -10    0.73    0.13
  -1   6  10    1.20    0.14
  -1   6  10    0.76    0.13
   1   6 -10    1.05    0.11
   0  -6  10    0.37    0.11
   0  -6 -10    0.27    0.09
   0  -6 -10    0.25    0.09
   0   6 -10    0.09    0.07
   0   6 -10    0.32    0.08
   0   6  10    0.22    0.09
   1  -6  10    1.55    0.20
  -1  -6 -10    1.76    0.18
  -1  -6 -10    1.40    0.19
  -1   6 -10    1.52    0.17
  -1   6 -10    1.27    0.17
   1   6  10    1.20    0.17
   2  -6  10    1.00    0.18
  -2  -6 -10    1.17    0.16
  -2  -6 -10    1.17    0.19
  -2   6 -10    1.13    0.16
   2   6  10    1.26    0.19
  -2   6 -10    1.25    0.19
   3  -6  10    0.09    0.10
  -3  -6 -10    0.05    0.09
   3   6  10    0.05    0.10
  -3   6 -10    0.05    0.10
  -4  -7  10    0.07    0.09
   4  -7 -10   -0.03    0.09
  -4  -7  10    0.05    0.09
  -4   7  10   -0.04    0.09
   4   7 -10    0.09    0.11
   3  -7 -10    0.86    0.17
  -3  -7  10    0.64    0.13
  -3  -7  10    0.84    0.17
  -3   7  10    0.62    0.14
  -3   7  10    0.64    0.14
   3   7 -10    0.54    0.14
   2  -7 -10    2.60    0.21
  -2  -7  10    2.38    0.18
  -2  -7  10    2.36    0.24
   2   7 -10    2.50    0.26
  -2   7  10    2.27    0.19
  -2   7  10    2.13    0.18
  -1  -7  10    1.83    0.22
   1  -7 -10    1.93    0.20
   1  -7 -10    1.85    0.15
  -1  -7  10    2.03    0.14
  -1   7  10    2.26    0.19
   1   7 -10    1.68    0.20
  -1   7  10    1.92    0.14
   0  -7 -10   -0.03    0.05
   0  -7  10    0.08    0.07
   0  -7 -10   -0.06    0.05
   0   7 -10    0.00    0.06
   0   7  10    0.01    0.06
   0   7 -10    0.00    0.05
  -1  -7 -10    3.92    0.25
  -1  -7 -10    3.61    0.23
   1  -7  10    3.59    0.26
  -1   7 -10    3.48    0.24
   1   7  10    3.53    0.25
  -1   7 -10    3.53    0.23
  -2  -7 -10    0.25    0.11
  -2  -7 -10    0.21    0.10
   2  -7  10    0.17    0.10
   2   7  10    0.27    0.11
  -2   7 -10    0.21    0.09
  -2   7 -10    0.16    0.10
   3  -7  10   -0.03    0.09
  -3  -7 -10   -0.05    0.07
  -3   7 -10    0.05    0.09
   3   7  10   -0.04    0.10
  -4  -8  10    0.07    0.09
  -4  -8  10   -0.09    0.09
   4  -8 -10    0.00    0.08
   4   8 -10    0.05    0.10
  -4   8  10   -0.04    0.08
  -3  -8  10   -0.04    0.09
   3  -8 -10   -0.03    0.06
  -3  -8  10   -0.09    0.06
  -3   8  10    0.10    0.09
   3   8 -10    0.02    0.10
  -3   8  10    0.12    0.08
  -2  -8  10    0.00    0.08
  -2  -8  10    0.02    0.07
   2  -8 -10    0.03    0.07
   2   8 -10    0.12    0.08
  -2   8  10    0.11    0.08
  -2   8  10    0.10    0.08
  -1  -8  10    0.92    0.17
   1  -8 -10    1.08    0.14
   1  -8 -10    1.04    0.17
  -1  -8  10    1.09    0.14
   1   8 -10    1.07    0.17
  -1   8  10    1.31    0.18
   0  -8  10   13.20    0.48
   0  -8 -10   13.29    0.43
   0  -8 -10   13.34    0.45
   0   8  10   12.76    0.46
   0   8 -10   13.74    0.43
   0   8 -10   13.11    0.45
  -1  -8 -10    0.86    0.16
  -1  -8 -10    1.14    0.17
   1  -8  10    0.68    0.15
  -1   8 -10    0.69    0.13
   1   8  10    0.72    0.15
  -1   8 -10    0.75    0.15
  -2  -8 -10    0.10    0.09
   2  -8  10    0.19    0.11
  -2  -8 -10    0.18    0.11
  -2   8 -10    0.32    0.12
   2   8  10    0.17    0.11
  -2   8 -10    0.08    0.08
  -3  -8 -10    0.01    0.09
  -3  -8 -10    0.08    0.10
   3  -8  10    0.08    0.12
  -3   8 -10   -0.04    0.09
   3   8  10   -0.05    0.10
   4  -9 -10    0.36    0.15
  -4  -9  10    0.33    0.13
  -4  -9  10    0.30    0.14
  -4   9  10    0.24    0.13
   4   9 -10    0.53    0.17
  -3  -9  10    0.01    0.09
   3  -9 -10    0.07    0.09
  -3  -9  10    0.17    0.11
  -3   9  10    0.24    0.10
   3   9 -10    0.18    0.11
  -3   9  10    0.13    0.11
   2  -9 -10    0.15    0.09
  -2  -9  10    0.07    0.09
  -2  -9  10    0.29    0.12
   2   9 -10    0.09    0.09
  -2   9  10    0.26    0.11
  -2   9  10    0.01    0.06
   1  -9 -10    0.03    0.08
  -1  -9  10   -0.02    0.08
   1   9 -10    0.07    0.08
  -1   9  10   -0.04    0.06
   0  -9 -10    0.62    0.14
   0  -9  10    0.48    0.13
   0  -9 -10    0.76    0.14
   0   9  10    0.66    0.14
   0   9 -10    0.68    0.14
   0   9 -10    0.57    0.12
   1  -9  10    0.45    0.13
  -1  -9 -10    0.51    0.14
  -1  -9 -10    0.73    0.15
   1   9  10    0.63    0.15
  -1   9 -10    0.29    0.11
  -1   9 -10    0.57    0.14
  -2  -9 -10    1.09    0.19
   2  -9  10    1.05    0.20
  -2  -9 -10    1.13    0.19
  -2   9 -10    0.66    0.16
   2   9  10    1.03    0.20
  -3  -9 -10    0.10    0.12
   3  -9  10    0.02    0.10
  -3  -9 -10    0.10    0.11
  -3   9 -10    0.13    0.12
   3   9  10   -0.02    0.10
  -3 -10  10   -0.06    0.08
  -3 -10  10   -0.11    0.09
   3 -10 -10    0.05    0.09
  -3  10  10    0.01    0.08
   3  10 -10    0.04    0.10
  -3  10  10    0.09    0.09
  -2 -10  10    0.12    0.10
  -2 -10  10    0.00    0.09
   2 -10 -10    0.23    0.11
  -2  10  10    0.00    0.08
   2  10 -10    0.06    0.08
   1 -10 -10    0.27    0.12
  -1 -10  10    0.10    0.09
   1  10 -10    0.23    0.11
  -1  10  10   -0.09    0.08
   0 -10 -10    1.80    0.23
   0 -10 -10    1.72    0.20
   0 -10  10    1.55    0.22
   0  10 -10    0.98    0.16
   0  10  10    1.39    0.20
   0  10 -10    1.47    0.20
   1 -10  10    0.37    0.14
  -1 -10 -10    0.57    0.14
  -1 -10 -10    0.49    0.14
   1  10  10    0.29    0.13
  -1  10 -10    0.34    0.12
  -1  10 -10    0.53    0.13
  -2 -10 -10    0.34    0.13
   2 -10  10    0.21    0.13
  -2 -10 -10    0.06    0.11
  -2  10 -10    0.24    0.11
   2  10  10    0.17    0.13
  -3 -11  10    0.10    0.11
   3 -11 -10    0.20    0.12
  -3 -11  10   -0.06    0.09
   3  11 -10    0.35    0.15
  -3  11  10    0.15    0.11
  -2 -11  10    0.20    0.10
   2 -11 -10   -0.01    0.08
  -2 -11  10    0.05    0.08
  -2  11  10   -0.01    0.10
   2  11 -10    0.04    0.09
   1 -11 -10    0.00    0.09
  -1 -11  10    0.03    0.07
   1  11 -10   -0.04    0.06
  -1  11  10   -0.05    0.08
   0 -11  10   -0.08    0.07
   0 -11 -10   -0.09    0.06
   0 -11 -10    0.31    0.12
   0  11 -10    0.22    0.11
   0  11  10    0.25    0.11
   0  11 -10    0.24    0.11
  -1 -11 -10    0.20    0.11
   1 -11  10    0.30    0.14
  -1 -11 -10    0.30    0.11
  -1  11 -10    0.32    0.13
   1  11  10    0.36    0.13
  -2 -11 -10    0.63    0.17
  -2 -11 -10    1.04    0.20
   2 -11  10    0.80    0.19
   2  11  10    0.75    0.18
  -2  11 -10    0.81    0.19
  -2 -12  10   -0.04    0.08
   2 -12 -10    0.00    0.10
   2  12 -10   -0.06    0.08
  -2  12  10    0.00    0.09
  -1 -12  10    0.44    0.15
   1 -12 -10    0.16    0.11
   1  12 -10    0.32    0.12
  -1  12  10    0.22    0.12
   0 -12 -10    0.41    0.15
   0 -12  10    0.45    0.14
   0  12  10    0.30    0.14
   0  12 -10    0.58    0.15
   0  12 -10    0.38    0.12
  -1 -12 -10    0.11    0.09
  -1 -12 -10   -0.01    0.07
   1 -12  10   -0.05    0.09
   1  12  10    0.04    0.12
  -1  12 -10   -0.01    0.08
  -1 -13  10   -0.05    0.08
   1 -13 -10   -0.03    0.11
  -1  13  10   -0.11    0.08
   1  13 -10   -0.04    0.08
   0 -13  10    0.16    0.10
   0 -13 -10    0.18    0.12
   0  13 -10    0.02    0.09
   0  13  10    0.03    0.10
  -1 -13 -10   -0.07    0.09
  -1 -13 -10    0.24    0.12
   1 -13  10    0.10    0.10
  -1  13 -10   -0.05    0.10
   1  13  10    0.14    0.15
   5   0 -11   -0.09    0.09
  -5   0  11   -0.13    0.10
   4   0 -11    0.05    0.07
  -4   0  11   -0.05    0.08
   4   0 -11    0.00    0.06
   3   0 -11   -0.07    0.05
   3   0 -11   -0.01    0.06
  -3   0  11    0.01    0.08
   2   0 -11    0.09    0.07
  -2   0  11    0.02    0.07
   2   0 -11    0.04    0.07
   1   0 -11    0.08    0.07
  -1   0  11    0.01    0.04
   1   0 -11   -0.02    0.04
  -1   0  11    0.01    0.06
   0   0 -11    0.00    0.06
   0   0 -11    0.04    0.03
   0   0  11    0.00    0.05
   0   0  11    0.04    0.06
   1   0  11    0.00    0.06
  -1   0 -11    0.01    0.06
   1   0  11   -0.04    0.05
  -2   0 -11    0.10    0.07
   2   0  11    0.04    0.06
   2   0  11   -0.03    0.06
   3   0  11    0.01    0.09
   3   0  11    0.03    0.07
  -3   0 -11    0.03    0.09
  -4   0 -11   -0.10    0.07
   4   0  11    0.03    0.10
  -5  -1  11    0.21    0.14
   5  -1 -11    0.04    0.11
   5   1 -11   -0.12    0.08
  -5   1  11   -0.01    0.10
   4  -1 -11    0.12    0.09
  -4  -1  11    0.08    0.11
  -4   1  11    0.09    0.10
   4   1 -11    0.03    0.08
   4   1 -11    0.31    0.12
   3  -1 -11    0.84    0.13
   3  -1 -11    0.47    0.12
  -3  -1  11    0.70    0.15
   3   1 -11    0.73    0.14
  -3   1  11    0.76    0.15
   3   1 -11    0.57    0.12
  -2  -1  11    2.81    0.22
   2  -1 -11    3.09    0.20
   2  -1 -11    2.81    0.19
  -2   1  11    2.86    0.15
  -2   1  11    3.43    0.23
   2   1 -11    2.95    0.21
   2   1 -11    3.04    0.19
   1  -1 -11    0.15    0.06
   1  -1 -11    0.25    0.08
  -1  -1  11    0.27    0.07
  -1  -1  11    0.19    0.08
  -1   1  11    0.13    0.07
   1   1 -11    0.28    0.08
   1   1 -11    0.37    0.07
  -1   1  11    0.17    0.06
   0  -1 -11    0.21    0.08
   0  -1 -11    0.21    0.05
   0  -1  11    0.13    0.06
   0  -1  11    0.14    0.08
   0   1 -11    0.23    0.08
   0   1  11    0.25    0.08
   0   1  11    0.21    0.08
   1  -1  11    0.72    0.13
   1  -1  11    1.05    0.15
  -1  -1 -11    0.65    0.12
  -1   1 -11    0.92    0.14
   1   1  11    0.61    0.11
   1   1  11    0.80    0.13
   2  -1  11    0.54    0.12
  -2  -1 -11    0.33    0.11
   2  -1  11    0.25    0.10
   2   1  11    0.32    0.11
  -2   1 -11    0.50    0.12
   2   1  11    0.32    0.09
   3  -1  11    0.04    0.08
  -3  -1 -11    0.08    0.09
   3  -1  11   -0.04    0.07
   3   1  11   -0.06    0.07
  -3   1 -11   -0.04    0.07
  -4  -1 -11    0.00    0.09
   4  -1  11    0.17    0.12
   4  -1  11    0.22    0.12
  -4   1 -11    0.17    0.11
   4   1  11    0.21    0.13
  -5  -2  11    0.22    0.14
   5  -2 -11    0.50    0.16
  -5   2  11    0.93    0.23
   5   2 -11    0.49    0.16
   4  -2 -11   -0.05    0.06
  -4  -2  11    0.17    0.11
   4   2 -11    0.17    0.11
  -4   2  11    0.15    0.11
   4   2 -11    0.22    0.11
  -3  -2  11    0.59    0.15
   3  -2 -11    0.46    0.12
   3  -2 -11    0.34    0.09
  -3   2  11    0.29    0.11
   3   2 -11    0.24    0.10
   3   2 -11    0.55    0.12
   2  -2 -11    2.06    0.20
   2  -2 -11    1.80    0.15
  -2  -2  11    1.92    0.22
   2   2 -11    1.84    0.15
  -2   2  11    1.87    0.14
  -2   2  11    1.92    0.21
   2   2 -11    1.52    0.18
  -1  -2  11    8.91    0.26
  -1  -2  11    8.65    0.35
   1  -2 -11    8.45    0.28
   1  -2 -11    9.02    0.31
  -1   2  11    8.01    0.29
   1   2 -11    8.88    0.25
  -1   2  11    8.77    0.32
   1   2 -11    8.74    0.34
   0  -2 -11    2.13    0.17
   0  -2  11    2.41    0.16
   0  -2  11    2.77    0.20
   0  -2 -11    2.25    0.13
   0   2 -11    2.16    0.17
   0   2  11    2.10    0.16
   0   2  11    2.27    0.16
   1  -2  11    0.90    0.15
   1  -2  11    0.74    0.13
  -1  -2 -11    0.64    0.13
   1   2  11    1.06    0.15
  -1   2 -11    0.72    0.13
   1   2  11    0.75    0.11
   2  -2  11    0.49    0.12
  -2  -2 -11    0.30    0.10
   2  -2  11    0.18    0.09
  -2   2 -11    0.19    0.09
   2   2  11    0.66    0.14
   2   2  11    0.27    0.08
   3  -2  11   -0.07    0.07
   3  -2  11    0.07    0.09
  -3  -2 -11   -0.07    0.08
  -3   2 -11    0.03    0.08
   3   2  11   -0.02    0.08
  -4  -2 -11    0.05    0.10
   4  -2  11   -0.03    0.09
   4  -2  11   -0.06    0.08
  -4   2 -11   -0.02    0.08
   4   2  11   -0.10    0.10
   4  -3 -11    0.26    0.12
  -4  -3  11    0.46    0.15
   4   3 -11    0.24    0.12
  -4   3  11    0.44    0.14
   4   3 -11    0.18    0.11
   3  -3 -11    0.14    0.07
  -3  -3  11   -0.05    0.07
   3  -3 -11    0.11    0.08
   3   3 -11    0.11    0.09
  -3   3  11   -0.02    0.07
   3   3 -11    0.02    0.07
   2  -3 -11    0.21    0.09
   2  -3 -11    0.25    0.08
  -2  -3  11    0.31    0.11
   2   3 -11    0.03    0.06
   2   3 -11    0.21    0.09
  -2   3  11    0.15    0.08
  -2   3  11    0.22    0.07
  -1  -3  11    1.48    0.18
   1  -3 -11    1.93    0.19
  -1  -3  11    1.87    0.12
   1  -3 -11    1.44    0.14
   1   3 -11    1.42    0.17
   1   3 -11    1.68    0.11
  -1   3  11    2.09    0.16
  -1   3  11    1.70    0.15
   0  -3 -11   -0.06    0.04
   0  -3  11    0.02    0.05
   0  -3 -11    0.01    0.06
   0  -3  11    0.06    0.07
   0   3  11    0.08    0.07
   0   3  11   -0.05    0.04
   0   3 -11   -0.10    0.07
  -1  -3 -11    4.05    0.19
   1  -3  11    3.96    0.23
   1  -3  11    4.33    0.26
  -1  -3 -11    3.93    0.24
  -1   3 -11    3.91    0.23
   1   3  11    4.22    0.25
   1   3  11    4.27    0.20
  -2  -3 -11    0.29    0.11
   2  -3  11    0.32    0.10
   2  -3  11    0.20    0.10
   2   3  11    0.19    0.10
  -2   3 -11    0.18    0.10
  -3  -3 -11    0.01    0.08
   3  -3  11   -0.04    0.07
   3  -3  11   -0.10    0.07
  -3   3 -11   -0.05    0.08
   3   3  11   -0.05    0.07
   4  -3  11   -0.09    0.09
  -4  -3 -11    0.16    0.11
   4   3  11    0.07    0.12
  -4   3 -11    0.02    0.08
  -4  -4  11    0.59    0.16
   4  -4 -11    0.77    0.17
   4   4 -11    0.91    0.17
  -4   4  11    0.66    0.16
   4   4 -11    0.72    0.17
  -3  -4  11   -0.03    0.08
   3  -4 -11   -0.04    0.06
   3   4 -11   -0.13    0.05
  -3   4  11   -0.06    0.07
   3   4 -11    0.02    0.07
   2  -4 -11    0.33    0.08
   2  -4 -11    0.30    0.09
  -2  -4  11    0.38    0.11
   2   4 -11    0.27    0.10
   2   4 -11    0.25    0.08
  -2   4  11    0.30    0.09
  -2   4  11    0.51    0.12
  -1  -4  11    0.00    0.08
   1  -4 -11    0.00    0.06
   1  -4 -11    0.04    0.06
  -1  -4  11    0.04    0.04
  -1  -4  11   -0.07    0.04
   1   4 -11    0.02    0.06
  -1   4  11   -0.04    0.05
  -1   4  11   -0.07    0.04
   0  -4 -11    0.91    0.12
   0  -4 -11    0.87    0.14
   0  -4  11    0.75    0.12
   0  -4  11    1.03    0.17
   0   4 -11    0.97    0.14
   0   4  11    1.20    0.16
   0   4  11    1.12    0.13
  -1  -4 -11    0.19    0.09
  -1  -4 -11    0.43    0.09
   1  -4  11    0.29    0.09
   1  -4  11    0.29    0.10
  -1   4 -11    0.38    0.10
   1   4  11    0.38    0.11
   2  -4  11    1.10    0.18
  -2  -4 -11    1.07    0.17
   2  -4  11    1.05    0.17
   2   4  11    1.29    0.18
  -2   4 -11    1.18    0.17
  -3  -4 -11   -0.10    0.06
   3  -4  11   -0.09    0.08
  -3   4 -11    0.08    0.09
   3   4  11   -0.07    0.07
  -3   4 -11   -0.04    0.09
  -4  -5  11    0.39    0.14
   4  -5 -11    0.54    0.15
   4   5 -11    0.42    0.15
  -4   5  11    0.42    0.14
   4   5 -11    0.16    0.11
   3  -5 -11    0.05    0.07
  -3  -5  11   -0.09    0.07
  -3   5  11   -0.02    0.08
  -3   5  11    0.05    0.07
   3   5 -11    0.01    0.09
   3   5 -11   -0.06    0.06
   2  -5 -11    1.42    0.15
  -2  -5  11    1.51    0.20
   2  -5 -11    1.67    0.19
   2   5 -11    1.55    0.16
   2   5 -11    1.47    0.19
  -2   5  11    1.41    0.18
  -2   5  11    1.64    0.18
   1  -5 -11    1.57    0.17
  -1  -5  11    1.40    0.13
  -1  -5  11    1.23    0.18
   1  -5 -11    1.36    0.16
   1   5 -11    1.27    0.11
  -1   5  11    1.57    0.18
  -1   5  11    1.48    0.16
   1   5 -11    1.15    0.16
   0  -5 -11    1.51    0.16
   0  -5  11    1.43    0.19
   0  -5 -11    1.39    0.17
   0   5 -11    1.39    0.16
   0   5  11    1.57    0.12
   0   5 -11    1.27    0.17
   0   5  11    1.49    0.18
   1  -5  11    1.37    0.17
  -1  -5 -11    1.27    0.14
   1  -5  11    1.30    0.18
  -1  -5 -11    1.54    0.19
  -1   5 -11    1.25    0.17
  -1   5 -11    1.08    0.16
   1   5  11    1.39    0.19
  -2  -5 -11    0.80    0.16
   2  -5  11    0.80    0.17
   2   5  11    0.58    0.15
  -2   5 -11    0.30    0.11
  -2   5 -11    0.62    0.14
   3  -5  11    0.03    0.11
  -3  -5 -11    0.36    0.13
  -3   5 -11    0.09    0.09
   3   5  11    0.40    0.14
  -3   5 -11    0.23    0.09
  -4  -6  11    0.36    0.14
  -4  -6  11    0.11    0.08
   4  -6 -11    0.16    0.11
  -4   6  11    0.13    0.11
   4   6 -11    0.23    0.13
   4   6 -11    0.17    0.11
   3  -6 -11    0.11    0.08
  -3  -6  11    0.09    0.08
  -3  -6  11    0.17    0.12
  -3   6  11    0.15    0.09
  -3   6  11   -0.02    0.07
   3   6 -11    0.02    0.09
  -2  -6  11    2.72    0.19
   2  -6 -11    2.38    0.20
  -2  -6  11    2.81    0.23
  -2   6  11    2.24    0.19
  -2   6  11    2.32    0.19
   2   6 -11    2.38    0.25
   1  -6 -11    1.64    0.18
  -1  -6  11    2.34    0.25
   1  -6 -11    1.80    0.18
  -1   6  11    1.58    0.14
  -1   6  11    2.28    0.19
   1   6 -11    1.87    0.21
   0  -6 -11   -0.03    0.06
   0  -6 -11   -0.03    0.05
   0  -6  11    0.02    0.07
   0   6 -11    0.02    0.06
   0   6 -11    0.04    0.07
   0   6  11   -0.02    0.06
  -1  -6 -11    0.00    0.07
   1  -6  11   -0.03    0.08
  -1  -6 -11   -0.01    0.06
  -1   6 -11    0.02    0.08
   1   6  11   -0.10    0.05
  -1   6 -11    0.05    0.08
   2  -6  11    1.86    0.23
  -2  -6 -11    1.71    0.22
   2   6  11    1.83    0.23
  -2   6 -11    2.30    0.23
  -2   6 -11    2.01    0.24
   3  -6  11   -0.06    0.08
  -3  -6 -11   -0.01    0.09
  -3   6 -11    0.00    0.09
   3   6  11   -0.11    0.08
   4  -7 -11    0.61    0.16
  -4  -7  11    0.43    0.15
  -4  -7  11    0.63    0.16
  -4   7  11    0.47    0.14
   4   7 -11    0.76    0.19
  -3  -7  11    1.50    0.20
   3  -7 -11    1.73    0.24
  -3  -7  11    1.60    0.23
  -3   7  11    1.81    0.23
  -3   7  11    1.74    0.21
   3   7 -11    1.93    0.25
  -2  -7  11    0.16    0.07
  -2  -7  11    0.14    0.11
   2  -7 -11    0.28    0.10
  -2   7  11    0.03    0.07
   2   7 -11    0.24    0.11
  -2   7  11    0.15    0.09
  -1  -7  11    2.80    0.24
   1  -7 -11    2.75    0.18
   1  -7 -11    2.79    0.21
   1   7 -11    2.88    0.23
  -1   7  11    2.50    0.17
  -1   7  11    2.86    0.22
   0  -7 -11    2.66    0.20
   0  -7  11    2.03    0.23
   0  -7 -11    2.09    0.18
   0   7 -11    2.31    0.18
   0   7 -11    2.43    0.21
   0   7  11    2.37    0.21
  -1  -7 -11    2.53    0.20
   1  -7  11    2.33    0.26
  -1  -7 -11    2.67    0.23
   1   7  11    2.31    0.24
  -1   7 -11    2.60    0.22
  -1   7 -11    2.37    0.23
  -2  -7 -11    1.07    0.19
   2  -7  11    0.81    0.16
  -2  -7 -11    1.29    0.18
  -2   7 -11    1.08    0.19
   2   7  11    0.97    0.18
  -2   7 -11    1.11    0.17
  -3  -7 -11   -0.06    0.08
   3  -7  11   -0.08    0.10
  -3   7 -11   -0.08    0.08
   3   7  11   -0.02    0.10
   4  -8 -11    0.18    0.11
  -4  -8  11    0.08    0.11
  -4  -8  11    0.00    0.11
  -4   8  11    0.11    0.11
   4   8 -11    0.19    0.13
  -3  -8  11    0.25    0.13
  -3  -8  11    0.32    0.12
   3  -8 -11    0.56    0.15
  -3   8  11    0.48    0.13
  -3   8  11    0.60    0.15
   3   8 -11    0.42    0.13
   2  -8 -11    0.36    0.12
  -2  -8  11    0.04    0.09
  -2  -8  11    0.10    0.08
   2   8 -11    0.10    0.09
  -2   8  11    0.09    0.08
  -2   8  11    0.10    0.08
   1  -8 -11    0.04    0.07
   1  -8 -11   -0.05    0.05
  -1  -8  11    0.00    0.08
  -1   8  11    0.00    0.07
   1   8 -11   -0.04    0.06
   0  -8 -11    0.12    0.08
   0  -8  11    0.16    0.10
   0  -8 -11    0.14    0.09
   0   8 -11    0.28    0.10
   0   8 -11    0.00    0.07
   0   8  11    0.12    0.09
  -1  -8 -11    4.31    0.28
   1  -8  11    3.91    0.29
  -1  -8 -11    4.54    0.27
   1   8  11    4.37    0.29
  -1   8 -11    4.06    0.25
  -1   8 -11    4.92    0.30
   2  -8  11    0.01    0.09
  -2  -8 -11   -0.10    0.06
  -2  -8 -11    0.14    0.11
  -2   8 -11   -0.12    0.06
   2   8  11   -0.06    0.09
  -2   8 -11    0.00    0.08
   3  -8  11    0.07    0.09
  -3  -8 -11   -0.04    0.08
   3   8  11    0.11    0.12
  -3   8 -11   -0.01    0.09
   3  -9 -11   -0.06    0.07
  -3  -9  11    0.07    0.10
  -3  -9  11    0.00    0.09
  -3   9  11    0.06    0.08
  -3   9  11    0.15    0.10
   3   9 -11    0.00    0.09
  -2  -9  11    0.09    0.10
  -2  -9  11    0.10    0.08
   2  -9 -11    0.05    0.08
   2   9 -11   -0.06    0.06
  -2   9  11   -0.06    0.06
   1  -9 -11    0.07    0.08
  -1  -9  11    0.05    0.09
  -1   9  11    0.14    0.09
   1   9 -11    0.18    0.10
   0  -9 -11    1.87    0.23
   0  -9  11    1.75    0.22
   0  -9 -11    1.74    0.20
   0   9 -11    1.47    0.20
   0   9 -11    1.46    0.18
   0   9  11    1.65    0.21
  -1  -9 -11   -0.01    0.09
   1  -9  11   -0.02    0.09
  -1  -9 -11    0.00    0.07
  -1   9 -11    0.08    0.11
  -1   9 -11    0.20    0.10
   1   9  11    0.09    0.10
  -2  -9 -11   -0.03    0.07
   2  -9  11   -0.03    0.09
  -2  -9 -11   -0.04    0.08
   2   9  11    0.07    0.10
  -2   9 -11    0.00    0.09
  -3 -10  11    0.20    0.12
   3 -10 -11    0.19    0.11
  -3 -10  11    0.05    0.09
  -3  10  11    0.23    0.12
  -3  10  11    0.29    0.12
   3  10 -11    0.27    0.12
   2 -10 -11    0.28    0.13
  -2 -10  11    0.33    0.14
  -2  10  11    0.12    0.10
   2  10 -11    0.09    0.10
  -1 -10  11    0.88    0.17
   1 -10 -11    0.91    0.19
  -1  10  11    0.92    0.18
   1  10 -11    0.83    0.17
   0 -10 -11    0.41    0.12
   0 -10 -11    0.39    0.12
   0 -10  11    0.49    0.15
   0  10 -11    0.22    0.10
   0  10 -11    0.23    0.11
   0  10  11    0.26    0.11
  -1 -10 -11    1.14    0.19
   1 -10  11    1.20    0.21
  -1 -10 -11    0.62    0.16
   1  10  11    0.82    0.17
  -1  10 -11    0.95    0.17
  -1  10 -11    0.83    0.17
  -2 -10 -11    1.58    0.24
  -2 -10 -11    1.49    0.22
   2 -10  11    1.11    0.22
  -2  10 -11    1.43    0.22
   2  10  11    2.08    0.28
  -2 -11  11    0.05    0.10
   2 -11 -11    0.19    0.10
   2  11 -11   -0.01    0.09
  -2  11  11    0.03    0.09
   1 -11 -11    0.21    0.11
  -1 -11  11    0.15    0.10
  -1  11  11    0.08    0.10
   1  11 -11    0.40    0.13
   0 -11  11    0.32    0.13
   0 -11 -11    0.67    0.16
   0 -11 -11    0.47    0.13
   0  11 -11    0.26    0.11
   0  11 -11    0.19    0.11
   0  11  11    0.50    0.15
   1 -11  11    0.30    0.14
  -1 -11 -11    0.12    0.12
  -1 -11 -11    0.17    0.11
   1  11  11    0.16    0.11
  -1  11 -11    0.23    0.12
  -2 -11 -11    1.17    0.21
  -2 -11 -11    1.14    0.21
   2 -11  11    1.04    0.21
  -2  11 -11    0.70    0.17
   2  11  11    1.52    0.26
  -2 -12  11    3.83    0.31
   2 -12 -11    3.29    0.36
   2  12 -11    2.44    0.29
  -2  12  11    2.98    0.32
   1 -12 -11   -0.02    0.08
  -1 -12  11   -0.01    0.09
  -1  12  11   -0.05    0.09
   1  12 -11    0.06    0.10
   0 -12  11   -0.01    0.09
   0 -12 -11    0.02    0.09
   0  12 -11    0.05    0.09
   0  12  11   -0.01    0.10
  -1 -12 -11    0.12    0.09
   1 -12  11   -0.06    0.09
  -1 -12 -11    0.07    0.10
  -1  12 -11    0.07    0.10
   1  12  11    0.19    0.14
   1 -13 -11    1.21    0.22
   0 -13  11    0.63    0.18
   0 -13 -11    0.39    0.15
   0  13 -11    0.46    0.14
   0  13  11    0.27    0.14
   4   0 -12    0.28    0.10
  -4   0  12    0.14    0.11
   4   0 -12    0.11    0.09
   3   0 -12    0.83    0.15
   3   0 -12    1.07    0.16
  -3   0  12    1.07    0.19
   2   0 -12   36.21    0.76
  -2   0  12   36.01    0.81
   2   0 -12   35.69    0.71
   1   0 -12    7.45    0.32
  -1   0  12    7.66    0.33
   1   0 -12    7.14    0.24
  -1   0  12    7.42    0.26
   0   0  12    2.42    0.17
   0   0 -12    1.64    0.19
   0   0  12    2.26    0.19
   1   0  12    1.28    0.16
  -1   0 -12    1.12    0.17
   1   0  12    1.26    0.17
   2   0  12    1.38    0.20
   2   0  12    1.22    0.17
  -2   0 -12    1.04    0.18
  -3   0 -12    0.50    0.14
   3   0  12    0.72    0.17
   3   0  12    0.48    0.13
  -4  -1  12    0.17    0.12
   4  -1 -12    0.40    0.13
   4   1 -12    0.19    0.10
   4   1 -12    0.30    0.12
  -4   1  12    0.03    0.10
   3  -1 -12    1.47    0.18
  -3  -1  12    1.57    0.22
   3  -1 -12    1.91    0.21
   3   1 -12    1.71    0.20
   3   1 -12    2.19    0.23
  -3   1  12    1.94    0.23
   2  -1 -12   34.39    0.71
   2  -1 -12   33.94    0.73
  -2  -1  12   34.94    0.80
  -2   1  12   35.80    0.80
  -2   1  12   34.64    0.63
   2   1 -12   35.03    0.70
   2   1 -12   34.37    0.75
   1  -1 -12    0.03    0.07
  -1  -1  12    0.04    0.07
  -1  -1  12    0.10    0.06
   1  -1 -12    0.06    0.05
  -1   1  12   -0.04    0.06
   1   1 -12    0.08    0.05
   1   1 -12    0.02    0.07
  -1   1  12   -0.03    0.05
   0  -1 -12    0.29    0.09
   0  -1  12    0.10    0.09
   0  -1  12    0.18    0.08
   0   1 -12    0.16    0.09
   0   1  12    0.15    0.08
   0   1  12    0.12    0.07
   1  -1  12    0.00    0.06
   1  -1  12   -0.07    0.06
  -1  -1 -12    0.00    0.06
   1   1  12   -0.03    0.05
  -1   1 -12    0.01    0.08
   1   1  12    0.00    0.06
   2  -1  12    0.88    0.15
   2  -1  12    0.95    0.17
  -2  -1 -12    1.13    0.18
   2   1  12    0.78    0.15
   2   1  12    0.82    0.13
  -2   1 -12    0.87    0.15
   3  -1  12   -0.05    0.07
  -3  -1 -12    0.13    0.10
   3  -1  12    0.09    0.09
  -3   1 -12    0.03    0.09
   3   1  12    0.02    0.09
   4  -2 -12    0.55    0.14
  -4  -2  12    0.46    0.15
   4   2 -12    0.53    0.14
   4   2 -12    0.54    0.14
  -4   2  12    0.59    0.16
   3  -2 -12    0.72    0.13
  -3  -2  12    0.81    0.17
   3  -2 -12    0.83    0.15
   3   2 -12    0.77    0.14
  -3   2  12    0.94    0.17
   3   2 -12    0.99    0.16
   2  -2 -12    1.98    0.20
   2  -2 -12    2.36    0.18
  -2  -2  12    1.70    0.21
  -2   2  12    1.96    0.15
  -2   2  12    1.82    0.21
   2   2 -12    1.60    0.19
   2   2 -12    2.10    0.16
  -1  -2  12   10.58    0.40
  -1  -2  12   10.40    0.30
   1  -2 -12   10.12    0.36
   1  -2 -12   10.41    0.32
  -1   2  12   10.20    0.37
   1   2 -12   10.08    0.38
   1   2 -12   10.24    0.28
  -1   2  12   10.24    0.34
   0  -2  12    0.92    0.13
   0  -2 -12    1.16    0.17
   0  -2  12    0.74    0.14
   0  -2 -12    0.94    0.10
   0   2  12    0.81    0.13
   0   2 -12    0.98    0.15
   0   2  12    1.02    0.14
   1  -2  12    0.36    0.10
   1  -2  12    0.37    0.11
  -1  -2 -12    0.45    0.12
   1   2  12    0.55    0.10
   1   2  12    0.52    0.12
  -1   2 -12    0.18    0.08
  -2  -2 -12    0.10    0.09
   2  -2  12   -0.02    0.06
   2  -2  12   -0.03    0.07
  -2   2 -12   -0.06    0.07
   2   2  12    0.10    0.08
   3  -2  12   -0.01    0.07
   3  -2  12    0.02    0.09
  -3  -2 -12   -0.01    0.07
  -3   2 -12   -0.05    0.07
   3   2  12   -0.02    0.07
   4  -3 -12    0.17    0.11
  -4  -3  12    0.17    0.11
  -4   3  12    0.09    0.11
   4   3 -12    0.18    0.11
   4   3 -12    0.18    0.10
  -3  -3  12    0.31    0.13
   3  -3 -12    0.43    0.10
   3  -3 -12    0.25    0.09
   3   3 -12    0.26    0.10
  -3   3  12    0.25    0.11
   3   3 -12    0.28    0.11
  -2  -3  12    2.78    0.23
   2  -3 -12    3.02    0.21
   2  -3 -12    2.93    0.19
  -2   3  12    2.73    0.22
  -2   3  12    2.86    0.18
   2   3 -12    2.92    0.22
   2   3 -12    3.11    0.19
  -1  -3  12   13.06    0.46
  -1  -3  12   13.51    0.35
   1  -3 -12   13.26    0.38
   1  -3 -12   13.61    0.41
   1   3 -12   13.58    0.45
  -1   3  12   12.49    0.40
  -1   3  12   13.05    0.40
   0  -3  12   -0.09    0.07
   0  -3 -12   -0.02    0.06
   0  -3  12   -0.02    0.05
   0  -3 -12    0.03    0.05
   0   3  12    0.04    0.06
   0   3  12    0.06    0.07
   0   3 -12    0.03    0.07
  -1  -3 -12    0.06    0.08
   1  -3  12    0.28    0.10
   1  -3  12    0.09    0.09
   1   3  12    0.09    0.08
  -1   3 -12    0.14    0.08
   1   3  12    0.10    0.05
   2  -3  12    0.05    0.07
   2  -3  12    0.08    0.09
  -2  -3 -12    0.04    0.07
   2   3  12    0.03    0.08
  -2   3 -12    0.14    0.08
  -3  -3 -12    0.09    0.09
   3  -3  12    0.00    0.07
   3  -3  12    0.07    0.09
   3   3  12   -0.08    0.09
  -3   3 -12    0.03    0.10
  -4  -4  12   -0.09    0.10
   4  -4 -12    0.03    0.09
  -4   4  12   -0.10    0.08
   4   4 -12    0.17    0.10
   4   4 -12   -0.16    0.07
  -3  -4  12    1.52    0.22
   3  -4 -12    1.96    0.22
   3   4 -12    1.74    0.23
   3   4 -12    1.29    0.17
  -3   4  12    1.54    0.21
  -2  -4  12    1.95    0.23
   2  -4 -12    2.07    0.16
   2  -4 -12    2.02    0.21
  -2   4  12    2.51    0.20
   2   4 -12    2.50    0.21
  -2   4  12    2.48    0.18
   2   4 -12    2.35    0.17
  -1  -4  12    0.56    0.14
   1  -4 -12    0.68    0.12
   1  -4 -12    0.53    0.11
  -1  -4  12    0.42    0.08
  -1   4  12    0.43    0.10
   1   4 -12    0.52    0.13
  -1   4  12    0.41    0.10
   0  -4  12    0.50    0.13
   0  -4  12    0.55    0.11
   0  -4 -12    0.52    0.09
   0  -4 -12    0.42    0.11
   0   4  12    0.60    0.11
   0   4  12    0.56    0.12
   0   4 -12    0.33    0.10
   1  -4  12   -0.05    0.06
  -1  -4 -12    0.01    0.07
   1  -4  12    0.11    0.07
  -1   4 -12   -0.01    0.07
   1   4  12    0.13    0.08
   2  -4  12   -0.07    0.07
  -2  -4 -12   -0.09    0.06
   2  -4  12    0.06    0.08
   2   4  12    0.05    0.08
  -2   4 -12    0.05    0.08
   3  -4  12    0.14    0.10
   3  -4  12    0.10    0.10
  -3  -4 -12   -0.03    0.08
  -3   4 -12   -0.08    0.07
  -3   4 -12    0.01    0.09
   3   4  12   -0.01    0.09
   4  -5 -12    0.13    0.10
  -4  -5  12    0.45    0.15
  -4   5  12    0.09    0.10
   4   5 -12    0.09    0.09
   4   5 -12    0.15    0.12
   3  -5 -12    0.15    0.09
  -3  -5  12    0.11    0.10
   3   5 -12    0.35    0.12
  -3   5  12    0.14    0.10
   3   5 -12    0.28    0.10
   2  -5 -12    2.75    0.21
  -2  -5  12    2.85    0.24
  -2  -5  12    3.15    0.19
   2  -5 -12    2.65    0.18
   2   5 -12    2.43    0.18
  -2   5  12    2.88    0.20
  -2   5  12    2.81    0.22
   2   5 -12    2.36    0.25
   1  -5 -12    0.03    0.06
  -1  -5  12   -0.02    0.07
   1  -5 -12    0.07    0.07
   1   5 -12    0.01    0.06
  -1   5  12    0.01    0.07
  -1   5  12    0.02    0.06
   0  -5  12    2.16    0.23
   0  -5 -12    2.25    0.17
   0  -5 -12    2.18    0.19
   0   5 -12    2.07    0.17
   0   5 -12    1.95    0.21
   0   5  12    2.33    0.20
  -1  -5 -12    0.33    0.11
   1  -5  12    0.58    0.13
   1  -5  12    0.23    0.10
  -1  -5 -12    0.51    0.11
  -1   5 -12    0.41    0.12
   1   5  12    0.28    0.11
  -1   5 -12    0.53    0.13
   2  -5  12    0.00    0.09
  -2  -5 -12   -0.15    0.07
  -2   5 -12    0.02    0.08
  -2   5 -12   -0.04    0.07
   2   5  12   -0.06    0.07
  -3  -5 -12   -0.02    0.10
   3  -5  12    0.09    0.10
  -3   5 -12    0.06    0.09
  -3   5 -12   -0.04    0.08
   3   5  12   -0.07    0.09
  -4  -6  12    1.07    0.22
  -4  -6  12    1.56    0.23
   4  -6 -12    0.76    0.17
  -4   6  12    0.91    0.20
   4   6 -12    1.37    0.22
   4   6 -12    1.08    0.21
  -3  -6  12    0.01    0.11
   3  -6 -12    0.10    0.09
  -3  -6  12    0.24    0.09
   3   6 -12    0.10    0.09
  -3   6  12    0.05    0.10
  -2  -6  12    1.43    0.17
  -2  -6  12    1.07    0.18
   2  -6 -12    0.91    0.16
  -2   6  12    1.12    0.17
  -2   6  12    1.25    0.17
   2   6 -12    1.20    0.19
  -1  -6  12    2.15    0.24
   1  -6 -12    2.16    0.17
   1  -6 -12    2.45    0.20
  -1   6  12    2.18    0.17
   1   6 -12    1.87    0.22
  -1   6  12    2.37    0.20
   0  -6 -12    1.36    0.17
   0  -6 -12    1.07    0.16
   0  -6  12    1.06    0.17
   0   6 -12    1.07    0.16
   0   6  12    1.16    0.17
   0   6 -12    1.42    0.17
  -1  -6 -12    0.86    0.14
   1  -6  12    0.54    0.14
  -1  -6 -12    0.96    0.17
  -1   6 -12    0.71    0.14
   1   6  12    0.87    0.16
  -1   6 -12    0.60    0.13
  -2  -6 -12    0.19    0.11
   2  -6  12    0.05    0.09
  -2   6 -12    0.10    0.09
   2   6  12    0.17    0.11
  -2   6 -12    0.17    0.10
  -3  -6 -12    0.06    0.10
   3  -6  12   -0.05    0.10
   3   6  12   -0.07    0.09
  -3   6 -12    0.04    0.10
   4  -7 -12    0.05    0.11
  -4  -7  12   -0.17    0.10
  -4  -7  12    0.06    0.10
  -4   7  12    0.06    0.11
   4   7 -12    0.09    0.10
   3  -7 -12    0.09    0.10
  -3  -7  12    0.19    0.10
  -3  -7  12    0.19    0.12
  -3   7  12   -0.02    0.08
  -3   7  12    0.17    0.10
   3   7 -12    0.03    0.10
  -2  -7  12    0.49    0.11
   2  -7 -12    0.54    0.14
  -2  -7  12    0.27    0.12
  -2   7  12    0.29    0.10
   2   7 -12    0.65    0.15
  -2   7  12    0.47    0.12
   1  -7 -12    0.83    0.14
  -1  -7  12    0.76    0.16
   1  -7 -12    0.76    0.13
  -1   7  12    0.63    0.13
   1   7 -12    0.88    0.17
   0  -7  12    1.40    0.20
   0  -7 -12    1.36    0.19
   0  -7 -12    1.51    0.19
   0   7  12    1.56    0.20
   0   7 -12    1.37    0.17
   0   7 -12    1.13    0.17
  -1  -7 -12    0.72    0.16
   1  -7  12    0.68    0.16
  -1  -7 -12    0.82    0.14
   1   7  12    0.75    0.16
  -1   7 -12    0.77    0.15
  -1   7 -12    0.58    0.14
  -2  -7 -12    1.46    0.22
   2  -7  12    1.37    0.22
  -2   7 -12    1.05    0.19
  -2   7 -12    1.52    0.20
   2   7  12    1.50    0.23
  -3  -7 -12    0.41    0.15
   3  -7  12    0.57    0.16
   3   7  12    0.70    0.19
  -3   7 -12    0.59    0.16
  -3  -8  12    0.14    0.11
  -3  -8  12    0.09    0.11
   3  -8 -12    0.27    0.12
   3   8 -12    0.02    0.09
  -3   8  12    0.08    0.10
  -3   8  12    0.17    0.10
  -2  -8  12    0.10    0.12
   2  -8 -12   -0.08    0.06
  -2   8  12   -0.03    0.06
   2   8 -12    0.00    0.09
  -2   8  12    0.00    0.07
   1  -8 -12    0.27    0.09
  -1  -8  12    0.21    0.11
   1  -8 -12    0.47    0.13
  -1   8  12    0.54    0.13
   1   8 -12    0.45    0.13
   0  -8 -12    0.22    0.09
   0  -8 -12    0.00    0.07
   0  -8  12    0.03    0.08
   0   8 -12    0.10    0.09
   0   8 -12   -0.02    0.07
   0   8  12    0.14    0.09
   1  -8  12    1.81    0.24
  -1  -8 -12    2.19    0.23
  -1  -8 -12    1.91    0.25
   1   8  12    2.01    0.25
  -1   8 -12    2.25    0.25
  -1   8 -12    2.16    0.24
  -2  -8 -12    0.28    0.14
   2  -8  12    0.34    0.13
  -2   8 -12    0.28    0.11
  -2   8 -12    0.27    0.14
   2   8  12    0.39    0.15
   3  -9 -12    0.31    0.13
  -3  -9  12    0.35    0.13
  -3  -9  12    0.15    0.11
   3   9 -12    0.04    0.11
  -3   9  12    0.27    0.12
  -3   9  12    0.31    0.12
  -2  -9  12    0.00    0.09
   2  -9 -12    0.10    0.10
   2   9 -12    0.09    0.10
  -2   9  12    0.03    0.07
  -1  -9  12    0.54    0.15
   1  -9 -12    0.95    0.17
   1   9 -12    0.68    0.16
  -1   9  12    0.62    0.16
   0  -9 -12    0.10    0.09
   0  -9 -12   -0.06    0.06
   0  -9  12   -0.04    0.07
   0   9 -12    0.05    0.09
   0   9 -12    0.18    0.09
   0   9  12    0.05    0.09
  -1  -9 -12    1.14    0.20
  -1  -9 -12    1.10    0.18
   1  -9  12    1.43    0.23
  -1   9 -12    0.87    0.18
   1   9  12    0.71    0.16
  -1   9 -12    0.78    0.15
   2  -9  12    0.39    0.14
  -2  -9 -12    0.44    0.15
  -2   9 -12    0.03    0.10
   2   9  12    0.44    0.15
   3 -10 -12    0.19    0.11
  -3 -10  12    0.26    0.14
  -3 -10  12    0.15    0.10
  -3  10  12   -0.02    0.08
   3  10 -12    0.17    0.13
   2 -10 -12    0.46    0.14
  -2 -10  12    0.39    0.14
  -2  10  12    0.28    0.12
   2  10 -12    0.25    0.12
   1 -10 -12    0.12    0.10
  -1 -10  12    0.06    0.10
   1  10 -12    0.06    0.09
  -1  10  12    0.09    0.08
   0 -10 -12   -0.02    0.07
   0 -10 -12   -0.01    0.08
   0 -10  12    0.06    0.09
   0  10  12    0.02    0.10
   0  10 -12    0.06    0.09
   0  10 -12    0.00    0.08
  -1 -10 -12    0.07    0.10
  -1 -10 -12    0.17    0.10
   1 -10  12    0.11    0.10
  -1  10 -12    0.00    0.08
   1  10  12    0.09    0.11
  -1  10 -12    0.04    0.08
   2 -10  12    0.09    0.13
  -2 -10 -12    0.19    0.14
  -2 -10 -12    0.18    0.11
  -2  10 -12    0.00    0.10
   2  10  12    0.08    0.13
   2 -11 -12   -0.03    0.08
  -2 -11  12    0.14    0.12
  -2  11  12    0.01    0.10
   2  11 -12    0.12    0.09
  -1 -11  12    0.18    0.11
   1 -11 -12    0.42    0.14
   1  11 -12    0.20    0.10
  -1  11  12    0.18    0.12
   0 -11 -12   -0.05    0.08
   0 -11 -12   -0.09    0.07
   0 -11  12    0.13    0.11
   0  11  12    0.00    0.09
   0  11 -12   -0.11    0.06
   1 -11  12    0.12    0.11
  -1 -11 -12   -0.02    0.10
  -1 -11 -12    0.07    0.10
  -1  11 -12    0.13    0.11
   1  11  12    0.24    0.13
  -1 -12  12   -0.03    0.11
   1 -12 -12    0.04    0.11
  -1  12  12   -0.04    0.09
   1  12 -12   -0.05    0.09
   0 -12  12    0.12    0.11
   0 -12 -12    0.04    0.10
   0  12 -12    0.14    0.10
   0  12  12    0.03    0.10
   4   0 -13    0.11    0.08
   4   0 -13    0.01    0.09
  -4   0  13   -0.03    0.09
  -3   0  13   -0.01    0.07
   3   0 -13    0.07    0.07
   3   0 -13   -0.10    0.06
   2   0 -13    0.04    0.06
  -2   0  13    0.00    0.08
   2   0 -13    0.05    0.07
   1   0 -13   -0.03    0.07
  -1   0  13    0.09    0.06
  -1   0  13    0.25    0.09
   1   0 -13    0.00    0.05
   0   0 -13   -0.02    0.06
   0   0  13   -0.13    0.05
   0   0  13   -0.02    0.06
  -1   0 -13    0.00    0.07
   1   0  13    0.10    0.08
   1   0  13    0.00    0.07
   2   0  13   -0.01    0.07
   2   0  13   -0.01    0.07
  -2   0 -13    0.02    0.09
   3   0  13    0.06    0.10
  -3   0 -13    0.34    0.13
   4  -1 -13   -0.02    0.07
  -4  -1  13    0.12    0.11
   4   1 -13    0.08    0.09
  -4   1  13    0.15    0.12
   4   1 -13   -0.06    0.08
  -3  -1  13    0.12    0.10
   3  -1 -13    0.21    0.09
   3  -1 -13    0.23    0.10
  -3   1  13    0.13    0.10
   3   1 -13    0.08    0.09
   3   1 -13    0.15    0.09
   2  -1 -13    0.53    0.11
  -2  -1  13    0.48    0.13
   2  -1 -13    0.53    0.13
   2   1 -13    0.48    0.13
   2   1 -13    0.37    0.09
  -2   1  13    0.46    0.13
  -1  -1  13   10.97    0.34
   1  -1 -13   11.08    0.40
  -1  -1  13   10.56    0.41
   1  -1 -13   11.55    0.33
  -1   1  13   11.35    0.41
   1   1 -13   11.88    0.42
  -1   1  13   11.44    0.36
   0  -1  13    4.17    0.23
   0  -1 -13    4.36    0.26
   0  -1  13    4.22    0.25
   0   1 -13    4.66    0.27
   0   1  13    3.83    0.24
   0   1  13    4.52    0.24
   1  -1  13    0.09    0.09
  -1  -1 -13    0.18    0.09
   1  -1  13    0.26    0.10
   1   1  13    0.20    0.08
   1   1  13    0.11    0.09
  -1   1 -13    0.39    0.11
   2  -1  13    0.10    0.09
   2  -1  13    0.11    0.10
  -2  -1 -13    0.11    0.09
  -2   1 -13    0.14    0.09
   2   1  13    0.19    0.10
   2   1  13    0.13    0.08
  -3  -1 -13    0.16    0.11
   3  -1  13    0.32    0.12
   3  -1  13    0.57    0.16
  -3   1 -13    0.31    0.13
   3   1  13    0.27    0.13
  -4  -2  13   -0.07    0.10
   4  -2 -13    0.35    0.12
  -4   2  13    0.11    0.11
   4   2 -13    0.15    0.11
   4   2 -13    0.07    0.10
  -3  -2  13    0.04    0.09
   3  -2 -13    0.37    0.10
   3  -2 -13    0.32    0.11
   3   2 -13    0.18    0.10
   3   2 -13    0.15    0.09
  -3   2  13    0.24    0.12
   2  -2 -13    4.21    0.25
  -2  -2  13    3.46    0.26
   2  -2 -13    3.92    0.23
   2   2 -13    4.05    0.26
  -2   2  13    3.86    0.20
   2   2 -13    3.57    0.21
  -2   2  13    3.50    0.25
  -1  -2  13    0.04    0.06
  -1  -2  13    0.01    0.07
   1  -2 -13   -0.06    0.04
   1  -2 -13    0.00    0.07
  -1   2  13   -0.08    0.06
  -1   2  13    0.02    0.05
   1   2 -13   -0.03    0.07
   0  -2  13    4.25    0.23
   0  -2  13    4.63    0.27
   0  -2 -13    3.97    0.25
   0   2  13    4.59    0.25
   0   2 -13    4.91    0.27
   0   2  13    4.59    0.25
   1  -2  13    0.38    0.11
  -1  -2 -13    0.36    0.11
   1  -2  13    0.16    0.09
   1   2  13    0.42    0.12
   1   2  13    0.28    0.08
  -1   2 -13    0.21    0.09
   2  -2  13    0.69    0.16
   2  -2  13    0.70    0.15
  -2  -2 -13    0.52    0.14
  -2   2 -13    0.36    0.12
   2   2  13    0.62    0.15
   3  -2  13    0.01    0.09
  -3  -2 -13    0.01    0.08
   3  -2  13    0.12    0.10
   3   2  13    0.26    0.12
  -3   2 -13   -0.03    0.09
   4  -3 -13    1.56    0.24
  -4  -3  13    1.47    0.24
   4   3 -13    1.27    0.20
  -4   3  13    1.35    0.24
   4   3 -13    1.50    0.22
   3  -3 -13    0.80    0.15
  -3  -3  13    0.94    0.18
  -3   3  13    1.18    0.19
   3   3 -13    0.90    0.15
   3   3 -13    0.64    0.15
   2  -3 -13    0.46    0.11
  -2  -3  13    0.57    0.15
   2  -3 -13    0.48    0.11
  -2   3  13    0.61    0.14
   2   3 -13    0.51    0.13
  -2   3  13    0.67    0.12
   2   3 -13    0.39    0.10
   1  -3 -13    0.16    0.07
  -1  -3  13    0.10    0.06
  -1  -3  13    0.14    0.10
   1  -3 -13    0.04    0.07
   1   3 -13    0.12    0.08
  -1   3  13    0.19    0.09
  -1   3  13    0.08    0.07
   0  -3 -13    0.97    0.16
   0  -3  13    0.92    0.16
   0  -3  13    1.09    0.15
   0   3 -13    0.82    0.15
   0   3  13    0.78    0.14
   0   3  13    1.05    0.15
  -1  -3 -13   -0.03    0.06
   1  -3  13    0.00    0.07
   1  -3  13   -0.01    0.06
   1   3  13    0.03    0.07
  -1   3 -13    0.01    0.08
   2  -3  13    0.06    0.08
  -2  -3 -13    0.09    0.09
   2  -3  13    0.00    0.08
  -2   3 -13   -0.07    0.08
   2   3  13    0.01    0.08
   3  -3  13   -0.08    0.07
  -3  -3 -13   -0.10    0.07
   3  -3  13   -0.03    0.09
  -3   3 -13   -0.02    0.09
   3   3  13   -0.14    0.08
  -4  -4  13    0.55    0.17
   4  -4 -13    0.59    0.16
   4   4 -13    0.47    0.14
   4   4 -13    0.41    0.13
  -4   4  13    0.21    0.12
  -3  -4  13    0.29    0.13
   3  -4 -13    0.11    0.10
   3   4 -13    0.10    0.08
  -3   4  13    0.12    0.11
   3   4 -13    0.04    0.09
  -2  -4  13    0.21    0.11
   2  -4 -13    0.37    0.10
   2  -4 -13    0.39    0.10
  -2   4  13    0.29    0.11
   2   4 -13    0.18    0.08
   2   4 -13    0.23    0.11
  -2   4  13    0.43    0.10
   1  -4 -13    0.77    0.13
  -1  -4  13    0.67    0.15
   1  -4 -13    1.10    0.16
   1   4 -13    0.76    0.15
  -1   4  13    0.96    0.15
  -1   4  13    0.52    0.12
   0  -4 -13    0.06    0.06
   0  -4 -13    0.19    0.09
   0  -4  13    0.10    0.08
   0  -4  13    0.14    0.07
   0   4 -13    0.29    0.11
   0   4  13    0.03    0.06
   0   4  13    0.15    0.09
   1  -4  13    0.22    0.09
  -1  -4 -13    0.16    0.09
   1  -4  13    0.25    0.10
  -1   4 -13    0.32    0.10
   1   4  13    0.14    0.09
   2  -4  13    0.02    0.08
  -2  -4 -13    0.00    0.07
   2  -4  13    0.05    0.10
   2   4  13    0.13    0.10
  -2   4 -13   -0.07    0.07
   3  -4  13    0.36    0.14
   3  -4  13    0.18    0.13
  -3  -4 -13    0.29    0.13
  -3   4 -13    0.19    0.11
  -3   4 -13    0.21    0.13
   3   4  13    0.11    0.11
   4  -5 -13    0.98    0.20
  -4  -5  13    0.62    0.19
   4   5 -13    0.40    0.13
  -4   5  13    0.46    0.15
   4   5 -13    0.62    0.17
  -3  -5  13    1.55    0.24
   3  -5 -13    1.79    0.23
   3   5 -13    1.73    0.24
  -3   5  13    1.49    0.22
   3   5 -13    1.75    0.21
  -2  -5  13    0.17    0.10
   2  -5 -13    0.37    0.11
   2  -5 -13    0.39    0.10
  -2   5  13    0.38    0.11
  -2   5  13    0.23    0.09
   2   5 -13    0.42    0.13
   1  -5 -13    0.25    0.10
  -1  -5  13    0.48    0.14
   1  -5 -13    0.34    0.10
  -1   5  13    0.30    0.10
  -1   5  13    0.11    0.09
   1   5 -13    0.19    0.09
   0  -5  13    0.23    0.09
   0  -5  13    0.04    0.08
   0  -5 -13    0.13    0.09
   0  -5 -13    0.17    0.07
   0   5 -13    0.05    0.08
   0   5 -13    0.06    0.07
   0   5  13   -0.05    0.07
  -1  -5 -13    0.18    0.10
   1  -5  13    0.19    0.10
   1  -5  13    0.04    0.07
  -1   5 -13    0.12    0.08
  -1   5 -13    0.06    0.07
   1   5  13    0.14    0.09
  -2  -5 -13    1.25    0.20
   2  -5  13    1.62    0.24
  -2   5 -13    1.20    0.19
   2   5  13    1.64    0.22
  -2   5 -13    1.44    0.20
  -3  -5 -13    0.32    0.13
   3  -5  13    0.55    0.16
   3   5  13    0.30    0.15
  -3   5 -13    0.24    0.13
  -3   5 -13    0.07    0.11
   4  -6 -13    0.64    0.16
  -4  -6  13    0.75    0.16
  -4  -6  13    1.04    0.22
  -4   6  13    0.69    0.19
   4   6 -13    0.54    0.14
   4   6 -13    0.38    0.15
   3  -6 -13    0.88    0.18
  -3  -6  13    0.85    0.18
  -3  -6  13    0.95    0.16
  -3   6  13    1.17    0.20
   3   6 -13    0.86    0.18
  -2  -6  13    0.14    0.11
   2  -6 -13    0.10    0.09
  -2   6  13    0.15    0.09
   2   6 -13    0.19    0.10
  -2   6  13    0.06    0.08
   1  -6 -13    1.71    0.20
   1  -6 -13    2.15    0.22
  -1  -6  13    1.65    0.22
  -1   6  13    1.90    0.22
  -1   6  13    1.87    0.19
   1   6 -13    1.93    0.22
   0  -6  13    0.51    0.14
   0  -6 -13    0.41    0.12
   0  -6 -13    0.45    0.11
   0   6 -13    0.38    0.12
   0   6 -13    0.48    0.11
   0   6  13    0.45    0.13
   1  -6  13    0.08    0.09
  -1  -6 -13   -0.04    0.09
  -1   6 -13   -0.03    0.07
   1   6  13    0.06    0.07
  -1   6 -13    0.18    0.10
  -2  -6 -13    0.52    0.16
   2  -6  13    0.78    0.17
  -2   6 -13    0.61    0.16
  -2   6 -13    0.29    0.11
   2   6  13    0.41    0.15
   3  -6  13    0.30    0.13
  -3  -6 -13    0.29    0.14
  -3   6 -13    0.35    0.14
   3   6  13    0.52    0.17
  -3  -7  13    0.56    0.13
   3  -7 -13    0.44    0.14
  -3  -7  13    0.45    0.16
   3   7 -13    0.54    0.15
  -3   7  13    0.49    0.15
  -2  -7  13    0.51    0.15
   2  -7 -13    0.42    0.12
  -2   7  13    0.40    0.12
   2   7 -13    0.65    0.15
  -2   7  13    0.44    0.12
  -1  -7  13    0.04    0.09
   1  -7 -13    0.07    0.07
   1  -7 -13    0.04    0.08
   1   7 -13    0.00    0.08
  -1   7  13    0.11    0.09
   0  -7  13    0.06    0.10
   0  -7 -13    0.16    0.09
   0  -7 -13    0.25    0.11
   0   7 -13    0.09    0.07
   0   7 -13    0.20    0.08
   0   7  13    0.35    0.12
   1  -7  13    1.23    0.21
  -1  -7 -13    1.00    0.18
   1   7  13    0.85    0.16
  -1   7 -13    0.75    0.16
  -1   7 -13    1.04    0.18
  -2  -7 -13    0.09    0.12
   2  -7  13    0.00    0.09
  -2   7 -13   -0.09    0.09
  -2   7 -13    0.06    0.09
   2   7  13    0.03    0.10
  -3  -8  13    0.16    0.13
  -3  -8  13    0.17    0.10
   3  -8 -13    0.01    0.07
  -3   8  13    0.01    0.08
   3   8 -13   -0.17    0.09
  -3   8  13    0.13    0.10
  -2  -8  13    0.68    0.17
   2  -8 -13    1.07    0.19
   2   8 -13    0.94    0.19
  -2   8  13    0.97    0.17
  -1  -8  13    0.15    0.10
   1  -8 -13   -0.02    0.07
   1  -8 -13    0.22    0.10
   1   8 -13    0.40    0.13
  -1   8  13    0.19    0.11
   0  -8 -13    0.61    0.13
   0  -8 -13    0.35    0.12
   0  -8  13    0.39    0.13
   0   8 -13    0.47    0.14
   0   8 -13    0.33    0.11
   0   8  13    0.50    0.13
  -1  -8 -13    0.33    0.13
   1  -8  13    0.57    0.15
  -1  -8 -13    0.47    0.13
  -1   8 -13    0.10    0.10
   1   8  13    0.34    0.12
  -1   8 -13    0.38    0.13
   2  -8  13    1.02    0.21
  -2  -8 -13    1.06    0.20
   2   8  13    1.68    0.25
  -2   8 -13    1.19    0.19
  -2   8 -13    0.55    0.15
  -3  -9  13    0.22    0.14
   3  -9 -13    0.12    0.10
   3   9 -13    0.06    0.11
  -3   9  13    0.12    0.09
   2  -9 -13    0.05    0.09
  -2  -9  13    0.43    0.16
  -2   9  13    0.09    0.09
   2   9 -13    0.20    0.10
   1  -9 -13    0.26    0.10
  -1  -9  13    0.07    0.10
  -1   9  13    0.12    0.10
   1   9 -13    0.27    0.12
   0  -9 -13    0.06    0.09
   0  -9  13   -0.06    0.07
   0  -9 -13    0.00    0.07
   0   9  13   -0.03    0.07
   0   9 -13   -0.04    0.08
   0   9 -13    0.06    0.08
  -1  -9 -13    0.03    0.08
  -1  -9 -13   -0.06    0.09
   1  -9  13    0.15    0.11
  -1   9 -13   -0.02    0.09
  -1   9 -13   -0.05    0.09
   1   9  13    0.05    0.09
   2  -9  13    0.06    0.11
  -2  -9 -13    0.12    0.12
  -2   9 -13   -0.11    0.08
   2   9  13    0.15    0.12
  -2 -10  13    0.10    0.12
   2 -10 -13   -0.06    0.06
  -2  10  13   -0.04    0.09
   2  10 -13   -0.06    0.07
   1 -10 -13    0.08    0.09
  -1 -10  13    0.05    0.11
   1  10 -13    0.20    0.12
  -1  10  13    0.17    0.13
   0 -10  13    0.23    0.12
   0 -10 -13    0.11    0.09
   0 -10 -13    0.00    0.08
   0  10  13    0.11    0.11
   0  10 -13    0.08    0.10
  -1 -10 -13    0.04    0.09
  -1 -10 -13   -0.01    0.09
   1 -10  13    0.24    0.14
  -1  10 -13    0.22    0.12
   1  10  13    0.08    0.12
  -1  10 -13    0.13    0.10
   1 -11 -13    0.29    0.12
  -1 -11  13    0.17    0.12
   1  11 -13    0.60    0.17
  -1  11  13    0.45    0.15
   0 -11 -13    0.15    0.11
   0 -11  13    0.26    0.14
   0  11 -13    0.19    0.12
   0  11  13    0.11    0.12
   4   0 -14    0.09    0.10
  -4   0  14   -0.03    0.10
   4   0 -14    0.09    0.10
   3   0 -14    0.37    0.12
  -3   0  14    0.23    0.11
   3   0 -14    0.24    0.11
  -2   0  14    0.00    0.08
   2   0 -14    0.12    0.09
   2   0 -14    0.03    0.06
   1   0 -14   37.04    0.82
  -1   0  14   37.34    0.84
  -1   0  14   36.03    0.73
   0   0  14    0.06    0.09
   0   0  14    0.17    0.08
   0   0 -14    0.07    0.08
   1   0  14    0.06    0.07
   1   0  14   -0.09    0.06
  -1   0 -14    0.16    0.10
   2   0  14    0.39    0.12
  -2   0 -14    0.48    0.14
   2   0  14    0.25    0.11
   3   0  14   -0.08    0.08
  -3   0 -14    0.16    0.12
  -4  -1  14    0.36    0.16
   4  -1 -14    0.42    0.14
   4   1 -14    0.38    0.13
  -4   1  14    0.31    0.15
   4   1 -14    0.27    0.12
  -3  -1  14    0.91    0.19
   3  -1 -14    1.23    0.18
   3  -1 -14    1.05    0.17
  -3   1  14    0.98    0.19
   3   1 -14    0.85    0.16
   3   1 -14    1.02    0.18
  -2  -1  14    1.03    0.18
   2  -1 -14    0.76    0.15
   2  -1 -14    0.77    0.13
   2   1 -14    0.89    0.13
  -2   1  14    0.90    0.16
   2   1 -14    1.19    0.18
   1  -1 -14    3.26    0.24
  -1  -1  14    3.56    0.26
  -1  -1  14    3.37    0.20
   1   1 -14    3.73    0.25
  -1   1  14    3.21    0.24
  -1   1  14    3.22    0.20
   0  -1  14    0.98    0.15
   0  -1 -14    0.71    0.15
   0  -1  14    0.68    0.15
   0   1 -14    0.56    0.13
   0   1  14    0.58    0.12
   0   1  14    0.80    0.15
   1  -1  14    0.21    0.10
  -1  -1 -14    0.04    0.09
   1  -1  14   -0.02    0.07
   1   1  14    0.00    0.07
   1   1  14    0.03    0.08
  -1   1 -14    0.05    0.08
   2  -1  14    0.07    0.08
   2  -1  14    0.08    0.09
  -2  -1 -14    0.12    0.09
   2   1  14    0.06    0.09
  -2   1 -14   -0.03    0.07
   3  -1  14    0.33    0.13
  -3  -1 -14    0.29    0.13
   3  -1  14    0.18    0.12
   3   1  14    0.42    0.16
  -3   1 -14    0.40    0.14
   4  -2 -14   -0.04    0.08
  -4  -2  14    0.00    0.11
   4   2 -14    0.05    0.09
   4   2 -14   -0.15    0.08
  -4   2  14    0.04    0.11
  -3  -2  14    0.03    0.09
   3  -2 -14    0.07    0.08
   3  -2 -14    0.10    0.08
   3   2 -14    0.08    0.09
   3   2 -14    0.04    0.07
  -3   2  14    0.01    0.08
   2  -2 -14    1.01    0.15
   2  -2 -14    1.12    0.17
  -2  -2  14    0.68    0.16
   2   2 -14    0.87    0.16
  -2   2  14    1.07    0.18
  -1  -2  14    6.41    0.26
   1  -2 -14    6.85    0.32
  -1  -2  14    6.39    0.34
  -1   2  14    6.91    0.32
   1   2 -14    6.55    0.34
  -1   2  14    6.30    0.29
   0  -2  14    6.71    0.34
   0  -2 -14    7.40    0.35
   0  -2  14    7.24    0.31
   0   2  14    6.57    0.31
   0   2 -14    7.11    0.35
   0   2  14    7.29    0.33
  -1  -2 -14    0.47    0.13
   1  -2  14    1.12    0.18
   1  -2  14    0.57    0.13
  -1   2 -14    0.77    0.15
   1   2  14    0.88    0.16
   1   2  14    0.83    0.13
   2  -2  14    0.18    0.11
   2  -2  14    0.10    0.09
  -2  -2 -14    0.24    0.12
   2   2  14    0.18    0.10
  -2   2 -14    0.02    0.09
   3  -2  14   -0.02    0.09
   3  -2  14    0.05    0.10
  -3  -2 -14    0.01    0.10
  -3   2 -14    0.03    0.10
   3   2  14   -0.08    0.08
  -4  -3  14    0.07    0.11
   4  -3 -14   -0.07    0.07
   4   3 -14    0.14    0.10
  -4   3  14    0.12    0.11
   4   3 -14    0.16    0.11
  -3  -3  14    0.14    0.10
   3  -3 -14    0.35    0.11
   3   3 -14    0.68    0.16
   3   3 -14    0.59    0.13
  -3   3  14    0.43    0.14
  -2  -3  14   -0.05    0.07
   2  -3 -14    0.02    0.06
   2  -3 -14    0.06    0.07
  -2   3  14   -0.01    0.05
   2   3 -14    0.01    0.09
  -2   3  14   -0.02    0.08
  -1  -3  14    2.05    0.23
   1  -3 -14    2.11    0.16
   1  -3 -14    2.49    0.21
   1   3 -14    1.99    0.23
  -1   3  14    2.09    0.22
  -1   3  14    2.24    0.19
   0  -3  14    0.25    0.10
   0  -3 -14    0.23    0.10
   0  -3  14    0.41    0.12
   0   3 -14    0.34    0.12
   0   3  14    0.20    0.08
   0   3  14    0.25    0.10
   1  -3  14    0.11    0.08
  -1  -3 -14    0.12    0.09
   1  -3  14   -0.01    0.09
  -1   3 -14    0.03    0.07
   1   3  14    0.13    0.09
   2  -3  14    0.15    0.11
  -2  -3 -14    0.15    0.11
   2  -3  14    0.22    0.11
  -2   3 -14   -0.13    0.07
   2   3  14   -0.06    0.07
   3  -3  14    0.11    0.11
   3  -3  14   -0.05    0.09
  -3  -3 -14    0.01    0.10
  -3   3 -14    0.04    0.11
   3   3  14   -0.04    0.09
   4  -4 -14   -0.02    0.09
  -4  -4  14    0.00    0.10
   4   4 -14    0.30    0.11
  -4   4  14    0.41    0.15
   4   4 -14    0.29    0.14
   3  -4 -14    0.00    0.07
  -3  -4  14    0.07    0.10
  -3   4  14   -0.02    0.07
   3   4 -14    0.00    0.06
   3   4 -14    0.03    0.10
   2  -4 -14    1.24    0.17
  -2  -4  14    1.00    0.19
   2  -4 -14    1.50    0.18
   2   4 -14    1.06    0.18
  -2   4  14    1.47    0.18
  -2   4  14    1.46    0.20
   1  -4 -14    4.10    0.23
   1  -4 -14    4.22    0.26
  -1  -4  14    4.38    0.30
  -1   4  14    4.51    0.26
  -1   4  14    4.15    0.25
   1   4 -14    4.51    0.29
   0  -4 -14    0.15    0.10
   0  -4  14    0.19    0.08
   0  -4  14    0.10    0.09
   0   4 -14    0.16    0.10
   0   4  14    0.29    0.10
   1  -4  14   -0.04    0.06
  -1  -4 -14    0.10    0.10
   1  -4  14    0.06    0.08
   1   4  14    0.11    0.08
  -1   4 -14    0.07    0.09
   2  -4  14    0.02    0.09
   2  -4  14    0.04    0.09
  -2  -4 -14    0.00    0.08
  -2   4 -14    0.06    0.10
   2   4  14    0.07    0.09
  -3  -4 -14    0.10    0.11
   3  -4  14    0.57    0.17
   3  -4  14    0.21    0.12
   3   4  14    0.04    0.11
  -3   4 -14    0.36    0.13
  -3   4 -14    0.27    0.15
  -4  -5  14   -0.04    0.11
   4  -5 -14    0.04    0.10
   4   5 -14    0.06    0.09
  -4   5  14   -0.10    0.09
   4   5 -14   -0.06    0.08
   3  -5 -14    0.12    0.10
  -3  -5  14    0.04    0.10
   3   5 -14    0.12    0.11
  -3   5  14   -0.02    0.07
   3   5 -14   -0.12    0.07
  -2  -5  14    0.06    0.10
   2  -5 -14   -0.04    0.05
   2  -5 -14    0.14    0.09
   2   5 -14    0.00    0.08
  -2   5  14    0.04    0.07
  -2   5  14    0.06    0.09
  -1  -5  14    0.05    0.10
   1  -5 -14    0.08    0.06
   1  -5 -14   -0.04    0.06
   1   5 -14    0.09    0.09
  -1   5  14   -0.04    0.07
  -1   5  14   -0.03    0.07
   0  -5  14    0.23    0.08
   0  -5  14    0.34    0.12
   0  -5 -14    0.14    0.10
   0   5 -14    0.10    0.08
   0   5 -14    0.04    0.08
   0   5  14    0.11    0.09
  -1  -5 -14    0.09    0.09
   1  -5  14    0.10    0.09
   1  -5  14    0.07    0.10
   1   5  14    0.06    0.09
  -1   5 -14    0.19    0.10
  -1   5 -14    0.04    0.10
  -2  -5 -14    0.27    0.12
   2  -5  14    0.34    0.14
   2   5  14   -0.07    0.09
  -2   5 -14    0.22    0.10
  -2   5 -14    0.11    0.11
   3  -6 -14    0.58    0.16
  -3  -6  14    0.37    0.15
   3   6 -14    0.58    0.16
  -3   6  14    0.60    0.16
  -2  -6  14    0.99    0.19
   2  -6 -14    1.01    0.17
   2   6 -14    0.94    0.18
  -2   6  14    1.09    0.18
  -2   6  14    1.01    0.17
  -1  -6  14    0.61    0.16
   1  -6 -14    0.67    0.13
   1  -6 -14    0.72    0.14
  -1   6  14    0.82    0.16
   1   6 -14    0.86    0.17
   0  -6  14    0.57    0.15
   0  -6 -14    0.31    0.13
   0   6  14    0.47    0.13
   0   6 -14    0.33    0.12
   0   6 -14    0.50    0.12
   1  -6  14   -0.06    0.09
  -1  -6 -14    0.34    0.13
  -1   6 -14    0.11    0.09
   1   6  14    0.15    0.10
  -1   6 -14    0.21    0.10
   2  -6  14    0.20    0.12
  -2  -6 -14    0.51    0.16
   2   6  14    0.58    0.17
  -2   6 -14    0.47    0.14
  -2   6 -14    0.26    0.11
  -3  -7  14    0.82    0.21
   3  -7 -14    0.70    0.17
   3   7 -14    0.75    0.18
  -3   7  14    0.86    0.19
  -2  -7  14   -0.05    0.08
   2  -7 -14    0.03    0.07
  -2   7  14   -0.07    0.07
  -2   7  14   -0.04    0.05
   2   7 -14    0.11    0.11
   1  -7 -14    0.18    0.10
  -1  -7  14    0.18    0.11
   1  -7 -14    0.52    0.13
   1   7 -14    0.24    0.11
  -1   7  14    0.30    0.12
   0  -7  14    0.08    0.11
   0  -7 -14    0.05    0.07
   0  -7 -14   -0.02    0.08
   0   7  14    0.03    0.09
   0   7 -14    0.12    0.09
   0   7 -14   -0.04    0.07
  -1  -7 -14   -0.09    0.08
   1  -7  14    0.04    0.10
  -1   7 -14    0.07    0.09
   1   7  14    0.01    0.08
  -1   7 -14    0.08    0.10
   2  -7  14    0.82    0.19
  -2  -7 -14    0.45    0.15
  -2   7 -14    0.72    0.17
   2   7  14    0.65    0.18
  -2   7 -14    0.94    0.18
   3  -8 -14    0.17    0.12
  -3  -8  14    0.12    0.14
  -3   8  14    0.08    0.10
   3   8 -14    0.09    0.12
   2  -8 -14    0.18    0.10
  -2  -8  14    0.03    0.10
  -2   8  14   -0.02    0.07
   2   8 -14   -0.06    0.09
   1  -8 -14    0.01    0.07
   1  -8 -14    0.07    0.09
  -1  -8  14    0.01    0.09
  -1   8  14    0.07    0.10
   1   8 -14    0.00    0.08
   0  -8 -14    0.93    0.18
   0  -8  14    0.53    0.15
   0  -8 -14    0.69    0.14
   0   8  14    0.26    0.11
   0   8 -14    0.68    0.16
   0   8 -14    0.43    0.13
   1  -8  14    0.30    0.13
  -1  -8 -14    0.19    0.10
  -1   8 -14    0.11    0.10
   1   8  14    0.06    0.09
  -1   8 -14    0.08    0.10
   2  -8  14    0.14    0.11
  -2  -8 -14    0.01    0.10
  -2   8 -14   -0.09    0.09
   2   8  14    0.13    0.13
  -2   8 -14   -0.16    0.10
  -2  -9  14    0.05    0.12
   2  -9 -14   -0.03    0.08
   2   9 -14    0.12    0.12
  -2   9  14   -0.07    0.08
  -1  -9  14    0.14    0.12
   1  -9 -14    0.22    0.10
  -1   9  14    0.13    0.11
   1   9 -14    0.06    0.09
   0  -9 -14    0.72    0.16
   0  -9  14    0.39    0.13
   0  -9 -14    0.63    0.15
   0   9 -14    0.57    0.16
   0   9  14    0.19    0.11
   1  -9  14    0.15    0.14
  -1  -9 -14    0.28    0.13
  -1   9 -14   -0.08    0.09
  -1   9 -14    0.02    0.07
   1   9  14    0.13    0.11
  -2 -10  14   -0.03    0.11
   2 -10 -14    0.03    0.08
   2  10 -14    0.02    0.11
  -2  10  14    0.19    0.11
  -1 -10  14    0.33    0.14
   1 -10 -14    0.44    0.14
  -1  10  14    0.37    0.13
   1  10 -14    0.22    0.11
   0 -10 -14    0.61    0.16
   0 -10 -14    0.28    0.12
   0 -10  14    0.27    0.14
   0  10  14    0.49    0.15
   0  10 -14    0.22    0.12
   1 -10  14    0.33    0.14
  -1 -10 -14    0.10    0.12
   1  10  14   -0.06    0.10
  -1  10 -14    0.03    0.10
  -1  10 -14   -0.01    0.10
   4   0 -15    0.04    0.10
  -4   0  15   -0.04    0.10
   3   0 -15   -0.07    0.06
  -3   0  15    0.09    0.10
   3   0 -15    0.11    0.09
   2   0 -15    0.09    0.08
  -2   0  15    0.07    0.10
   1   0 -15   -0.06    0.07
  -1   0  15   -0.13    0.07
  -1   0  15    0.00    0.06
   0   0 -15   -0.07    0.07
   0   0  15    0.00    0.07
   0   0  15    0.04    0.09
   1   0  15   -0.06    0.06
  -1   0 -15    0.09    0.09
   1   0  15    0.00    0.08
   2   0  15   -0.08    0.07
   2   0  15   -0.08    0.07
  -2   0 -15    0.02    0.08
   4  -1 -15    0.32    0.13
  -4  -1  15    0.18    0.13
   4   1 -15    0.19    0.10
  -4   1  15    0.27    0.15
   4   1 -15    0.29    0.13
   3  -1 -15    0.91    0.16
  -3  -1  15    0.62    0.18
   3  -1 -15    0.80    0.16
  -3   1  15    0.39    0.14
   3   1 -15    0.99    0.19
   3   1 -15    0.56    0.13
  -2  -1  15    0.09    0.10
   2  -1 -15    0.07    0.07
   2  -1 -15    0.21    0.11
  -2   1  15   -0.01    0.08
   2   1 -15   -0.01    0.07
  -1  -1  15    0.63    0.12
   1  -1 -15    0.74    0.16
  -1  -1  15    0.83    0.16
  -1   1  15    0.54    0.14
  -1   1  15    0.77    0.13
   1   1 -15    0.87    0.17
   0  -1  15    2.57    0.20
   0  -1 -15    2.44    0.25
   0  -1  15    2.47    0.26
   0   1  15    2.44    0.21
   0   1 -15    2.25    0.25
   0   1  15    2.61    0.22
   1  -1  15    1.51    0.20
  -1  -1 -15    1.39    0.20
   1  -1  15    1.54    0.21
   1   1  15    1.27    0.19
  -1   1 -15    1.34    0.21
   1   1  15    1.47    0.19
  -2  -1 -15    0.05    0.10
   2  -1  15   -0.07    0.07
   2  -1  15   -0.02    0.08
  -2   1 -15    0.07    0.10
   2   1  15    0.07    0.09
  -4  -2  15    2.05    0.30
   4  -2 -15    1.92    0.26
   4   2 -15    2.02    0.27
  -4   2  15    2.54    0.32
   4   2 -15    2.06    0.25
   3  -2 -15   -0.02    0.07
  -3  -2  15    0.01    0.10
   3  -2 -15   -0.15    0.05
   3   2 -15   -0.04    0.09
   3   2 -15   -0.04    0.07
  -3   2  15   -0.01    0.08
   2  -2 -15    0.19    0.08
   2  -2 -15    0.15    0.08
  -2  -2  15    0.16    0.11
  -2   2  15    0.31    0.12
   2   2 -15   -0.13    0.06
  -1  -2  15    2.93    0.26
   1  -2 -15    2.63    0.22
  -1   2  15    3.17    0.24
  -1   2  15    2.86    0.21
   1   2 -15    2.06    0.24
   0  -2  15    1.17    0.17
   0  -2 -15    1.66    0.22
   0  -2  15    1.62    0.22
   0   2  15    1.37    0.18
   0   2 -15    1.32    0.19
   0   2  15    1.54    0.20
   1  -2  15    0.42    0.12
   1  -2  15    0.28    0.12
  -1  -2 -15    0.13    0.11
   1   2  15    0.28    0.12
  -1   2 -15    0.31    0.13
  -2  -2 -15    0.08    0.09
   2  -2  15    0.18    0.11
   2  -2  15    0.09    0.09
   2   2  15    0.03    0.09
  -2   2 -15   -0.07    0.08
  -3  -3  15    0.81    0.18
   3  -3 -15    0.94    0.17
  -3   3  15    0.93    0.19
   3   3 -15    1.06    0.21
   3   3 -15    0.85    0.16
  -2  -3  15    0.38    0.15
   2  -3 -15    0.59    0.12
   2  -3 -15    0.48    0.13
  -2   3  15    0.45    0.13
   2   3 -15    0.40    0.14
   1  -3 -15    0.06    0.08
  -1  -3  15    0.25    0.12
  -1   3  15    0.37    0.12
  -1   3  15    0.24    0.09
   1   3 -15    0.41    0.14
   0  -3  15    0.46    0.14
   0  -3  15    0.46    0.12
   0  -3 -15    0.37    0.12
   0   3 -15    0.49    0.13
   0   3  15    0.46    0.12
   0   3  15    0.66    0.13
  -1  -3 -15   -0.15    0.07
   1  -3  15   -0.03    0.07
   1  -3  15    0.00    0.07
  -1   3 -15   -0.01    0.07
   1   3  15   -0.05    0.07
   2  -3  15    0.11    0.10
   2  -3  15   -0.01    0.08
  -2  -3 -15   -0.02    0.08
  -2   3 -15    0.02    0.08
   2   3  15   -0.13    0.07
   3  -4 -15    0.36    0.12
  -3  -4  15    0.27    0.14
   3   4 -15    0.29    0.13
  -3   4  15    0.26    0.12
  -2  -4  15    0.12    0.11
   2  -4 -15    0.07    0.08
   2  -4 -15    0.19    0.09
  -2   4  15    0.23    0.11
   2   4 -15    0.16    0.11
   1  -4 -15    0.20    0.11
  -1  -4  15    0.22    0.12
  -1   4  15    0.16    0.09
   1   4 -15    0.13    0.10
  -1   4  15    0.25    0.10
   0  -4  15    2.87    0.21
   0  -4 -15    3.08    0.26
   0  -4  15    2.86    0.25
   0   4 -15    2.60    0.27
   0   4  15    2.93    0.24
   1  -4  15    0.65    0.16
   1  -4  15    0.78    0.15
  -1  -4 -15    0.78    0.17
   1   4  15    0.80    0.17
  -1   4 -15    0.61    0.16
   2  -4  15   -0.05    0.07
   2  -4  15   -0.12    0.09
  -2  -4 -15    0.07    0.10
   2   4  15   -0.02    0.09
  -2   4 -15   -0.07    0.08
   3  -5 -15    0.06    0.10
  -3  -5  15    0.00    0.11
   3   5 -15    0.03    0.10
  -3   5  15    0.11    0.11
   2  -5 -15    0.78    0.15
   2  -5 -15    1.24    0.18
  -2  -5  15    1.67    0.24
  -2   5  15    1.17    0.18
  -2   5  15    1.35    0.18
   2   5 -15    1.30    0.22
  -1  -5  15    0.46    0.15
   1  -5 -15    0.44    0.11
   1  -5 -15    0.79    0.16
   1   5 -15    0.36    0.13
  -1   5  15    0.51    0.14
  -1   5  15    0.62    0.14
   0  -5 -15    0.03    0.10
   0  -5  15   -0.01    0.07
   0  -5  15    0.04    0.09
   0   5 -15    0.00    0.06
   0   5 -15   -0.03    0.07
   0   5  15    0.02    0.07
  -1  -5 -15    0.40    0.13
   1  -5  15    0.11    0.09
   1  -5  15    0.23    0.13
   1   5  15    0.19    0.11
  -1   5 -15    0.17    0.10
  -1   5 -15    0.26    0.11
   2  -5  15   -0.13    0.09
  -2  -5 -15   -0.09    0.08
  -2   5 -15    0.02    0.10
   2   5  15    0.14    0.10
  -2   5 -15   -0.03    0.11
   3  -6 -15    2.29    0.27
  -3  -6  15    2.01    0.29
   3   6 -15    2.37    0.30
  -3   6  15    2.40    0.28
  -2  -6  15    0.72    0.18
   2  -6 -15    0.97    0.17
  -2   6  15    0.90    0.16
  -2   6  15    0.61    0.14
   2   6 -15    0.64    0.16
  -1  -6  15    0.26    0.14
   1  -6 -15    0.15    0.10
   1  -6 -15    0.36    0.10
  -1   6  15    0.53    0.14
   1   6 -15    0.30    0.12
   0  -6 -15    0.16    0.11
   0  -6  15    0.19    0.12
   0   6 -15    0.03    0.09
   0   6  15    0.05    0.07
   0   6 -15    0.08    0.07
   1  -6  15    0.00    0.09
  -1  -6 -15   -0.01    0.10
  -1   6 -15    0.03    0.09
   1   6  15    0.11    0.11
  -1   6 -15    0.03    0.08
   2  -6  15    0.07    0.10
  -2  -6 -15    0.14    0.12
  -2   6 -15    0.16    0.11
  -2   6 -15   -0.09    0.08
   2   6  15    0.01    0.10
   3  -7 -15    0.13    0.11
  -3  -7  15    0.40    0.15
   3   7 -15    0.33    0.14
  -3   7  15    0.45    0.15
  -2  -7  15    0.14    0.11
   2  -7 -15   -0.02    0.07
  -2   7  15   -0.01    0.07
   2   7 -15   -0.05    0.07
   1  -7 -15    0.18    0.10
  -1  -7  15    0.06    0.11
   1  -7 -15    0.21    0.09
   1   7 -15    0.02    0.08
  -1   7  15    0.11    0.10
   0  -7 -15    0.56    0.15
   0  -7  15    0.49    0.15
   0   7  15    0.82    0.17
   0   7 -15    0.50    0.14
   1  -7  15    0.10    0.10
  -1  -7 -15    0.18    0.12
  -1   7 -15    0.09    0.09
   1   7  15   -0.02    0.08
  -1   7 -15   -0.09    0.09
   2  -8 -15    0.79    0.17
  -2  -8  15    0.68    0.19
  -2   8  15    0.78    0.17
   2   8 -15    0.81    0.19
   1  -8 -15    0.48    0.14
   1  -8 -15    0.37    0.12
  -1  -8  15    0.34    0.14
  -1   8  15    0.29    0.12
   1   8 -15    0.69    0.17
   0  -8  15    0.05    0.10
   0  -8 -15    0.06    0.09
   0   8 -15    0.00    0.08
   0   8  15    0.02    0.08
   1  -8  15    0.45    0.17
  -1  -8 -15    0.20    0.12
  -1   8 -15    0.56    0.16
   1   8  15    0.29    0.13
  -1   8 -15    0.43    0.14
  -2  -9  15    0.45    0.17
   2  -9 -15    0.56    0.15
  -2   9  15    0.53    0.14
   2   9 -15    0.46    0.17
   1  -9 -15    0.20    0.10
  -1  -9  15    0.36    0.15
   1   9 -15   -0.01    0.10
  -1   9  15    0.19    0.11
   0  -9  15   -0.03    0.09
   0  -9 -15    0.09    0.11
   0   9  15    0.15    0.10
   0   9 -15    0.25    0.12
   3   0 -16   -0.04    0.07
  -3   0  16    0.19    0.11
   3   0 -16    0.15    0.11
  -2   0  16    0.21    0.11
   2   0 -16    0.12    0.10
   1   0 -16    0.14    0.10
  -1   0  16    0.29    0.09
  -1   0  16    0.18    0.11
   0   0  16    4.90    0.29
   0   0 -16    5.52    0.33
   0   0  16    5.54    0.32
  -1   0 -16    0.07    0.09
   1   0  16    0.16    0.10
   1   0  16    0.17    0.10
   2   0  16    0.05    0.10
  -2   0 -16   -0.01    0.10
   3  -1 -16    0.89    0.17
   3  -1 -16    0.96    0.18
  -3  -1  16    0.84    0.19
  -3   1  16    0.52    0.16
   3   1 -16    0.53    0.16
   2  -1 -16    1.38    0.20
  -2  -1  16    1.43    0.21
   2   1 -16    1.35    0.20
  -2   1  16    1.07    0.18
  -1  -1  16   -0.05    0.07
   1  -1 -16    0.03    0.10
  -1   1  16   -0.11    0.06
   1   1 -16    0.15    0.10
  -1   1  16   -0.02    0.06
   0  -1  16    0.41    0.13
   0  -1  16    0.39    0.12
   0  -1 -16    0.34    0.14
   0   1  16    0.40    0.12
   0   1  16    0.61    0.14
   0   1 -16    0.34    0.13
  -1  -1 -16    0.09    0.10
   1  -1  16    0.18    0.09
   1  -1  16    0.21    0.12
   1   1  16    0.21    0.10
  -1   1 -16    0.23    0.11
   1   1  16    0.09    0.10
  -2  -1 -16   -0.02    0.09
   2  -1  16    0.04    0.10
   2  -1  16   -0.06    0.09
  -2   1 -16   -0.12    0.08
   2   1  16   -0.05    0.07
  -3  -2  16    0.28    0.13
   3  -2 -16    0.25    0.11
   3  -2 -16    0.34    0.12
  -3   2  16    0.26    0.13
   3   2 -16    0.09    0.10
  -2  -2  16    0.44    0.16
   2  -2 -16    0.45    0.14
   2   2 -16    0.61    0.16
  -2   2  16    0.65    0.16
  -1  -2  16    0.41    0.15
   1  -2 -16    0.21    0.12
  -1   2  16    0.48    0.13
  -1   2  16    0.10    0.08
   1   2 -16    0.15    0.11
   0  -2 -16    7.18    0.37
   0  -2  16    6.33    0.32
   0   2 -16    6.85    0.38
   0   2  16    7.00    0.34
   0   2  16    6.83    0.35
   1  -2  16    0.17    0.10
  -1  -2 -16   -0.08    0.08
   1  -2  16    0.26    0.12
   1   2  16    0.01    0.07
  -1   2 -16    0.04    0.09
   2  -2  16    0.03    0.10
  -2  -2 -16    0.02    0.09
   2  -2  16   -0.03    0.09
  -2   2 -16    0.16    0.11
   2   2  16   -0.11    0.07
   3  -3 -16   -0.02    0.07
  -3  -3  16   -0.02    0.11
  -3   3  16    0.11    0.11
   3   3 -16    0.01    0.09
  -2  -3  16    0.40    0.14
   2  -3 -16    0.35    0.13
  -2   3  16    0.02    0.10
   2   3 -16    0.12    0.11
  -1  -3  16    0.11    0.11
   1  -3 -16    0.01    0.07
  -1   3  16   -0.05    0.05
   1   3 -16    0.03    0.10
  -1   3  16    0.08    0.09
   0  -3  16    0.08    0.08
   0  -3  16    0.02    0.09
   0  -3 -16    0.10    0.11
   0   3 -16   -0.01    0.08
   0   3  16    0.11    0.09
   1  -3  16    1.63    0.24
   1  -3  16    1.55    0.23
  -1  -3 -16    1.17    0.21
  -1   3 -16    1.15    0.20
   1   3  16    1.01    0.19
   2  -3  16    0.16    0.12
   2  -3  16    0.33    0.14
  -2  -3 -16    0.18    0.11
  -2   3 -16    0.18    0.11
   2   3  16    0.21    0.12
   3  -4 -16    0.32    0.11
  -3  -4  16    0.42    0.16
   3   4 -16    0.43    0.15
  -3   4  16    0.67    0.17
  -2  -4  16    0.08    0.10
   2  -4 -16    0.12    0.08
   2  -4 -16    0.00    0.08
   2   4 -16    0.04    0.09
  -2   4  16    0.05    0.10
  -1  -4  16    0.58    0.15
   1  -4 -16    0.67    0.16
  -1   4  16    0.50    0.13
  -1   4  16    0.55    0.13
   1   4 -16    0.30    0.13
   0  -4 -16    1.30    0.21
   0  -4  16    1.88    0.22
   0  -4  16    1.51    0.23
   0   4  16    1.28    0.19
   0   4 -16    1.64    0.23
   1  -4  16    0.47    0.13
   1  -4  16    0.53    0.16
  -1  -4 -16    0.65    0.16
  -1   4 -16    0.45    0.16
   1   4  16    0.64    0.16
   2  -4  16    0.21    0.13
  -2  -4 -16   -0.17    0.08
   2  -4  16    0.09    0.11
  -2   4 -16   -0.04    0.08
   2   4  16    0.15    0.11
  -3  -5  16   -0.17    0.10
   3  -5 -16    0.20    0.10
   3   5 -16   -0.02    0.11
  -3   5  16    0.01    0.11
  -2  -5  16   -0.08    0.08
   2  -5 -16    0.06    0.07
   2  -5 -16    0.11    0.09
   2   5 -16   -0.02    0.09
  -2   5  16    0.00    0.09
   1  -5 -16    0.18    0.10
  -1  -5  16    0.15    0.13
  -1   5  16    0.16    0.09
   1   5 -16    0.10    0.10
   0  -5  16    0.24    0.09
   0  -5 -16    0.29    0.12
   0  -5  16    0.26    0.12
   0   5 -16    0.43    0.12
   0   5  16    0.40    0.13
   0   5 -16    0.39    0.13
   1  -5  16    0.04    0.09
  -1  -5 -16    0.41    0.15
   1  -5  16    0.08    0.11
  -1   5 -16    0.21    0.12
  -1   5 -16    0.06    0.10
   1   5  16    0.00    0.10
   2  -6 -16   -0.04    0.08
  -2  -6  16    0.01    0.12
  -2   6  16    0.03    0.08
   2   6 -16   -0.14    0.07
   1  -6 -16    0.60    0.14
  -1  -6  16    0.34    0.14
  -1   6  16    0.32    0.12
   1   6 -16    0.41    0.14
   0  -6  16    0.20    0.13
   0  -6 -16    0.12    0.11
   0   6 -16    0.05    0.09
   0   6  16    0.27    0.11
   1  -6  16    0.10    0.11
  -1  -6 -16   -0.04    0.08
   1   6  16    0.16    0.10
  -1   6 -16    0.09    0.11
  -1   6 -16    0.00    0.09
  -2  -7  16    1.53    0.26
   2  -7 -16    1.60    0.22
  -2   7  16    1.38    0.20
   2   7 -16    1.09    0.22
   1  -7 -16    0.06    0.10
  -1  -7  16    0.13    0.10
  -1   7  16   -0.09    0.07
   1   7 -16   -0.04    0.10
   0  -7 -16    0.04    0.10
   0  -7  16    0.42    0.16
   0   7 -16   -0.03    0.08
   0   7  16    0.00    0.09
   1  -7  16    0.07    0.11
  -1  -7 -16    0.15    0.13
   1   7  16    0.22    0.13
  -1   7 -16    0.19    0.13
  -1   7 -16    0.10    0.10
  -1  -8  16   -0.08    0.09
   1  -8 -16    0.07    0.09
  -1   8  16    0.07    0.09
   1   8 -16   -0.05    0.09
   0  -8  16    0.07    0.11
   0  -8 -16    0.29    0.12
   0   8  16    0.16    0.11
   0   8 -16    0.09    0.11
   3   0 -17   -0.01    0.08
  -3   0  17   -0.01    0.11
   2   0 -17   -0.04    0.08
  -2   0  17   -0.02    0.10
  -1   0  17   -0.06    0.08
   1   0 -17    0.03    0.09
   0   0 -17    0.04    0.09
   0   0  17    0.03    0.08
   0   0  17   -0.15    0.06
   1   0  17    0.05    0.08
   1   0  17    0.09    0.10
  -1   0 -17   -0.03    0.09
  -3  -1  17    0.16    0.14
   3  -1 -17    0.22    0.13
   3   1 -17    0.27    0.14
  -3   1  17    0.10    0.11
   2  -1 -17    0.49    0.15
  -2  -1  17    0.62    0.17
  -2   1  17    0.24    0.12
   2   1 -17    0.47    0.15
   1  -1 -17    0.06    0.10
  -1  -1  17    0.16    0.11
  -1   1  17    0.02    0.07
   1   1 -17    0.23    0.11
  -1   1  17   -0.03    0.09
   0  -1  17    1.19    0.20
   0  -1  17    1.20    0.18
   0  -1 -17    1.23    0.21
   0   1  17    1.64    0.22
   0   1  17    1.07    0.18
   0   1 -17    1.68    0.24
   1  -1  17    0.29    0.14
  -1  -1 -17    0.10    0.13
   1  -1  17    0.10    0.10
   1   1  17    0.07    0.09
  -1   1 -17    0.12    0.12
   3  -2 -17    0.39    0.14
  -3  -2  17    0.33    0.16
  -3   2  17    0.71    0.19
   3   2 -17    0.52    0.16
  -2  -2  17    0.16    0.13
   2  -2 -17   -0.01    0.09
  -2   2  17    0.24    0.13
   2   2 -17    0.15    0.11
   1  -2 -17   -0.01    0.08
  -1  -2  17    0.07    0.11
  -1   2  17   -0.01    0.07
   1   2 -17   -0.01    0.08
  -1   2  17    0.06    0.09
   0  -2 -17    0.16    0.11
   0  -2  17    0.38    0.12
   0  -2  17    0.03    0.11
   0   2  17    0.43    0.13
   0   2  17    0.10    0.10
   0   2 -17    0.24    0.12
   1  -2  17    1.08    0.19
   1  -2  17    1.20    0.21
  -1  -2 -17    1.09    0.21
  -1   2 -17    1.16    0.22
   1   2  17    0.55    0.15
  -3  -3  17    1.72    0.27
   3  -3 -17    1.76    0.23
   3   3 -17    2.13    0.28
  -3   3  17    1.53    0.25
   2  -3 -17    0.22    0.11
  -2  -3  17    0.19    0.13
  -2   3  17    0.16    0.11
   2   3 -17    0.08    0.10
   1  -3 -17   -0.04    0.09
  -1  -3  17   -0.07    0.08
  -1   3  17    0.11    0.10
  -1   3  17   -0.01    0.06
   1   3 -17    0.00    0.10
   0  -3 -17   -0.03    0.09
   0  -3  17    0.14    0.09
   0  -3  17    0.05    0.09
   0   3  17    0.19    0.10
   0   3 -17    0.05    0.09
   1  -3  17    1.23    0.21
   1  -3  17    0.71    0.16
  -1  -3 -17    0.95    0.19
   1   3  17    0.71    0.17
  -1   3 -17    0.59    0.16
   2  -4 -17    0.05    0.08
  -2  -4  17    0.03    0.10
  -2   4  17    0.00    0.10
   2   4 -17    0.06    0.09
  -1  -4  17    0.44    0.16
   1  -4 -17    0.40    0.12
  -1   4  17    0.48    0.13
   1   4 -17    0.33    0.14
   0  -4 -17   -0.04    0.10
   0  -4  17    0.07    0.09
   0  -4  17    0.03    0.09
   0   4 -17    0.02    0.09
   0   4  17   -0.02    0.08
  -1  -4 -17    0.46    0.15
   1  -4  17    0.34    0.15
   1  -4  17    0.20    0.12
  -1   4 -17    0.49    0.14
   1   4  17    0.71    0.17
  -2  -5  17    1.66    0.27
   2  -5 -17    2.14    0.25
  -2   5  17    1.97    0.26
   2   5 -17    1.94    0.27
  -1  -5  17    0.44    0.16
   1  -5 -17    0.11    0.12
  -1   5  17    0.17    0.11
   1   5 -17    0.03    0.08
   0  -5 -17   -0.01    0.10
   0  -5  17    0.12    0.11
   0   5 -17    0.09    0.11
   0   5  17    0.01    0.08
  -1  -5 -17   -0.02    0.10
   1  -5  17    0.16    0.12
   1  -5  17    0.01    0.09
   1   5  17    0.17    0.11
  -1   5 -17    0.30    0.13
  -1   5 -17    0.04    0.09
  -2  -6  17    0.61    0.19
   2   6 -17    0.66    0.18
   1  -6 -17    0.20    0.13
  -1  -6  17    0.51    0.17
   1   6 -17    0.34    0.13
  -1   6  17    0.13    0.10
   0  -6  17    0.35    0.15
   0  -6 -17    0.06    0.12
   0   6  17    0.11    0.09
   0   6 -17    0.06    0.10
   1  -7 -17    0.20    0.11
  -1  -7  17    0.10    0.12
  -1   7  17    0.18    0.12
   1   7 -17    0.06    0.10
   0  -7 -17    0.10    0.12
   0  -7  17    0.26    0.15
   0   7 -17    0.33    0.13
   0   7  17    0.33    0.13
   2   0 -18    1.05    0.20
  -2   0  18    0.79    0.19
   1   0 -18   -0.09    0.09
  -1   0  18    0.00    0.10
   0   0  18    0.11    0.09
   0   0 -18    0.04    0.09
   0   0  18    0.25    0.11
   1   0  18   -0.03    0.09
  -1   0 -18    0.05    0.09
   2  -1 -18    0.44    0.15
  -2  -1  18   -0.06    0.10
   2   1 -18    0.13    0.11
  -2   1  18    0.14    0.12
   1  -1 -18    0.48    0.16
  -1  -1  18    0.55    0.17
  -1   1  18    0.42    0.15
   1   1 -18    0.58    0.16
   0  -1  18   -0.01    0.09
   0  -1  18    0.01    0.08
   0  -1 -18   -0.05    0.08
   0   1 -18   -0.10    0.09
   0   1  18    0.06    0.09
   0   1  18    0.11    0.10
  -1  -1 -18    0.56    0.17
   1  -1  18    0.43    0.14
   1  -1  18    0.58    0.16
   1   1  18    0.52    0.17
  -1   1 -18    0.33    0.14
   2  -2 -18    0.36    0.14
  -2  -2  18    0.23    0.13
   2   2 -18    0.62    0.18
  -2   2  18    0.56    0.16
  -1  -2  18    0.70    0.18
   1  -2 -18    0.59    0.18
  -1   2  18    0.48    0.15
   1   2 -18    0.56    0.16
   0  -2 -18    0.07    0.12
   0  -2  18    0.00    0.08
   0  -2  18    0.10    0.11
   0   2  18    0.13    0.10
   0   2 -18   -0.05    0.09
   1  -2  18    2.03    0.27
  -1  -2 -18    1.72    0.26
   1  -2  18    2.27    0.28
   1   2  18    2.00    0.27
  -1   2 -18    2.22    0.28
   2  -3 -18    0.02    0.09
  -2  -3  18   -0.10    0.07
   2   3 -18    0.00    0.08
  -2   3  18    0.17    0.12
   1  -3 -18    0.10    0.11
  -1  -3  18   -0.02    0.10
   1   3 -18    0.06    0.10
  -1   3  18    0.05    0.08
  -1   3  18   -0.03    0.09
   0  -3 -18    0.37    0.15
   0  -3  18   -0.01    0.09
   0   3 -18   -0.04    0.10
   0   3  18   -0.04    0.08
  -2  -4  18    0.43    0.18
   2  -4 -18    0.77    0.17
  -2   4  18    0.83    0.18
   2   4 -18    0.88    0.19
  -1  -4  18    0.00    0.10
   1  -4 -18    0.17    0.11
  -1   4  18   -0.01    0.08
   1   4 -18    0.00    0.09
   0  -4 -18    0.09    0.12
   0  -4  18    0.01    0.11
   0   4  18    0.28    0.11
   0   4 -18    0.11    0.11
  -1  -5  18    0.07    0.11
   1  -5 -18    0.05    0.10
   1   5 -18   -0.15    0.08
  -1   5  18    0.03    0.09
   0  -5 -18    0.12    0.12
   0  -5  18    0.48    0.16
   0   5  18    0.12    0.10
   0   5 -18    0.25    0.14
  -1   0  19    0.07    0.12
   1   0 -19   -0.02    0.09
   0   0  19    0.11    0.11
   0   0  19   -0.03    0.07
   0   0 -19   -0.12    0.10
   1  -1 -19   -0.04    0.10
  -1  -1  19    0.09    0.11
  -1   1  19   -0.06    0.09
   1   1 -19   -0.05    0.11
   0  -1  19    0.07    0.12
   0  -1 -19    0.02    0.11
   0  -1  19   -0.10    0.08
   0   1 -19   -0.02    0.10
   0   1  19    0.01    0.09
  -1  -2  19    0.24    0.13
   1  -2 -19    0.10    0.13
   1   2 -19    0.15    0.13
  -1   2  19   -0.06    0.10
   0   0   0    0.00    0.00
;
_shelx_hkl_checksum              92742
#END Tags that were not found in dictionaries
loop_
_space_group_symop_operation_xyz
'x, y, z'
'-x, y+1/2, -z+1/2'
'-x, -y, -z'
'x, -y-1/2, z-1/2'
loop_
_atom_site_type_symbol
_atom_site_label
_atom_site_fract_x
_atom_site_fract_y
_atom_site_fract_z
_atom_site_U_iso_or_equiv
_atom_site_adp_type
_atom_site_calc_flag
_atom_site_refinement_flags_adp
_atom_site_refinement_flags_posn
_atom_site_occupancy
O O2 0.5097(3) 0.22252(9) 0.78085(8) 0.0659(4) Uani d . . 1
O O1 0.7308(3) 0.13433(8) 0.64666(8) 0.0629(4) Uani d . . 1
N N1 0.2845(4) 0.28935(14) 0.90921(11) 0.0852(6) Uani d . . 1
C C9 0.3943(4) 0.26189(13) 0.84860(11) 0.0565(4) Uani d . . 1
C C5 0.6558(3) 0.29462(12) 0.72454(10) 0.0453(4) Uani d . . 1
C C4 0.7713(3) 0.24374(12) 0.65310(10) 0.0442(4) Uani d . . 1
C C3 0.9177(3) 0.30816(12) 0.59556(10) 0.0452(4) Uani d . . 1
H H3 0.9961 0.2762 0.5467 0.054 Uiso calc U R 1
C C2 0.9499(3) 0.41944(12) 0.60933(9) 0.0430(4) Uani d . . 1
C C1 1.1051(4) 0.48672(13) 0.54338(10) 0.0509(4) Uani d . . 1
H H1 1.2821 0.4474 0.5279 0.061 Uiso calc U R 1
H H2 1.1775 0.554 0.5728 0.061 Uiso calc U R 1
C C7 0.8328(3) 0.46621(12) 0.68193(10) 0.0490(4) Uani d . . 1
H H5 0.855 0.5406 0.692 0.059 Uiso calc U R 1
C C6 0.6821(4) 0.40362(13) 0.74009(10) 0.0501(4) Uani d . . 1
H H4 0.601 0.4354 0.7886 0.06 Uiso calc U R 1
C C8 0.8705(5) 0.07989(14) 0.57788(13) 0.0696(5) Uani d . . 1
H H7 0.7829 0.1059 0.5191 0.104 Uiso calc U R 1
H H8 0.8357 0.0031 0.5817 0.104 Uiso calc U R 1
H H6 1.0869 0.094 0.5865 0.104 Uiso calc U R 1
loop_
_atom_site_aniso_label
_atom_site_aniso_U_11
_atom_site_aniso_U_22
_atom_site_aniso_U_33
_atom_site_aniso_U_12
_atom_site_aniso_U_13
_atom_site_aniso_U_23
O2 0.0966(9) 0.0499(7) 0.0609(7) -0.0095(6) 0.0467(7) 0.0026(6)
O1 0.0939(9) 0.0374(6) 0.0654(8) -0.0030(6) 0.0404(7) -0.0013(5)
N1 0.1231(15) 0.0763(12) 0.0681(11) 0.0047(10) 0.0565(11) 0.0077(9)
C9 0.0724(11) 0.0527(10) 0.0495(10) -0.0020(8) 0.0264(9) 0.0079(8)
C5 0.0540(9) 0.0445(9) 0.0407(8) -0.0035(7) 0.0186(7) 0.0068(6)
C4 0.0536(9) 0.0367(8) 0.0447(8) -0.0007(6) 0.0157(7) 0.0028(6)
C3 0.0506(9) 0.0465(9) 0.0413(8) 0.0016(7) 0.0170(7) 0.0021(6)
C2 0.0404(8) 0.0458(9) 0.0430(8) -0.0041(6) 0.0068(6) 0.0078(7)
C1 0.0494(9) 0.0517(9) 0.0529(9) -0.0101(7) 0.0111(7) 0.0115(7)
C7 0.0594(10) 0.0377(8) 0.0508(9) -0.0039(7) 0.0104(8) 0.0013(7)
C6 0.0635(10) 0.0458(9) 0.0442(9) 0.0005(7) 0.0185(7) -0.0027(7)
C8 0.1033(14) 0.0417(9) 0.0712(12) 0.0053(9) 0.0385(11) -0.0079(8)
loop_
_atom_type_symbol
_atom_type_description
_atom_type_scat_dispersion_real
_atom_type_scat_dispersion_imag
_atom_type_scat_source
C C 0.0033 0.0016 'International Tables Vol C Tables 4.2.6.8 and 6.1.1.4'
H H 0.0000 0.0000 'International Tables Vol C Tables 4.2.6.8 and 6.1.1.4'
N N 0.0061 0.0033 'International Tables Vol C Tables 4.2.6.8 and 6.1.1.4'
O O 0.0106 0.0060 'International Tables Vol C Tables 4.2.6.8 and 6.1.1.4'
loop_
_geom_angle_atom_site_label_1
_geom_angle_atom_site_label_2
_geom_angle_atom_site_label_3
_geom_angle_site_symmetry_1
_geom_angle_site_symmetry_3
_geom_angle
C9 O2 C5 . . 118.70(12)
C4 O1 C8 . . 116.78(12)
N1 C9 O2 . . 175.05(19)
C6 C5 C4 . . 122.89(13)
C6 C5 O2 . . 123.16(13)
C4 C5 O2 . . 113.95(13)
O1 C4 C5 . . 116.35(12)
O1 C4 C3 . . 126.21(13)
C5 C4 C3 . . 117.44(14)
C4 C3 C2 . . 121.37(13)
C4 C3 H3 . . 119.3
C2 C3 H3 . . 119.3
C7 C2 C3 . . 118.98(13)
C7 C2 C1 . . 121.60(14)
C3 C2 C1 . . 119.40(13)
C2 C1 C1 . 3_766 112.95(15)
C2 C1 H1 . . 109.0
C1 C1 H1 3_766 . 109.0
C2 C1 H2 . . 109.0
C1 C1 H2 3_766 . 109.0
H1 C1 H2 . . 107.8
C2 C7 C6 . . 120.80(14)
C2 C7 H5 . . 119.6
C6 C7 H5 . . 119.6
C5 C6 C7 . . 118.52(14)
C5 C6 H4 . . 120.7
C7 C6 H4 . . 120.7
O1 C8 H7 . . 109.5
O1 C8 H8 . . 109.5
H7 C8 H8 . . 109.5
O1 C8 H6 . . 109.5
H7 C8 H6 . . 109.5
H8 C8 H6 . . 109.5
loop_
_geom_bond_atom_site_label_1
_geom_bond_atom_site_label_2
_geom_bond_site_symmetry_2
_geom_bond_distance
O2 C9 . 1.2797(18)
O2 C5 . 1.4282(16)
O1 C4 . 1.3596(17)
O1 C8 . 1.4257(19)
N1 C9 . 1.127(2)
C5 C6 . 1.363(2)
C5 C4 . 1.3838(19)
C4 C3 . 1.3845(19)
C3 C2 . 1.389(2)
C3 H3 . 0.93
C2 C7 . 1.380(2)
C2 C1 . 1.5114(19)
C1 C1 3_766 1.518(3)
C1 H1 . 0.97
C1 H2 . 0.97
C7 C6 . 1.388(2)
C7 H5 . 0.93
C6 H4 . 0.93
C8 H7 . 0.96
C8 H8 . 0.96
C8 H6 . 0.96
loop_
_geom_hbond_atom_site_label_D
_geom_hbond_atom_site_label_H
_geom_hbond_atom_site_label_A
_geom_hbond_site_symmetry_A
_geom_hbond_distance_DH
_geom_hbond_distance_HA
_geom_hbond_distance_DA
_geom_hbond_angle_DHA
C8 H8 N1 2_646 0.96 2.69 3.649(2) 177.8
C3 H3 N1 4_665 0.93 2.67 3.587(2) 170.9
C8 H8 N1 2_646 0.96 2.69 3.649(2) 177.8
C3 H3 N1 4_665 0.93 2.67 3.587(2) 170.9
C8 H8 N1 2_646 0.96 2.69 3.649(2) 177.8
C3 H3 N1 4_665 0.93 2.67 3.587(2) 170.9
C8 H8 N1 2_646 0.96 2.69 3.649(2) 177.8
C3 H3 N1 4_665 0.93 2.67 3.587(2) 170.9
C8 H8 N1 2_646 0.96 2.69 3.649(2) 177.8
C3 H3 N1 4_665 0.93 2.67 3.587(2) 170.9
C3 H3 N1 4_665 0.93 2.67 3.587(2) 170.9
C8 H8 N1 2_646 0.96 2.69 3.649(2) 177.8
C3 H3 N1 4_665 0.93 2.67 3.587(2) 170.9
C8 H8 N1 2_646 0.96 2.69 3.649(2) 177.8
C3 H3 N1 4_665 0.93 2.67 3.587(2) 170.9
C8 H8 N1 2_646 0.96 2.69 3.649(2) 177.8
C3 H3 N1 4_665 0.93 2.67 3.587(2) 170.9
C8 H8 N1 2_646 0.96 2.69 3.649(2) 177.8
C3 H3 N1 4_665 0.93 2.67 3.587(2) 170.9
C8 H8 N1 2_646 0.96 2.69 3.649(2) 177.8
C3 H3 N1 4_665 0.93 2.67 3.587(2) 170.9
C8 H8 N1 2_646 0.96 2.69 3.649(2) 177.8
loop_
_geom_torsion_atom_site_label_1
_geom_torsion_atom_site_label_2
_geom_torsion_atom_site_label_3
_geom_torsion_atom_site_label_4
_geom_torsion_site_symmetry_4
_geom_torsion
C9 O2 C5 C6 . 0.9(2)
C9 O2 C5 C4 . -179.71(15)
C8 O1 C4 C5 . -175.03(15)
C8 O1 C4 C3 . 4.6(2)
C6 C5 C4 O1 . 179.31(15)
O2 C5 C4 O1 . -0.1(2)
C6 C5 C4 C3 . -0.3(2)
O2 C5 C4 C3 . -179.73(13)
O1 C4 C3 C2 . -179.07(15)
C5 C4 C3 C2 . 0.5(2)
C4 C3 C2 C7 . -0.1(2)
C4 C3 C2 C1 . -178.58(14)
C7 C2 C1 C1 3_766 -98.7(2)
C3 C2 C1 C1 3_766 79.8(2)
C3 C2 C7 C6 . -0.6(2)
C1 C2 C7 C6 . 177.87(14)
C4 C5 C6 C7 . -0.3(2)
O2 C5 C6 C7 . 179.03(14)
C2 C7 C6 C5 . 0.8(2)
