#------------------------------------------------------------------------------
#$Date: 2016-03-26 22:36:24 +0200 (Sat, 26 Mar 2016) $
#$Revision: 180512 $
#$URL: svn://www.crystallography.net/cod/cif/7/21/81/7218146.cif $
#------------------------------------------------------------------------------
#
# This file is available in the Crystallography Open Database (COD),
# http://www.crystallography.net/
#
# All data on this site have been placed in the public domain by the
# contributors.
#
data_7218146
loop_
_publ_author_name
'Wang, Lei'
'Hu, Yanjing'
'Xu, Wenyan'
'pang, Yanyan'
'Liu, Faqian'
'Yang, Yu'
_publ_section_title
;
 Investigation of Hydrogen Bonding Patterns in A Series of Multi-component
 Molecular Solids Formed by Tetrabromoterephthalic Acid with Selected
 N-heterocycles
;
_journal_name_full               'RSC Adv.'
_journal_paper_doi               10.1039/C4RA08452G
_journal_year                    2014
_chemical_formula_moiety         'Br2 C4 O2, C5 H9 N2'
_chemical_formula_sum            'C9 H8 Br2 N2 O2'
_chemical_formula_weight         335.99
_chemical_name_systematic
;
 ?
;
_space_group_crystal_system      triclinic
_space_group_IT_number           2
_space_group_name_Hall           '-P 1'
_space_group_name_H-M_alt        'P -1'
_symmetry_space_group_name_Hall  '-P 1'
_symmetry_space_group_name_H-M   'P -1'
_atom_sites_solution_hydrogens   mixed
_audit_creation_date             2014-09-04
_audit_creation_method
;
Olex2 1.2
(compiled 2014.07.22 svn.r2960 for OlexSys, GUI svn.r4862)
;
_cell_angle_alpha                115.443(10)
_cell_angle_beta                 102.074(9)
_cell_angle_gamma                91.498(8)
_cell_formula_units_Z            2
_cell_length_a                   8.1803(8)
_cell_length_b                   8.7685(7)
_cell_length_c                   8.9983(10)
_cell_measurement_reflns_used    1787
_cell_measurement_temperature    293(2)
_cell_measurement_theta_max      29.1560
_cell_measurement_theta_min      2.5770
_cell_volume                     565.01(11)
_computing_cell_refinement
;
CrysAlisPro, Agilent Technologies,
Version 1.171.36.28 (release 01-02-2013 CrysAlis171 .NET)
(compiled Feb  1 2013,16:14:44)
;
_computing_data_collection
;
CrysAlisPro, Agilent Technologies,
Version 1.171.36.28 (release 01-02-2013 CrysAlis171 .NET)
(compiled Feb  1 2013,16:14:44)
;
_computing_data_reduction
;
CrysAlisPro, Agilent Technologies,
Version 1.171.36.28 (release 01-02-2013 CrysAlis171 .NET)
(compiled Feb  1 2013,16:14:44)
;
_computing_molecular_graphics    'Olex2 (Dolomanov et al., 2009)'
_computing_publication_material  'Olex2 (Dolomanov et al., 2009)'
_computing_structure_refinement  'ShelXL (Sheldrick, 2008)'
_diffrn_ambient_temperature      293(2)
_diffrn_measured_fraction_theta_full 1.000
_diffrn_measured_fraction_theta_max 0.987
_diffrn_measurement_device_type  'multiwire proportional'
_diffrn_measurement_method       'phi and omega scans'
_diffrn_radiation_monochromator  graphite
_diffrn_radiation_type           MoK\a
_diffrn_radiation_wavelength     0.71073
_diffrn_reflns_av_R_equivalents  0.0229
_diffrn_reflns_av_unetI/netI     0.0474
_diffrn_reflns_Laue_measured_fraction_full 1.000
_diffrn_reflns_Laue_measured_fraction_max 0.987
_diffrn_reflns_limit_h_max       10
_diffrn_reflns_limit_h_min       -10
_diffrn_reflns_limit_k_max       11
_diffrn_reflns_limit_k_min       -10
_diffrn_reflns_limit_l_max       11
_diffrn_reflns_limit_l_min       -10
_diffrn_reflns_number            3905
_diffrn_reflns_point_group_measured_fraction_full 1.000
_diffrn_reflns_point_group_measured_fraction_max 0.987
_diffrn_reflns_theta_full        25.242
_diffrn_reflns_theta_max         26.990
_diffrn_reflns_theta_min         2.568
_exptl_absorpt_coefficient_mu    7.155
_exptl_absorpt_correction_T_max  1.0000
_exptl_absorpt_correction_T_min  0.9377
_exptl_absorpt_correction_type   multi-scan
_exptl_absorpt_process_details
;
CrysAlisPro, Agilent Technologies,
Version 1.171.36.28 (release 01-02-2013 CrysAlis171 .NET)
(compiled Feb  1 2013,16:14:44)
SADABS v.2.10 (Bruker,2003) was used for absorption correction.
R(int) for selected reflections was 0.1079 before and 0.0236 after
correction. The Ratio of minimum to maximum transmission is 0.42976.
The \l/2 correction factor is 0.0015
;
_exptl_crystal_colour            colourless
_exptl_crystal_density_diffrn    1.975
_exptl_crystal_density_method    'not measured'
_exptl_crystal_description       block
_exptl_crystal_F_000             324
_exptl_crystal_size_max          0.22
_exptl_crystal_size_mid          0.18
_exptl_crystal_size_min          0.15
_refine_diff_density_max         0.520
_refine_diff_density_min         -0.812
_refine_diff_density_rms         0.127
_refine_ls_extinction_method     none
_refine_ls_goodness_of_fit_ref   1.063
_refine_ls_hydrogen_treatment    mixed
_refine_ls_matrix_type           full
_refine_ls_number_parameters     142
_refine_ls_number_reflns         2429
_refine_ls_number_restraints     0
_refine_ls_restrained_S_all      1.063
_refine_ls_R_factor_all          0.0500
_refine_ls_R_factor_gt           0.0347
_refine_ls_shift/su_max          0.000
_refine_ls_shift/su_mean         0.000
_refine_ls_structure_factor_coef Fsqd
_refine_ls_weighting_details
;
 w=1/[\s^2^(Fo^2^)+(0.0327P)^2^]
 where P=(Fo^2^+2Fc^2^)/3
;
_refine_ls_weighting_scheme      calc
_refine_ls_wR_factor_gt          0.0731
_refine_ls_wR_factor_ref         0.0800
_reflns_Friedel_coverage         0.000
_reflns_number_gt                1913
_reflns_number_total             2429
_reflns_threshold_expression     'I > 2\s(I)'
_cod_data_source_file            c4ra08452g2.cif
_cod_data_source_block           w1
_cod_database_code               7218146
#BEGIN Tags that were not found in dictionaries:
_shelxl_version_number           2013-2
_shelx_space_group_comment
;
The symmetry employed for this shelxl refinement is uniquely defined
by the following loop, which should always be used as a source of
symmetry information in preference to the above space-group names.
They are only intended as comments.
;
_olex2_refinement_description
;
1. Fixed Uiso
 At 1.2 times of:
  All C(H) groups, All N(H) groups
 At 1.5 times of:
  All C(H,H,H) groups
2.a Aromatic/amide H refined with riding coordinates:
 N2(H2), C17(H17)
2.b Idealised Me refined as rotating group:
 C14(H14A,H14B,H14C), C19(H19A,H19B,H19C)
;
_shelx_res_file
;
TITL w1 in P-1
CELL 0.71073 8.1803 8.7685 8.9983 115.443 102.074 91.498
ZERR 2 0.0008 0.0007 0.001 0.01 0.009 0.008
LATT 1

SFAC C H Br N O
UNIT 18 16 4 4 4

L.S. 24
PLAN  5
BOND
fmap 2
acta
OMIT -3 54
REM <HKL>C:/Users/lenovo/Desktop/hu%20rsc/D-HNSF-21-10QI/struct/tmp-7/W1.hkl</
REM HKL>

WGHT    0.032700
FVAR       0.65275
BR1   3    0.510159    0.729848    0.163826    11.00000    0.06682    0.02284 =
         0.02908    0.01683    0.02227    0.01452
BR2   3    0.432555    1.127894    0.378131    11.00000    0.05987    0.02982 =
         0.02207    0.01159    0.02339    0.01376
O1    5    0.558402    1.456867    0.286480    11.00000    0.04596    0.01881 =
         0.02860    0.00624    0.00034    0.00734
C4    1    0.433220    1.349594    0.191880    11.00000    0.04147    0.02137 =
         0.01362    0.00885    0.01252    0.01388
O2    5    0.283520    1.374684    0.168380    11.00000    0.03942    0.03247 =
         0.03589    0.01155    0.01444    0.01990
C6    1    0.470808    1.052508    0.159503    11.00000    0.02726    0.02384 =
         0.01519    0.00925    0.01155    0.00704
C7    1    0.504294    0.887161    0.070394    11.00000    0.03378    0.01570 =
         0.01960    0.00940    0.00861    0.00510
C8    1    0.468006    1.167600    0.090272    11.00000    0.02590    0.01504 =
         0.01967    0.00656    0.00751    0.00522
N2    4    0.817739    1.357781    0.439406    11.00000    0.03491    0.03521 =
         0.03313    0.01265    0.00671    0.01084
AFIX  43
H2    2    0.750397    1.405496    0.390656    11.00000   -1.20000
AFIX   0
N1    4    0.836680    1.382736    0.599504    11.00000    0.03654    0.03401 =
         0.03221    0.00586    0.01024    0.01495
C11   1    0.951112    1.289596    0.633129    11.00000    0.03926    0.04472 =
         0.03373    0.01013    0.00628    0.02113
C13   1    0.919211    1.247546    0.366622    11.00000    0.02992    0.03625 =
         0.03578    0.00514    0.01285    0.00231
C14   1    0.923283    1.191837    0.187428    11.00000    0.04585    0.06814 =
         0.04470    0.01066    0.01941    0.00235
AFIX 137
H14A  2    0.881211    1.072817    0.122988    11.00000   -1.50000
H14B  2    1.037193    1.210484    0.180910    11.00000   -1.50000
H14C  2    0.854088    1.256039    0.142042    11.00000   -1.50000
AFIX   0
C17   1    1.006242    1.203921    0.488463    11.00000    0.03887    0.05053 =
         0.04005    0.00916    0.01231    0.02434
AFIX  43
H17   2    1.087434    1.129977    0.475060    11.00000   -1.20000
AFIX   0
C19   1    0.997738    1.290772    0.802363    11.00000    0.08008    0.08953 =
         0.03906    0.02589    0.00864    0.04597
AFIX 137
H19A  2    1.093440    1.375229    0.872715    11.00000   -1.50000
H19B  2    1.025464    1.180706    0.789247    11.00000   -1.50000
H19C  2    0.904435    1.317142    0.854466    11.00000   -1.50000
AFIX   0
H1    2    0.785910    1.455545    0.672124    11.00000    0.04091
HKLF 4

REM  w1 in P-1
REM R1 =  0.0347 for    1913 Fo > 4sig(Fo)  and  0.0500 for all    2429 data
REM    142 parameters refined using      0 restraints

END

WGHT      0.0327      0.0000

REM Highest difference peak  0.520,  deepest hole -0.812,  1-sigma level  0.127
Q1    1   1.1934  1.2715  0.9298  11.00000  0.05    0.52
Q2    1   0.4040  0.7312  0.1208  11.00000  0.05    0.50
Q3    1   0.3338  0.8106  0.2208  11.00000  0.05    0.47
Q4    1   1.1066  1.2534  0.8189  11.00000  0.05    0.41
Q5    1   0.2931  0.8028  0.1015  11.00000  0.05    0.40
;
_shelx_res_checksum              64333
_shelx_hkl_file
;
   0   0   1  155.89    5.14
   0   0   2  744.29   18.83
   0   0  -2  780.46   20.29
   0   0  -2  773.35   19.16
   0   0   3  871.74   23.33
   0   0   3  909.07   25.68
   0   0  -3  880.87   25.05
   0   0  -3  835.51   23.20
   0   0   4 3143.04   67.31
   0   0  -4 3286.54   68.27
   0   0  -4 3325.32   71.08
   0   0   4 3150.92   71.23
   0   0  -5 1325.37   36.10
   0   0  -5 1270.16   38.77
   0   0   5 1277.90   39.52
   0   0   6  422.29   22.61
   0   0  -7   10.80    3.94
   0   0   7   14.10    5.48
   0   0   8   49.68    9.38
   0   0   8   23.42    6.96
   0   0   9  679.92   36.20
   0   0  10   -8.79    7.14
   0  -1  10   -4.64    6.01
   0  -1   9   12.86    6.67
   0  -1   9   10.50    5.89
   0   1  -8    4.82    3.84
   0  -1   8    1.31    4.70
   0  -1   7 1166.28   42.95
   0  -1   6   95.45   10.38
   0   1  -6   83.06    7.84
   0  -1   5  270.07   15.90
   0   1  -5  281.32   13.27
   0   1  -5  282.89   15.50
   0   1  -4   45.64    4.63
   0   1  -4   43.00    5.36
   0   1  -3 1178.92   30.38
   0   1  -2 1406.29   31.17
   0   1  -1   21.47    1.84
   0   1   0   77.49    3.81
   0   1   1   63.87    3.68
   0  -1  -1   59.06    3.54
   0   1   1   65.85    4.58
   0  -1  -2 3472.46   68.49
   0   1   2 3431.64   70.74
   0  -1  -2 3561.23   69.52
   0   1   2 3532.09   68.97
   0  -1  -3    7.33    2.28
   0   1   3   10.67    2.97
   0  -1  -3    1.40    2.10
   0   1   3    6.73    3.16
   0  -1  -4  921.64   27.66
   0   1   4  876.74   29.08
   0   1   4  923.13   29.57
   0  -1  -4  852.30   27.96
   0   1   5   -0.37    3.76
   0   1   5   -3.22    4.06
   0  -1  -5   -2.31    3.13
   0  -1  -6  249.54   15.14
   0   1   6  253.85   17.58
   0   1   6  268.50   16.68
   0   1   7   29.30    7.80
   0   1   7   36.65    7.70
   0   1   8  352.52   23.78
   0   1   9   59.14   11.64
   0   1  10   -8.27    7.55
   0  -2  10   67.20   12.92
   0  -2  10   61.92   12.11
   0  -2   9  487.26   30.33
   0  -2   8  105.81   12.79
   0  -2   7  412.60   23.37
   0   2  -7  377.31   17.95
   0   2  -6    0.06    2.29
   0   2  -6    5.97    4.48
   0  -2   6   -1.24    3.22
   0   2  -5 2289.76   50.45
   0   2  -5 2275.66   56.82
   0   2  -4  242.00   12.65
   0   2  -3 5539.70  105.87
   0   2  -2  450.40   13.51
   0  -2   1  444.73   10.76
   0   2  -1  483.20   13.67
   0   2  -1  465.36   10.69
   0   2   0 3385.05   66.56
   0   2   1 1708.22   32.92
   0   2   1 1661.29   39.40
   0  -2  -1 1638.79   33.55
   0  -2  -2 1449.70   33.07
   0   2   2 1432.07   38.19
   0  -2  -2 1450.50   36.27
   0   2   2 1425.15   33.79
   0  -2  -3   21.26    3.70
   0   2   3   23.11    4.10
   0  -2  -3   22.33    3.86
   0   2   3   29.58    6.00
   0  -2  -4  506.71   20.40
   0   2   4  501.51   23.44
   0   2   4  529.79   21.54
   0   2   5   58.49    8.74
   0  -2  -5   60.98    7.62
   0   2   5   56.35    7.94
   0  -2  -5   59.73    7.43
   0   2   5   58.32    8.00
   0   2   6 1178.97   42.47
   0   2   6 1141.19   39.63
   0   2   7  127.49   13.66
   0   2   7  148.78   14.18
   0   2   8    9.74    5.95
   0   2   9    1.40    5.22
   0  -3  10  461.36   31.01
   0  -3   9  138.00   15.74
   0  -3   8    2.40    5.41
   0   3  -7  620.38   23.29
   0  -3   7  712.17   30.84
   0  -3   6  597.45   25.87
   0   3  -6  586.07   25.40
   0   3  -5 1123.21   34.46
   0  -3   4  723.91   24.35
   0   3  -4  751.61   24.05
   0   3  -3  962.20   25.77
   0  -3   3  982.20   26.14
   0  -3   2    4.07    1.53
   0   3  -2    1.76    1.71
   0   3  -2    5.66    1.64
   0   3  -1 5387.47  102.66
   0   3  -1 5313.46   94.15
   0  -3   1 5371.20   93.91
   0   3   0   45.93    5.38
   0  -3  -1  924.38   20.63
   0   3   1  931.48   28.95
   0   3   1  913.14   19.70
   0   3   2  313.70   11.33
   0   3   2  298.80   16.60
   0  -3  -2  289.82   11.28
   0   3   3 1028.19   28.04
   0  -3  -3 1019.06   32.60
   0  -3  -3  993.35   28.21
   0   3   3  983.34   35.39
   0  -3  -4  703.96   27.29
   0   3   4  737.50   24.99
   0   3   4  713.71   31.32
   0  -3  -4  675.80   24.54
   0   3   5  666.79   26.10
   0  -3  -5  619.45   25.60
   0   3   5  623.47   30.86
   0   3   6    4.77    3.61
   0   3   6   17.61    7.16
   0   3   7   24.76    6.41
   0   3   7   26.49    7.97
   0   3   8  362.52   24.00
   0  -4  11    7.19    8.08
   0  -4  10    8.31    6.76
   0  -4   9    1.40    5.71
   0  -4   8  512.69   27.98
   0  -4   7  277.70   18.63
   0   4  -6  758.20   29.16
   0  -4   6  792.37   30.20
   0   4  -5   19.57    4.39
   0   4  -4  463.19   17.73
   0  -4   4  444.32   17.75
   0  -4   3 1478.85   35.13
   0   4  -3 1522.61   35.05
   0   4  -3 1482.14   37.15
   0  -4   2 1001.85   23.15
   0   4  -2 1037.67   23.35
   0   4  -2  993.10   28.85
   0   4  -1   57.68    6.25
   0  -4   1   60.79    3.11
   0   4   0  177.01   11.91
   0  -4  -1 1922.77   38.15
   0   4   1 1999.02   52.41
   0   4   2   57.77    8.33
   0   4   2   59.33    4.40
   0  -4  -2   52.53    6.90
   0  -4  -2   52.58    4.61
   0   4   3  601.15   19.53
   0   4   3  561.14   28.09
   0  -4  -3  577.92   19.93
   0  -4  -4   85.29    8.03
   0   4   4   86.20    7.94
   0   4   4   87.68   12.03
   0   4   5  194.48   18.62
   0  -4  -5  169.46   12.50
   0   4   5  213.54   13.84
   0   4   6  179.87   18.56
   0   4   6  191.17   14.57
   0   4   7   96.04   14.19
   0   4   8   39.75   10.05
   0  -5  11   32.60   10.19
   0  -5  11   47.39   11.88
   0  -5  10  484.73   31.33
   0  -5   9  130.26   14.82
   0  -5   8  243.50   18.97
   0  -5   7    8.70    5.69
   0   5  -6  711.79   27.62
   0  -5   6  691.84   27.79
   0   5  -5  180.33   11.58
   0   5  -4 2719.25   59.73
   0  -5   4 2761.72   60.52
   0   5  -4 2705.79   61.84
   0  -5   3  431.90   14.91
   0   5  -3  456.87   19.09
   0   5  -3  472.73   15.25
   0   5  -2    6.77    1.36
   0  -5   2    6.81    1.51
   0   5  -2    5.57    3.87
   0  -5   1 1024.18   32.41
   0   5  -1  983.42   33.01
   0   5   0  653.55   26.91
   0  -5  -1  663.83   15.07
   0   5   1  619.16   28.16
   0   5   2  103.69    4.98
   0  -5  -2  102.68    6.14
   0   5   2  108.56   12.73
   0   5   3  108.99   13.43
   0   5   3  112.84    7.17
   0  -5  -3  101.75    7.34
   0  -5  -4   -0.92    2.49
   0   5   4   -1.07    2.53
   0   5   5  471.82   20.70
   0   5   5  475.28   31.08
   0   5   6   28.33    9.97
   0   5   7   -5.82    7.33
   0  -6  11  372.62   28.83
   0  -6  10  104.94   14.74
   0  -6   9   21.52    7.65
   0  -6   8   96.32   12.09
   0  -6   7  399.62   22.25
   0   6  -6 1101.19   35.53
   0   6  -6 1077.55   33.69
   0  -6   6 1096.27   36.33
   0   6  -5  133.90   10.41
   0   6  -5  134.41    9.93
   0   6  -4  111.76    9.96
   0   6  -4  125.37    8.30
   0  -6   4  128.58    8.68
   0   6  -3   14.77    2.67
   0   6  -3   15.34    5.01
   0  -6   3   14.65    2.63
   0   6  -2 3004.49   71.98
   0  -6   2 2887.52   56.02
   0  -6   2 2891.84   55.79
   0   6  -1    8.57    5.12
   0   6   0  152.93   13.73
   0   6   1  105.01   12.49
   0  -6  -2  662.27   17.33
   0   6   2  626.41   33.21
   0   6   3  221.66    7.65
   0   6   3  215.46   20.67
   0   6   4  226.64   22.34
   0   6   5   -2.43    8.22
   0   6   6    9.87   10.19
   0  -7  11   19.56    8.18
   0  -7  10   30.83    8.17
   0  -7   9  664.22   33.58
   0   7  -9  589.21   25.02
   0   7  -8  317.43   17.67
   0  -7   8  320.17   21.42
   0  -7   7  242.87   17.09
   0   7  -7  239.32   15.33
   0   7  -6   12.60    3.65
   0  -7   6   10.42    4.19
   0   7  -6   11.04    3.59
   0   7  -5  147.17   12.43
   0   7  -5  161.51   10.86
   0   7  -4 1000.57   27.78
   0  -7   4  989.11   27.88
   0   7  -4 1023.28   35.94
   0  -7   3   31.96    3.94
   0   7  -3   41.81    7.22
   0   7  -2  343.97   20.91
   0   7  -1   54.89    9.10
   0   7   0  498.52   28.21
   0   7   1   37.36    9.65
   0   7   2  468.57   30.59
   0   7   3   29.81   10.27
   0   7   4   76.80   14.39
   0   7   5   52.43   14.74
   0  -8  10    9.23    7.18
   0  -8  10    7.43    6.77
   0   8  -9  266.44   17.30
   0  -8   9  307.40   22.20
   0   8  -8   29.10    6.77
   0  -8   8   31.39    7.04
   0   8  -7  319.44   19.56
   0  -8   7  378.89   20.95
   0   8  -6  103.61    9.74
   0   8  -6  102.23   11.17
   0  -8   6  108.93   10.00
   0   8  -5 1038.87   30.98
   0   8  -5 1028.72   38.36
   0  -8   4   57.10    6.00
   0   8  -4   42.77    8.37
   0   8  -3   27.69    7.34
   0  -8   3   20.84    2.70
   0  -8   3   11.78    2.11
   0   8  -2  174.49   16.72
   0   8  -1  385.49   25.60
   0   8   0  506.03   31.00
   0   8   1   31.46   10.30
   0   8   2   47.79   13.05
   0   8   3   -6.84    9.03
   0  -9  10    8.62    6.45
   0   9  -9   98.49   11.79
   0  -9   9   97.19   13.53
   0   9  -8   44.29    8.63
   0  -9   8   34.64    7.99
   0   9  -7  564.66   28.53
   0  -9   7  619.68   28.86
   0   9  -6   42.06    8.29
   0  -9   6   40.16    7.32
   0   9  -5   18.11    6.57
   0  -9   4   71.62    5.97
   0   9  -4   60.94   10.55
   0   9  -3  760.00   36.81
   0   9  -2   74.30   12.24
   0   9  -1   53.69   11.04
   0   9   0   24.33    9.96
   0   9   1  194.86   22.18
   0 -10  10  127.38   16.09
   0 -10   9  179.73   17.46
   0  10  -9  187.96   16.83
   0 -10   8  212.40   17.60
   0  10  -8  179.57   16.94
   0 -10   7   -0.65    3.98
   0  10  -7    5.23    5.03
   0  10  -6   15.27    7.22
   0  10  -5  564.29   32.21
   0  10  -4   79.32   13.18
   0  10  -3  132.50   16.89
   0  10  -2    0.79    7.16
   0  10  -1  160.27   19.99
   0  11  -8   77.88   12.65
   0  11  -7   96.81   14.33
   0  11  -6  162.54   17.97
   0  11  -5   47.08   11.29
   0  11  -4   20.09   10.00
  -1  12  -7   26.71    9.85
  -1  11  -3  218.96   23.07
  -1  11  -4    1.08    6.45
  -1  11  -5   45.76   11.63
  -1  11  -6  138.51   17.10
  -1  11  -7   94.72   13.68
  -1  10  -1  311.23   27.54
  -1  10  -2    2.30    5.70
  -1  10  -3   26.69    9.33
  -1  10  -4   53.06   10.77
  -1  10  -5  527.04   30.69
  -1  10  -6    5.60    6.25
  -1  10  -7    9.66    5.74
  -1  10  -8   98.10   12.00
   1 -10   9  227.98   19.17
   1 -10  10  112.27   14.85
  -1   9   1  182.72   21.98
  -1   9   0   71.90   14.07
  -1   9  -1   69.01   12.49
  -1   9  -2   61.26   11.82
  -1   9  -3  714.84   35.49
  -1   9  -4  127.43   14.43
  -1   9  -5   24.20    7.56
   1  -9   6   56.47    7.64
  -1   9  -6   41.38    8.58
   1  -9   7  448.21   23.45
  -1   9  -7  439.97   24.55
   1  -9   8    0.77    4.64
  -1   9  -8    4.46    3.98
   1  -9   9  162.47   16.76
   1  -9  10   -1.02    5.79
  -1   8   3   64.87   14.47
  -1   8   2  122.43   17.14
  -1   8   1   -1.03    6.37
  -1   8   0  294.57   23.76
  -1   8  -1   54.97   10.41
  -1   8  -2  523.15   28.40
   1  -8   2  438.04   10.84
  -1   8  -3   71.67   10.31
   1  -8   3   61.21    4.62
   1  -8   3   59.65    5.78
  -1   8  -4   11.56    5.62
   1  -8   4   19.36    3.62
  -1   8  -5  570.23   23.11
  -1   8  -5  568.27   26.83
  -1   8  -6  368.57   19.64
   1  -8   6  415.86   20.70
  -1   8  -6  379.24   20.81
   1  -8   7  567.58   27.23
  -1   8  -7  540.49   24.83
   1  -8   8   17.74    5.46
  -1   8  -8   18.78    4.62
   1  -8   9  144.00   15.56
   1  -8  10    1.23    6.91
  -1   7   5   73.55   15.83
  -1   7   4  164.60   20.50
  -1   7   3    0.79    7.31
  -1   7   2  201.65   20.64
  -1   7   1  134.79   15.99
  -1   7   0 1022.53   42.39
  -1   7  -1   54.05    9.66
   1  -7   2   89.06    4.78
  -1   7  -2   87.34   10.75
   1  -7   2   95.82    6.19
  -1   7  -3   12.95    5.22
   1  -7   3   14.32    2.89
   1  -7   4  764.23   24.74
  -1   7  -4  766.98   29.91
  -1   7  -4  753.55   25.21
  -1   7  -5   61.22    8.00
  -1   7  -5   66.82    7.63
  -1   7  -6   27.24    5.84
   1  -7   6   26.66    6.07
   1  -7   7  130.06   12.72
  -1   7  -7  160.49   11.56
   1  -7   8  179.41   16.48
  -1   7  -8  174.61   11.97
   1  -7   9  417.19   26.91
   1  -7  10   71.80   12.20
  -1   6   6    7.83    7.08
  -1   6   5   18.72    9.09
  -1   6   4    3.15    5.89
  -1   6   3  584.01   34.25
   1  -6  -3  591.73   20.13
  -1   6   3  612.40   17.96
   1  -6  -2  520.58   16.23
  -1   6   2  498.80   29.91
   1  -6  -1  302.70    9.74
  -1   6   1  287.93   21.24
  -1   6   0   11.48    6.02
   1  -6   0   14.46    1.61
   1  -6   0   16.53    1.71
   1  -6   1  364.06   11.35
   1  -6   1  355.67   10.02
   1  -6   1  389.49   19.71
  -1   6  -1  394.50   21.10
  -1   6  -2 3045.25   74.03
   1  -6   2 3184.87   73.10
   1  -6   2 3086.50   60.30
   1  -6   2 3030.82   63.27
   1  -6   3  327.91   13.38
  -1   6  -3  310.79   13.53
  -1   6  -4  287.25   15.52
  -1   6  -4  287.23   14.31
   1  -6   5   18.33    4.72
  -1   6  -5   14.67    3.99
  -1   6  -5   13.23    4.31
   1  -6   6 1237.82   40.32
  -1   6  -6 1180.15   34.01
  -1   6  -7   49.67    5.90
   1  -6   7   36.99    7.86
  -1   6  -8  408.56   17.10
   1  -6   8  425.67   25.47
   1  -6   9   -0.33    5.12
   1  -6  10   88.51   13.57
  -1   5   7   41.31   11.75
  -1   5   6   67.66   13.32
  -1   5   5  564.28   23.51
  -1   5   5  542.73   33.56
   1  -5  -4   12.09    3.19
  -1   5   4    6.80    6.09
  -1   5   4   13.20    3.72
  -1   5   3  562.99   31.24
  -1   5   3  650.62   20.45
   1  -5  -3  587.56   20.78
   1  -5  -2   40.13    4.41
  -1   5   2   38.23    3.79
  -1   5   2   31.76    8.01
   1  -5  -1  819.79   29.92
   1  -5  -1  773.55   20.04
  -1   5   1  780.95   32.72
   1  -5   0  552.79   14.02
   1  -5   0  613.47   24.00
   1  -5   0  557.73   14.64
  -1   5   0  558.61   25.17
   1  -5   1  779.36   18.74
   1  -5   1  785.46   27.35
  -1   5  -1  810.51   28.70
   1  -5   1  785.96   20.46
   1  -5   2   21.71    4.38
   1  -5   2   12.62    2.58
  -1   5  -2   13.73    4.40
  -1   5  -3   57.66    5.59
  -1   5  -3   55.33    6.34
   1  -5   3   50.90    5.26
  -1   5  -4  955.29   28.99
  -1   5  -4  897.94   27.05
  -1   5  -5  428.83   19.78
   1  -5   5  470.91   20.85
  -1   5  -5  421.71   16.47
  -1   5  -6  915.85   26.18
   1  -5   6  936.07   34.29
  -1   5  -7    7.26    2.89
   1  -5   7    1.36    4.17
   1  -5   8   64.99   10.45
   1  -5   9   11.45    5.99
   1  -5  10  434.03   29.71
  -1   4   7  120.83   16.59
  -1   4   7  188.99   15.77
  -1   4   6  238.43   16.39
  -1   4   6  188.65   19.17
   1  -4  -5  324.01   17.97
  -1   4   5  350.95   24.61
  -1   4   5  340.40   18.07
   1  -4  -4   52.67    6.63
  -1   4   4   59.19    6.82
  -1   4   4   49.27    9.68
  -1   4   3  403.23   23.87
   1  -4  -3  372.62   16.27
  -1   4   3  433.61   16.54
  -1   4   2   59.24    5.01
  -1   4   2   47.13    8.48
   1  -4  -2   54.68    7.35
   1  -4  -2   53.74    5.12
   1  -4  -1 2290.14   47.01
  -1   4   1 2267.41   59.00
  -1   4   1 2229.67   45.37
   1  -4   0  134.56    6.21
  -1   4   0  142.04   10.71
  -1   4  -1   11.93    3.58
   1  -4   1   15.28    2.29
   1  -4   1   15.15    2.53
   1  -4   1   17.06    3.63
  -1   4  -2   99.49    6.41
   1  -4   2   86.10    5.74
  -1   4  -2   86.19    7.25
   1  -4   2   94.42    7.07
  -1   4  -3 2727.58   59.06
   1  -4   3 2795.13   59.19
  -1   4  -3 2679.68   57.49
  -1   4  -4  223.54   12.57
  -1   4  -4  226.04   10.15
   1  -4   5   55.40    7.24
  -1   4  -5   67.16    7.64
  -1   4  -5   63.15    5.13
   1  -4   6  144.90   12.69
  -1   4  -7  932.56   26.26
   1  -4   7  924.90   37.02
   1  -4   8  793.69   36.04
  -1   4  -8  738.29   23.77
   1  -4   9    7.67    6.77
   1  -4  10   -5.97    6.39
  -1   3   8  657.91   33.37
  -1   3   7   16.91    5.83
  -1   3   7   30.33    8.41
  -1   3   6   41.26    8.98
  -1   3   6   54.17    8.28
  -1   3   5  295.71   16.83
   1  -3  -5  294.32   16.95
  -1   3   5  282.13   20.63
  -1   3   4 1720.08   45.09
   1  -3  -4 1782.75   49.49
   1  -3  -4 1688.19   45.38
  -1   3   4 1638.60   52.71
  -1   3   3 1226.68   40.94
   1  -3  -3 1204.42   33.17
  -1   3   3 1197.96   32.29
   1  -3  -3 1192.48   37.01
  -1   3   2  434.16   14.81
   1  -3  -2  445.92   15.58
  -1   3   1  700.91   18.08
   1  -3  -1  698.13   18.06
  -1   3   1  680.22   24.82
   1  -3   0  645.09   16.64
  -1   3   0  664.59   22.13
   1  -3   1 5377.14   99.65
   1  -3   1 5443.54  102.86
  -1   3  -1 5478.62  103.67
  -1   3  -2  222.28    9.82
  -1   3  -2  219.97    9.39
   1  -3   2  204.19    8.89
   1  -3   2  209.04    9.27
  -1   3  -3 1736.04   41.62
  -1   3  -3 1764.24   37.28
   1  -3   3 1811.07   42.29
  -1   3  -4    5.82    2.49
  -1   3  -5 2171.74   55.12
  -1   3  -6  386.15   14.08
   1  -3   6  431.46   22.07
  -1   3  -7  773.69   23.34
   1  -3   7  766.59   33.32
   1  -3   8    7.43    5.66
  -1   3  -8    6.57    2.84
   1  -3   9   64.93   11.40
   1  -3  10  228.71   21.96
  -1   2  10  112.99   15.78
  -1   2   9    4.76    5.51
  -1   2   8   53.64    9.44
  -1   2   7   18.10    5.82
  -1   2   6  351.28   21.54
  -1   2   6  341.35   19.86
  -1   2   5   25.62    6.79
   1  -2  -5   39.48    6.53
  -1   2   5   39.03    6.72
   1  -2  -5   37.44    6.15
   1  -2  -4 1103.44   33.98
  -1   2   4 1093.06   37.64
   1  -2  -4 1159.59   36.15
  -1   2   4 1137.28   33.75
  -1   2   3  232.16   14.51
   1  -2  -3  244.92   12.33
  -1   2   3  243.19   12.12
  -1   2   2  318.26   15.58
  -1   2   2  320.60   12.31
   1  -2  -2  318.49   12.65
  -1   2   1  305.49   13.78
   1  -2  -1  283.82   10.00
  -1   2   1  292.82   10.07
  -1   2   0  757.48   20.47
  -1   2   0  709.33   17.20
   1  -2   1  372.35   11.81
  -1   2  -1  395.40   11.69
  -1   2  -1  370.98   11.83
   1  -2   1  360.98   11.16
  -1   2  -2  896.61   23.92
  -1   2  -2  947.14   19.95
  -1   2  -3 1363.46   34.33
  -1   2  -4  366.96   10.80
  -1   2  -4  366.15   16.36
  -1   2  -5 1362.02   31.22
  -1   2  -5 1398.14   40.65
   1  -2   6   63.91    8.69
  -1   2  -6   62.87    5.53
  -1   2  -7  295.00   13.12
   1  -2   7  280.01   19.80
  -1   2  -8    6.82    2.72
   1  -2   8   17.34    7.26
   1  -2   9  398.64   27.49
   1  -2  10   19.19    7.83
  -1   1  10    9.67    7.44
  -1   1   9   18.32    6.42
  -1   1   8  286.35   21.09
  -1   1   7  429.57   24.02
   1  -1  -6  972.91   34.70
  -1   1   6  938.38   34.70
   1  -1  -5    5.97    3.52
  -1   1   5   -3.39    4.91
  -1   1   5   10.32    4.48
   1  -1  -5    5.66    3.37
  -1   1   4 1652.88   44.62
   1  -1  -4 1641.26   43.95
  -1   1   4 1638.30   43.03
   1  -1  -3    1.79    1.99
  -1   1   3    4.88    2.93
   1  -1  -3    0.51    1.76
  -1   1   3    2.84    2.64
   1  -1  -2 6265.43  117.39
   1  -1  -2 6274.26  116.64
  -1   1   2 6271.07  119.86
  -1   1   2 6242.19  116.66
   1  -1  -1  462.38   13.28
  -1   1   1  466.55   15.01
  -1   1   1  466.83   13.42
  -1   1   0  431.47   11.93
  -1   1   0  438.33   12.27
   1  -1   0  439.98   12.17
  -1   1  -1  542.69   14.83
  -1   1  -2 2130.87   45.35
  -1   1  -3 1294.02   26.25
  -1   1  -3 1293.39   33.35
  -1   1  -4    9.74    2.98
  -1   1  -4   12.63    2.18
   1  -1   5  242.00   15.32
  -1   1  -5  266.78   10.83
  -1   1  -5  251.07   15.02
  -1   1  -6   71.19    6.15
   1  -1   6   88.81   10.40
  -1   1  -7 1052.24   30.04
   1  -1   7 1018.75   40.22
   1  -1   8    6.36    4.84
   1  -1   9   13.33    7.40
   1  -1  10   10.89    7.49
  -1   0  10    2.09    6.78
  -1   0   9  660.20   35.24
  -1   0   8   18.18    6.13
   1   0  -7  113.37   11.31
  -1   0   7  110.83   12.26
  -1   0   6    3.27    4.73
   1   0  -6    7.20    3.63
   1   0  -5 1003.73   33.29
  -1   0   5  922.94   32.02
  -1   0   4 1597.87   42.14
   1   0  -4 1637.97   42.52
   1   0  -4 1568.86   41.26
   1   0  -3  491.51   17.21
  -1   0   3  469.58   17.45
   1   0  -3  491.46   17.52
   1   0  -2  226.78    9.77
   1   0  -1  112.66    5.44
   1   0   0 3777.67   69.56
  -1   0  -1 1545.26   32.66
   1   0   1 1546.34   28.92
  -1   0  -2  956.35   20.40
  -1   0  -2  949.37   24.28
   1   0   2  962.38   24.87
   1   0   2  931.87   21.05
  -1   0  -3    2.14    1.18
   1   0   3    1.25    2.08
  -1   0  -3    5.13    2.39
   1   0   3    3.24    1.98
   1   0   4 1556.96   42.97
  -1   0  -4 1608.95   36.37
  -1   0  -4 1622.95   42.56
   1   0   4 1612.94   38.01
   1   0   5   22.17    4.13
  -1   0  -5   30.69    5.85
   1   0   5   24.61    5.64
  -1   0  -5   31.90    4.12
  -1   0  -6  522.76   19.58
   1   0   6  514.77   25.58
   1   0   7    9.34    4.39
   1   0   8   14.89    6.45
   1   0   9  255.64   22.48
   1   0  10   37.86   10.62
  -1  -1  10    9.19    6.72
  -1  -1   9  184.82   18.18
  -1  -1   8   25.14    7.24
   1   1  -7 1341.06   42.57
  -1  -1   7 1360.64   46.38
  -1  -1   6  214.46   15.53
   1   1  -6  237.68   15.87
  -1  -1   6  200.41   15.04
   1   1  -5  811.92   26.80
  -1  -1   5  831.98   29.43
   1   1  -5  812.83   29.08
   1   1  -4  361.66   16.27
   1   1  -3  412.54   15.53
   1   1  -2  892.43   22.98
   1   1  -2  915.84   23.16
   1   1  -1  160.24    6.48
   1   1   0  880.81   18.98
   1   1   0  864.66   19.13
  -1  -1  -1    1.80    1.42
  -1  -1  -1    1.25    1.15
   1   1   1    3.60    1.60
   1   1   1    1.63    1.43
   1   1   2 1432.98   34.10
  -1  -1  -2 1509.18   33.17
   1   1   2 1453.09   34.54
  -1  -1  -2 1502.70   34.16
   1   1   3   58.13    6.01
   1   1   3   65.79    6.52
  -1  -1  -3   62.18    6.01
  -1  -1  -3   62.92    5.38
  -1  -1  -4 1558.14   42.03
   1   1   4 1558.09   43.28
   1   1   4 1582.62   42.12
  -1  -1  -4 1634.68   39.28
  -1  -1  -5   65.79    7.94
   1   1   5   55.74    7.38
   1   1   5   75.85    8.97
   1   1   6  233.74   15.27
  -1  -1  -6  225.35   13.24
   1   1   6  212.36   16.09
  -1  -1  -7   23.72    4.94
   1   1   7   17.70    5.90
   1   1   8  275.38   21.44
   1   1   9   48.11   10.75
   1   1  10   -1.35    6.91
  -1  -2  11   26.31    8.41
  -1  -2  10   19.12    7.67
  -1  -2   9  300.07   22.87
  -1  -2   8  391.57   24.39
   1   2  -8  377.85   20.81
  -1  -2   7 1051.64   39.61
  -1  -2   7 1065.59   40.05
  -1  -2   6  115.98   11.27
   1   2  -6  130.22   11.44
   1   2  -5  478.46   20.79
   1   2  -4    5.91    2.33
   1   2  -3 5612.91  107.45
   1   2  -2   73.90    5.00
  -1  -2   2   69.46    5.14
   1   2  -1 1916.80   37.00
  -1  -2   1 1839.17   37.34
   1   2   0  189.03    9.02
   1   2   0  196.48    6.03
   1   2   0  190.91    6.20
  -1  -2  -1 3528.40   68.06
  -1  -2  -1 3275.06   63.78
   1   2   1 3304.09   68.62
   1   2   1 3372.90   63.83
   1   2   2 1239.76   33.63
  -1  -2  -2 1249.14   30.26
   1   2   2 1242.49   30.95
  -1  -2  -2 1288.70   32.47
  -1  -2  -3  329.91   14.52
   1   2   3  330.10   14.93
  -1  -2  -3  323.37   14.16
   1   2   3  302.16   15.95
   1   2   4   11.57    4.78
  -1  -2  -4   11.71    3.26
   1   2   4   10.21    4.33
   1   2   5  126.92   11.66
  -1  -2  -5  151.70   11.16
  -1  -2  -5  125.56   10.91
   1   2   5  113.08   11.75
   1   2   6  545.95   26.98
   1   2   6  575.83   27.77
   1   2   7    5.98    6.01
   1   2   7    3.05    4.39
   1   2   8   30.96    8.28
   1   2   9   15.15    7.23
  -1  -3  11    6.19    5.95
  -1  -3  10  565.28   34.17
  -1  -3   9  124.23   15.14
  -1  -3   8  123.99   14.06
  -1  -3   8  114.33   13.31
   1   3  -8  100.84   10.47
  -1  -3   7   61.54    9.42
   1   3  -6 1491.48   44.56
  -1  -3   6 1466.20   45.17
   1   3  -5 1368.20   39.48
  -1  -3   4  354.64   15.75
   1   3  -4  350.92   15.39
   1   3  -3  277.40   11.56
  -1  -3   3  259.89   11.88
  -1  -3   2  605.71   17.05
   1   3  -2  577.01   15.71
   1   3  -1 4843.72   93.21
   1   3  -1 4674.95   83.40
  -1  -3   1 4728.22   85.11
   1   3   0   73.58    6.57
   1   3   0   56.16    2.65
  -1  -3  -1  556.60   19.79
  -1  -3  -1  545.00   14.68
   1   3   1  559.04   14.98
   1   3   2    2.02    3.32
   1   3   2    0.79    1.75
  -1  -3  -2    3.09    1.91
  -1  -3  -3 1586.63   41.95
  -1  -3  -3 1443.16   37.37
   1   3   3 1511.87   39.00
   1   3   3 1353.02   43.64
   1   3   4  424.84   19.90
  -1  -3  -4  433.96   20.18
  -1  -3  -4  415.28   18.41
   1   3   4  461.44   24.17
   1   3   5  462.32   25.91
  -1  -3  -5  490.23   22.20
   1   3   5  509.42   23.98
   1   3   6   22.85    6.40
   1   3   6   34.21    7.30
   1   3   6   33.59    8.30
   1   3   7   25.66    8.31
   1   3   7   18.44    6.09
   1   3   8  140.95   15.50
  -1  -4  11   11.16    6.81
  -1  -4  10  194.60   19.62
  -1  -4   9   10.68    7.43
  -1  -4   8  721.32   33.74
  -1  -4   8  733.52   33.92
  -1  -4   7  656.82   29.51
  -1  -4   6 1987.03   54.80
   1   4  -6 2027.51   54.19
   1   4  -5  351.09   16.75
  -1  -4   4   77.68    6.93
   1   4  -4   74.69    6.78
  -1  -4   4   94.36    8.16
   1   4  -3 1637.17   37.07
  -1  -4   3 1628.34   38.78
   1   4  -2 1136.82   32.91
   1   4  -2 1191.94   25.13
  -1  -4   2 1167.19   27.53
   1   4  -1 1252.97   35.37
   1   4   0   28.03    5.25
  -1  -4  -1  352.27   16.99
  -1  -4  -1  324.81   10.29
   1   4   1  322.16    8.93
   1   4   1  339.11   18.02
   1   4   1  325.54    8.77
  -1  -4  -2    1.99    1.71
   1   4   2    5.62    1.99
   1   4   2    4.76    2.43
   1   4   2   11.98    5.67
  -1  -4  -2    4.34    3.24
   1   4   3  826.32   34.62
   1   4   3  862.49   25.20
  -1  -4  -3  847.75   25.74
   1   4   3  889.16   27.52
  -1  -4  -4  145.04   10.52
   1   4   4  150.59   15.19
   1   4   4  168.67   11.16
   1   4   5    3.77    3.32
   1   4   5   -7.34    5.59
   1   4   6   -7.00    6.67
   1   4   6    0.80    3.27
   1   4   7  253.24   22.40
  -1  -5  11   38.86   11.50
  -1  -5  10  294.94   24.10
  -1  -5   9  404.26   26.58
  -1  -5   8  623.43   30.66
  -1  -5   8  619.75   31.18
  -1  -5   7   -5.07    4.92
  -1  -5   6  668.17   27.22
   1   5  -6  674.20   26.56
   1   5  -5  102.72    8.55
  -1  -5   4 2625.47   59.33
   1   5  -4 2562.26   56.64
  -1  -5   3  169.64    9.17
   1   5  -3  174.79    8.00
   1   5  -3  154.95   11.33
  -1  -5   2   12.98    2.18
   1   5  -2    9.55    1.17
   1   5  -1  411.18   19.87
   1   5   0 1514.80   45.50
   1   5   1  640.98   28.28
   1   5   2  133.61   13.52
   1   5   2  140.47    6.10
  -1  -5  -2  150.72    7.76
   1   5   2  157.58    6.40
  -1  -5  -3   83.80    6.98
   1   5   3   71.26   11.52
   1   5   3   75.65    5.94
   1   5   4   14.65    6.83
   1   5   4   15.88    3.82
   1   5   5  423.09   29.63
   1   5   6   -5.34    6.89
   1   5   7    3.12    6.80
  -1  -6  11  432.35   31.06
  -1  -6  10  169.98   18.61
  -1  -6   9   78.77   12.14
  -1  -6   8  119.72   13.71
  -1  -6   7  302.52   19.49
   1   6  -6 1082.94   34.77
  -1  -6   6 1009.76   35.85
   1   6  -5  204.06   11.98
   1   6  -5  196.47   13.67
   1   6  -4   -0.77    1.70
  -1  -6   4    2.29    2.24
   1   6  -4    0.88    2.90
   1   6  -3   13.31    4.29
  -1  -6   3   17.65    3.15
   1   6  -3   16.00    2.31
   1   6  -2 1594.56   46.60
  -1  -6   2 1519.21   30.36
   1   6  -1    8.79    4.60
   1   6   0  314.30   20.23
   1   6   1    8.25    5.69
   1   6   2  591.53   31.23
  -1  -6  -2  532.97   14.95
   1   6   3  146.57   17.14
   1   6   4  160.24   18.30
   1   6   5   20.32    9.38
   1   6   6    7.50    6.97
  -1  -7  11  137.50   17.41
  -1  -7  10   29.76   10.44
  -1  -7   9  502.04   29.46
  -1  -7   8  228.55   18.40
  -1  -7   7  649.74   29.34
   1   7  -7  629.90   27.41
  -1  -7   6   66.20    8.45
   1   7  -6   72.73    8.08
   1   7  -6   58.72    8.18
   1   7  -5   29.33    4.65
   1   7  -5   24.02    6.04
   1   7  -4  562.09   17.70
   1   7  -4  572.94   26.49
  -1  -7   4  588.70   20.81
  -1  -7   3  317.38   11.84
   1   7  -3  315.97   19.79
   1   7  -2  947.36   36.99
   1   7  -1   29.63    7.61
   1   7   0  332.64   22.61
   1   7   1   63.59   11.33
   1   7   2  394.17   28.25
   1   7   3    8.69    6.85
   1   7   4   34.03   10.34
  -1  -8  10   55.68   10.57
   1   8 -10   42.79    8.12
   1   8  -9  336.02   20.86
  -1  -8   9  404.20   26.13
   1   8  -8   59.55    8.61
  -1  -8   8   78.58   10.96
   1   8  -7  181.41   15.18
  -1  -8   7  180.10   14.71
  -1  -8   6   47.95    7.31
   1   8  -6   42.89    6.10
   1   8  -6   48.37    8.34
   1   8  -5 1016.67   39.13
   1   8  -5 1080.60   29.87
   1   8  -4    5.88    4.65
   1   8  -4   10.13    1.78
  -1  -8   4    8.47    2.50
   1   8  -3    4.70    5.24
   1   8  -2  100.24   12.85
   1   8  -1  332.05   23.68
   1   8   0  328.79   24.65
   1   8   1   50.87   12.13
   1   8   2   16.72    8.80
   1   8   3    4.58    9.01
  -1  -9  10   70.88   12.08
   1   9 -10   56.13    9.61
  -1  -9   9   15.33    6.55
   1   9  -9    2.69    4.40
  -1  -9   8   84.77   11.52
   1   9  -8   81.66   11.18
  -1  -9   7  633.95   28.56
   1   9  -7  603.83   30.69
   1   9  -6   68.64   10.80
  -1  -9   6   83.35    9.21
   1   9  -5   36.73    8.53
   1   9  -4    9.63    5.86
   1   9  -3  524.32   30.62
   1   9  -2   30.82    9.70
   1   9  -1   75.90   13.12
   1   9   0    0.90    7.74
   1   9   1  115.41   17.64
  -1 -10  10  124.76   15.39
  -1 -10   9  156.29   16.10
   1  10  -9  142.82   15.51
   1  10  -8  291.69   21.82
  -1 -10   8  280.39   19.84
   1  10  -7    4.08    5.80
   1  10  -6  -13.50    6.83
   1  10  -5  368.39   25.93
   1  10  -4  186.68   19.15
   1  10  -3  147.16   17.88
   1  10  -2   25.33    8.97
   1  10  -1   46.66   12.07
   1  11  -9  -12.44    7.57
   1  11  -8   21.01    8.15
   1  11  -7   21.52    7.60
   1  11  -6  254.41   22.93
   1  11  -5   46.66   11.06
   1  11  -4   33.20   10.17
  -2  12  -6   21.01    9.48
  -2  11  -3  266.31   25.59
  -2  11  -4    8.28    8.03
  -2  11  -5   -8.60    7.10
  -2  11  -6   59.09   11.18
  -2  10  -1  227.74   24.50
  -2  10  -2   95.51   15.67
  -2  10  -3   12.40    7.44
  -2  10  -4   10.51    7.29
  -2  10  -5  488.22   29.75
  -2  10  -6    4.63    5.00
  -2  10  -7   65.17   10.42
   2 -10   8   40.27    7.73
   2 -10   9  177.84   17.47
  -2   9   1   49.05   13.28
  -2   9   0  268.85   25.35
  -2   9  -1    8.07    6.72
  -2   9  -2  168.98   17.92
  -2   9  -3  539.10   31.00
  -2   9  -4  266.08   20.52
   2  -9   5  211.99   13.66
  -2   9  -5  196.01   16.98
   2  -9   6    2.60    3.62
  -2   9  -6   -2.98    4.71
  -2   9  -7  333.03   20.27
   2  -9   7  334.98   21.01
   2  -9   8   -4.60    4.09
   2  -9   9  169.18   17.53
   2  -9  10   -6.21    7.47
  -2   8   3   84.27   16.76
  -2   8   2  334.75   29.14
  -2   8   1   15.70    9.97
  -2   8   0   57.99   11.04
   2  -8   1   39.06    3.16
  -2   8  -1   58.20   10.99
   2  -8   2  665.80   19.41
   2  -8   2  712.52   22.60
  -2   8  -2  687.93   33.80
  -2   8  -3  116.75   13.13
   2  -8   3  129.66    8.65
   2  -8   3  119.05    9.73
  -2   8  -4    8.90    5.35
   2  -8   4   13.54    4.06
  -2   8  -5  332.38   19.74
  -2   8  -5  316.69   18.08
   2  -8   5  339.12   18.18
  -2   8  -6  227.19   15.66
   2  -8   6  198.50   15.23
  -2   8  -7  447.28   21.39
   2  -8   7  448.48   25.23
   2  -8   8   58.44   10.24
   2  -8   9    0.21    5.26
   2  -8  10    6.52    6.90
  -2   7   4  268.65   26.20
  -2   7   3   10.48    7.77
  -2   7   2  205.74   21.09
   2  -7  -1  299.63   11.72
  -2   7   1  289.39   22.96
   2  -7  -1  282.58   11.45
  -2   7   0 1481.01   53.86
   2  -7   0 1458.33   32.44
   2  -7   0 1483.23   33.36
  -2   7  -1   26.81    7.59
   2  -7   1   35.57    3.91
   2  -7   1   42.10    4.63
   2  -7   2   17.49    3.40
   2  -7   2   20.71    4.08
  -2   7  -2   18.54    6.20
  -2   7  -3    4.51    4.54
   2  -7   3   16.01    3.79
   2  -7   3   11.91    3.76
  -2   7  -4 1048.01   34.01
  -2   7  -4 1103.31   36.79
  -2   7  -5   93.92    9.37
  -2   7  -5  107.87   10.41
   2  -7   5   77.75    8.84
  -2   7  -6   75.90    8.18
   2  -7   6   74.12    9.35
  -2   7  -7   31.85    5.29
   2  -7   7   37.45    7.99
   2  -7   8  235.01   19.44
   2  -7   9  321.41   24.35
   2  -7  10  129.32   16.60
  -2   6   6   10.17    8.40
  -2   6   5   27.26    9.66
  -2   6   4   16.44    3.70
  -2   6   4   24.63    8.91
  -2   6   3  470.58   30.72
   2  -6  -3  498.46   19.97
  -2   6   3  515.45   18.72
  -2   6   2  321.05   24.03
  -2   6   2  325.67   12.89
   2  -6  -2  281.58   13.54
  -2   6   1  515.62   28.98
   2  -6  -1  551.22   17.07
   2  -6   0   21.28    3.43
  -2   6   0   21.94    7.08
   2  -6   0   24.76    3.37
   2  -6   1   43.63    4.59
   2  -6   1   35.27    5.82
   2  -6   1   51.62    5.50
  -2   6  -1   36.39    7.32
   2  -6   2 1657.22   46.86
   2  -6   2 1737.81   40.57
  -2   6  -2 1668.43   48.92
   2  -6   2 1668.75   42.84
  -2   6  -3  556.60   23.22
   2  -6   3  547.39   22.21
  -2   6  -4  610.65   23.95
  -2   6  -4  558.58   22.33
  -2   6  -5   15.31    4.29
  -2   6  -5    7.82    3.49
   2  -6   5    8.16    4.33
  -2   6  -6  343.59   15.02
   2  -6   6  371.63   20.87
  -2   6  -7   -0.95    2.00
   2  -6   7   -1.66    3.94
   2  -6   8  449.32   27.29
   2  -6   9    1.69    4.81
   2  -6  10   40.39   10.86
  -2   5   7   71.32   14.38
  -2   5   6   24.72    9.15
  -2   5   5  421.33   29.86
  -2   5   5  453.09   21.47
  -2   5   4   13.48    7.20
   2  -5  -4    4.87    3.26
  -2   5   4    6.24    3.44
  -2   5   3  741.16   36.41
  -2   5   3  758.13   24.89
   2  -5  -3  718.93   25.57
  -2   5   2    0.68    2.03
   2  -5  -2    0.60    2.08
  -2   5   2    1.14    5.36
  -2   5   1  105.43   12.10
  -2   5   1  112.08    7.14
   2  -5  -1   94.82    6.84
   2  -5   0  159.15    9.02
  -2   5   0  175.27   14.06
   2  -5   0  171.28    9.34
   2  -5   0  184.91   12.90
   2  -5   1 1497.58   35.82
   2  -5   1 1411.96   36.85
   2  -5   1 1494.36   41.12
  -2   5  -1 1429.74   43.02
   2  -5   2  374.54   15.00
   2  -5   2  364.55   16.03
  -2   5  -2  362.69   17.39
   2  -5   2  353.28   16.22
  -2   5  -3   13.87    3.85
   2  -5   3   24.38    4.01
  -2   5  -3   22.16    4.36
  -2   5  -4  725.79   23.09
  -2   5  -4  789.15   27.53
  -2   5  -5  251.74   11.51
  -2   5  -5  280.64   16.67
   2  -5   5  287.36   16.69
  -2   5  -6 1177.11   28.56
   2  -5   6 1181.11   40.85
  -2   5  -7    1.49    1.52
   2  -5   7   -6.88    6.10
   2  -5   8   16.84    7.33
   2  -5   9   -3.06    5.78
   2  -5  10  337.83   27.18
  -2   4   7  104.06   12.14
  -2   4   7   80.82   13.32
  -2   4   6  541.30   32.94
  -2   4   6  576.54   27.11
  -2   4   5  173.15   17.68
  -2   4   5  165.80   12.92
  -2   4   4   59.02    7.06
  -2   4   4   63.73   10.40
   2  -4  -4   53.92    7.07
  -2   4   3  280.03   19.98
   2  -4  -3  264.83   14.38
  -2   4   3  251.56   13.32
   2  -4  -2  250.17   15.45
  -2   4   2  241.15   11.94
  -2   4   2  238.89   17.29
   2  -4  -2  245.89   11.87
  -2   4   1 2754.88   58.77
  -2   4   1 2886.30   70.63
   2  -4  -1 2842.10   66.29
   2  -4  -1 2686.30   58.75
  -2   4   0  134.31   11.08
   2  -4   0  139.52    8.45
   2  -4   0  134.16    9.86
   2  -4   1  571.75   20.20
   2  -4   1  551.31   19.08
  -2   4  -1  552.72   21.50
   2  -4   1  569.97   18.57
  -2   4  -2   61.31    6.38
   2  -4   2   66.99    6.21
  -2   4  -2   61.27    6.17
   2  -4   2   62.21    5.67
  -2   4  -3 2694.62   60.54
  -2   4  -3 2546.92   54.93
  -2   4  -4  130.84    6.98
  -2   4  -4  142.43   10.80
  -2   4  -5  444.78   21.25
   2  -4   5  421.07   20.97
  -2   4  -5  431.77   12.61
  -2   4  -6   79.00    4.00
  -2   4  -6   70.94    4.08
   2  -4   7  266.47   19.67
   2  -4   8  262.92   20.98
   2  -4   9   49.62   10.84
   2  -4  10   33.42   10.56
  -2   3   9   28.90    8.35
  -2   3   8  514.16   29.34
  -2   3   7    0.16    4.53
  -2   3   6  336.14   23.57
  -2   3   6  378.30   21.36
  -2   3   5   20.66    5.63
  -2   3   5   20.00    6.73
   2  -3  -5    6.99    3.94
  -2   3   4 1189.26   43.36
   2  -3  -4 1241.81   38.16
  -2   3   4 1234.56   37.11
  -2   3   3  177.11   14.37
  -2   3   3  182.07   11.41
   2  -3  -3  196.38   12.16
   2  -3  -3  186.44   13.56
  -2   3   2 1572.69   45.71
  -2   3   2 1534.96   38.32
   2  -3  -2 1512.48   38.02
  -2   3   1    6.94    2.45
  -2   3   1   10.33    4.55
   2  -3  -1    6.61    2.30
  -2   3   0  910.71   28.34
   2  -3   0  884.84   24.87
  -2   3   0  894.53   24.50
   2  -3   0  907.39   26.53
  -2   3  -1 3365.84   71.22
   2  -3   1 3474.41   69.88
   2  -3   1 3551.35   71.43
   2  -3   1 3421.16   70.32
   2  -3   2   29.02    3.21
  -2   3  -2   31.00    3.71
  -2   3  -2   27.28    4.12
   2  -3   2   33.59    4.61
  -2   3  -3 1207.26   33.99
  -2   3  -3 1198.58   26.38
   2  -3   3 1184.09   33.67
  -2   3  -4   18.33    1.71
  -2   3  -4   24.38    4.67
  -2   3  -5  683.02   26.85
   2  -3   5  612.18   26.20
   2  -3   6   74.74   10.10
   2  -3   7  726.31   33.36
   2  -3   8    6.56    6.41
   2  -3   9   20.18    9.27
   2  -3  10   87.92   14.46
  -2   2  10  103.84   15.05
  -2   2   9   78.80   12.77
  -2   2   8  211.73   18.70
  -2   2   7   50.61    9.03
  -2   2   6  698.28   30.08
  -2   2   5   -3.50    5.77
   2  -2  -5    2.20    4.02
  -2   2   5    7.39    4.15
  -2   2   4 2520.44   60.24
   2  -2  -4 2504.53   64.04
  -2   2   4 2366.79   63.88
   2  -2  -4 2423.25   60.43
  -2   2   3   63.10    6.54
  -2   2   3   66.20    8.32
   2  -2  -3   69.53    6.94
   2  -2  -2  229.10   11.55
  -2   2   2  226.93   13.59
  -2   2   2  243.75   11.79
  -2   2   1  792.02   25.10
   2  -2  -1  782.93   22.73
  -2   2   1  783.84   22.74
  -2   2   0 3437.87   69.58
   2  -2   0 3468.33   69.06
  -2   2   0 3310.44   68.35
   2  -2   0 3366.27   68.77
   2  -2   1  511.39   17.12
  -2   2  -1  501.70   14.91
   2  -2   2  208.65    6.50
  -2   2  -2  224.16    7.13
  -2   2  -2  211.54   11.08
  -2   2  -3 1043.66   30.76
  -2   2  -4  140.74   10.66
  -2   2  -5 1482.10   43.97
   2  -2   5 1462.16   44.63
   2  -2   6   53.96    8.79
  -2   2  -6   43.65    2.51
   2  -2   7    8.01    5.34
  -2   2  -7   17.92    2.07
   2  -2   8   10.72    5.87
   2  -2   9  398.07   28.14
   2  -2  10   16.16    9.01
  -2   1  10   10.57    7.86
  -2   1   9    3.84    4.75
  -2   1   8   71.82   10.90
  -2   1   7  934.36   37.88
  -2   1   6  815.82   32.64
   2  -1  -5  195.57   13.86
  -2   1   5  190.18   13.71
   2  -1  -5  185.45   14.07
  -2   1   4  362.10   17.51
   2  -1  -4  341.05   17.25
  -2   1   3  512.93   20.59
  -2   1   3  556.31   20.32
   2  -1  -3  542.84   19.97
  -2   1   2 6223.91  119.41
  -2   1   2 6411.15  120.72
   2  -1  -2 6094.30  119.36
  -2   1   1   41.54    4.58
  -2   1   1   42.98    4.60
   2  -1  -1   41.22    4.28
   2  -1   0  502.85   15.13
   2  -1   0  534.29   17.06
   2  -1   1   61.49    3.52
  -2   1  -1   64.69    5.49
  -2   1  -2 2585.82   56.76
  -2   1  -3  318.84   15.12
  -2   1  -4  989.48   31.59
   2  -1   4  913.12   31.15
  -2   1  -5   17.30    2.14
  -2   1  -5   31.91    6.10
   2  -1   5   23.73    6.32
  -2   1  -6  149.22    7.18
   2  -1   6  140.12   13.43
   2  -1   7  612.66   30.98
  -2   1  -7  610.42   18.34
   2  -1   8   47.25    9.84
   2  -1   9   34.19    8.82
  -2   0  10   26.44    8.64
  -2   0   9  769.11   38.30
  -2   0   8   44.53    9.20
  -2   0   7   38.38    7.90
  -2   0   6    4.37    4.53
   2   0  -6    5.87    4.30
   2   0  -5 1086.80   36.26
  -2   0   5 1118.59   36.19
   2   0  -4  721.01   25.66
  -2   0   4  728.70   25.33
  -2   0   3 1873.73   45.52
   2   0  -3 1834.36   44.86
   2   0  -2   57.96    5.55
   2   0  -1  210.63    9.83
   2   0   0 6976.42  129.32
   2   0   1  965.99   26.29
  -2   0  -1 1032.08   26.50
   2   0   2  942.36   21.06
  -2   0  -2  985.65   27.38
   2   0   2  986.77   27.21
   2   0   3    0.46    2.66
  -2   0  -3    1.89    2.66
   2   0   3   -0.36    1.49
   2   0   4 1141.34   35.53
  -2   0  -4 1135.98   26.59
   2   0   4 1113.86   28.38
  -2   0  -4 1144.53   34.98
  -2   0  -5   15.22    2.83
   2   0   5   13.60    3.39
   2   0   5   12.25    4.83
  -2   0  -5   10.98    4.31
   2   0   6  762.39   32.80
  -2   0  -6  779.83   23.19
  -2   0  -7   27.02    4.15
   2   0   7   96.14   12.02
   2   0   8    4.68    4.98
   2   0   9  114.39   15.70
  -2  -1  10  107.26   15.30
  -2  -1   9  370.34   25.49
  -2  -1   8    3.53    5.14
   2   1  -7  865.61   34.00
  -2  -1   7  846.71   35.07
   2   1  -6    8.00    4.54
  -2  -1   6   -3.14    4.41
   2   1  -5 3524.21   79.78
  -2  -1   5 3292.96   78.39
   2   1  -4  822.46   27.72
   2   1  -3   23.57    3.85
   2   1  -2  349.57   13.91
   2   1  -1 3890.19   76.19
   2   1   0 4746.97   89.78
  -2  -1   0 4686.13   90.38
   2   1   0 4720.66   90.18
   2   1   1  167.77    7.76
   2   1   1  163.60    8.72
  -2  -1  -1  179.06    9.00
  -2  -1  -2  709.81   22.20
   2   1   2  707.95   20.10
   2   1   2  710.88   22.24
  -2  -1  -3   70.87    6.87
   2   1   3   74.55    6.40
   2   1   3   80.37    7.60
  -2  -1  -3   67.22    5.42
  -2  -1  -4 2045.41   52.29
  -2  -1  -4 2024.46   45.74
   2   1   4 1984.39   49.31
   2   1   4 1977.90   52.63
   2   1   5   13.45    4.79
   2   1   5   26.95    5.42
  -2  -1  -5   20.52    3.80
   2   1   6    1.44    3.67
   2   1   6    7.96    4.91
   2   1   7    4.55    5.46
   2   1   8  250.06   21.36
   2   1   9   33.37    9.27
  -2  -2  11   57.97   12.18
  -2  -2  10   22.74    7.90
  -2  -2   9  105.12   13.79
  -2  -2   8  646.82   31.97
   2   2  -7  567.62   25.85
  -2  -2   7  547.40   27.36
   2   2  -6  179.37   13.90
  -2  -2   6  183.81   14.25
   2   2  -5  844.83   29.83
   2   2  -4  264.99   14.10
   2   2  -3 5420.15  106.60
  -2  -2   2   30.92    4.18
   2   2  -2   42.25    4.41
   2   2  -1  322.17   11.83
  -2  -2   1  299.42   11.82
   2   2   0  655.41   18.21
   2   2   0  668.61   18.67
   2   2   1 2188.48   46.81
   2   2   1 2176.86   49.09
  -2  -2  -1 2209.33   47.49
   2   2   1 2207.37   47.48
  -2  -2  -2  308.09   13.52
   2   2   2  334.64   14.68
   2   2   2  307.98   13.47
  -2  -2  -3  492.91   19.39
   2   2   3  440.32   19.28
  -2  -2  -3  482.82   18.23
   2   2   3  457.37   18.95
  -2  -2  -4   56.42    6.94
   2   2   4   66.43    8.26
   2   2   4   53.54    7.75
   2   2   5   58.83    8.66
  -2  -2  -5   43.89    6.08
   2   2   5   62.79    8.94
   2   2   6  388.95   22.15
  -2  -2  -6  400.70   19.32
   2   2   6  361.52   22.55
   2   2   7    3.45    5.03
   2   2   7    6.26    4.40
   2   2   8   46.62    9.93
  -2  -3  11    2.07    6.35
  -2  -3  10  643.20   36.14
  -2  -3   9  101.61   13.74
  -2  -3   8  366.93   23.71
  -2  -3   7    2.14    3.75
   2   3  -6 1172.43   39.16
  -2  -3   6 1223.90   40.09
   2   3  -5 1136.30   35.26
   2   3  -4  910.70   28.48
  -2  -3   4  944.56   29.74
   2   3  -3   92.24    6.86
  -2  -3   3   97.73    7.63
   2   3  -3   86.79    7.08
  -2  -3   2  234.73   10.78
   2   3  -2  220.23   10.05
   2   3  -1 2461.39   49.27
  -2  -3   1 2355.99   49.75
   2   3   0   30.74    3.13
   2   3   0   28.26    3.25
   2   3   0   23.02    4.41
  -2  -3  -1 1017.19   26.35
   2   3   1 1011.69   25.99
   2   3   1 1033.70   31.18
   2   3   1 1032.64   25.82
   2   3   2   14.35    4.47
  -2  -3  -2    6.55    2.17
   2   3   2   13.68    3.36
  -2  -3  -3  452.74   19.78
   2   3   3  410.00   20.80
  -2  -3  -3  445.46   18.38
   2   3   3  431.36   18.55
  -2  -3  -4   79.86    8.31
  -2  -3  -4   78.80    8.33
   2   3   4   67.88    8.34
   2   3   4   60.45    9.09
   2   3   5  727.23   30.21
   2   3   5  742.00   33.28
   2   3   6   24.83    6.95
   2   3   6   41.17    8.56
   2   3   7   38.86    8.98
   2   3   7   28.25    7.73
  -2  -4  11   61.73   12.55
  -2  -4  10  290.13   23.74
  -2  -4   9   -0.87    5.80
  -2  -4   8  438.73   25.68
  -2  -4   7  227.01   16.75
   2   4  -6 2027.01   55.09
  -2  -4   6 2021.24   56.11
   2   4  -5   11.28    3.54
  -2  -4   4   12.15    3.79
   2   4  -4    6.13    2.36
   2   4  -3 1105.33   29.00
  -2  -4   3 1148.66   31.29
  -2  -4   2 1396.30   34.35
   2   4  -2 1495.94   33.74
   2   4  -1  209.66    7.61
  -2  -4   1  210.52    8.40
   2   4  -1  198.07    8.03
   2   4  -1  205.65   12.64
   2   4   0  296.58   16.00
   2   4   0  303.62   10.05
   2   4   0  310.25    9.79
   2   4   1  143.41   11.50
   2   4   1  136.85    7.16
   2   4   1  134.57    7.24
  -2  -4  -2    0.64    2.08
   2   4   2    0.43    2.28
   2   4   2    2.68    1.77
  -2  -4  -3  653.28   23.33
   2   4   3  701.55   24.51
   2   4   3  673.48   30.15
   2   4   4    4.89    5.76
  -2  -4  -4   17.09    4.47
   2   4   4    4.20    2.90
   2   4   5   -0.38    3.83
   2   4   5    6.71    6.70
   2   4   6   35.15    9.56
   2   4   7  129.22   16.37
  -2  -5  11    9.45    5.69
  -2  -5  10  111.84   14.94
  -2  -5   9  520.90   29.88
  -2  -5   8  316.28   21.78
  -2  -5   7   92.23   11.10
  -2  -5   6   63.43    8.45
   2   5  -6   55.04    7.38
   2   5  -5   58.87    6.91
   2   5  -4 2383.96   54.55
  -2  -5   4 2493.41   58.05
  -2  -5   3   11.37    2.93
   2   5  -3   11.15    2.35
   2   5  -2  187.37    7.12
  -2  -5   2  186.28    8.78
   2   5  -2  168.84   12.49
   2   5  -1   19.72    5.02
   2   5   0 1477.05   45.24
   2   5   0 1461.45   28.59
   2   5   1  362.82   10.46
   2   5   1  369.93   21.24
   2   5   1  375.30   12.15
  -2  -5  -2  330.73   13.69
   2   5   2  337.06   13.84
   2   5   2  336.60   12.46
   2   5   2  337.49   21.33
  -2  -5  -3   -2.02    2.64
   2   5   3    6.72    6.00
   2   5   3   -0.49    2.52
   2   5   3    1.87    2.33
   2   5   3    2.98    2.36
   2   5   4   65.40   12.51
   2   5   4   56.68    6.49
   2   5   5  289.32   24.34
   2   5   6   -3.37    6.62
  -2  -6  11  362.38   28.20
  -2  -6  10  108.35   15.02
  -2  -6   9  304.44   22.62
  -2  -6   8    0.50    5.19
  -2  -6   7  318.89   20.11
   2   6  -6  685.80   26.45
  -2  -6   6  668.96   28.07
   2   6  -5  472.29   19.32
   2   6  -4  211.82   15.10
   2   6  -4  223.91   11.00
  -2  -6   4  241.64   13.23
   2   6  -3    7.78    3.95
  -2  -6   3    1.78    1.92
   2   6  -3    8.17    1.81
   2   6  -2  811.30   32.44
  -2  -6   2  860.79   20.39
   2   6  -1    2.35    3.93
   2   6   0  306.45   20.20
   2   6   1    0.32    5.15
   2   6   2  158.42   16.29
   2   6   3   22.19    8.72
   2   6   4  122.78   16.88
   2   6   5   12.93    9.18
   2   6   6  -21.12    9.68
  -2  -7  11  213.87   21.86
  -2  -7  10   23.91    7.86
  -2  -7   9  324.27   23.23
  -2  -7   8   13.29    5.64
  -2  -7   7 1151.86   41.36
  -2  -7   6   65.80    8.58
   2   7  -6   85.40    8.53
   2   7  -5   15.95    3.53
   2   7  -5   17.77    5.73
  -2  -7   4  478.96   19.00
   2   7  -4  470.59   15.32
   2   7  -4  438.14   23.84
   2   7  -3  574.64   28.02
  -2  -7   3  583.06   17.73
   2   7  -2  723.50   32.35
   2   7  -1  239.17   18.76
   2   7   0  100.10   12.99
   2   7   1   -1.22    5.31
   2   7   2  522.56   32.44
   2   7   3  -12.53    9.16
   2   7   4  -13.40    9.37
  -2  -8  11   32.86    9.33
  -2  -8  10  117.57   15.30
  -2  -8   9  512.86   29.70
  -2  -8   8   30.58    7.72
   2   8  -7   45.96    8.46
  -2  -8   7   55.71    8.74
   2   8  -6    9.20    5.39
   2   8  -6    7.93    3.59
  -2  -8   6   -3.25    3.17
   2   8  -5  874.78   36.78
   2   8  -5  835.02   24.41
  -2  -8   4   12.87    3.00
   2   8  -4   15.18    1.79
   2   8  -4   10.65    5.92
   2   8  -3    4.03    5.01
   2   8  -2    0.12    4.87
   2   8  -1  332.26   24.14
   2   8   0  148.58   16.96
   2   8   1  133.00   17.01
   2   8   2   15.18    9.83
   2   9 -10  138.64   15.15
  -2  -9  10  116.78   14.88
   2   9  -9    9.38    6.26
  -2  -9   9   -2.50    5.60
   2   9  -8   46.63    8.90
  -2  -9   8   51.77    8.68
   2   9  -7  460.58   27.58
  -2  -9   7  522.09   26.02
  -2  -9   6  186.96   13.73
   2   9  -6  164.91   16.21
   2   9  -5  134.84   15.10
   2   9  -4   35.54    8.54
   2   9  -3  261.83   21.81
   2   9  -2   14.85    8.08
   2   9  -1  211.19   20.85
   2   9   0    6.95    7.29
   2  10 -10   65.54   11.73
  -2 -10  10   96.01   14.12
   2  10  -9   63.58   11.41
  -2 -10   9   66.72   11.14
   2  10  -8  352.62   25.10
   2  10  -7   16.66    7.45
   2  10  -6   -4.25    5.71
   2  10  -5  255.26   22.30
   2  10  -4  225.62   21.56
   2  10  -3  198.01   20.68
   2  10  -2    4.73    6.53
   2  11  -9    8.98    7.66
   2  11  -8    8.04    6.86
   2  11  -7   -1.40    7.22
   2  11  -6  171.54   19.19
  -3  11  -3  371.81   30.61
  -3  11  -4   -4.61    7.89
  -3  11  -5    0.60    6.66
  -3  10  -1  253.40   25.55
  -3  10  -2   56.37   12.55
  -3  10  -3   18.94    8.12
  -3  10  -4   -3.56    6.99
  -3  10  -5  418.40   27.53
  -3  10  -6   19.80    7.62
   3 -10   8   19.02    7.32
   3 -10   9  114.74   14.91
  -3   9   1   39.87   12.50
  -3   9   0  321.27   27.89
  -3   9  -1   -6.57    6.82
  -3   9  -2   64.19   12.41
  -3   9  -3  286.74   22.62
  -3   9  -4  188.09   17.83
   3  -9   4  223.29   13.99
  -3   9  -5  151.53   15.19
   3  -9   5  173.21   13.66
  -3   9  -6    8.72    4.23
   3  -9   6   24.11    6.13
   3  -9   7   82.72   11.10
   3  -9   8    3.00    5.45
   3  -9   9  173.65   18.87
  -3   8   3   80.20   15.59
  -3   8   2  461.48   33.54
  -3   8   1    6.18    6.44
   3  -8   0   93.19    7.14
  -3   8   0   66.91   12.29
   3  -8   1   40.21    4.92
  -3   8  -1   29.19    8.01
  -3   8  -2  549.91   30.96
   3  -8   2  586.91   23.72
   3  -8   3    9.17    3.88
   3  -8   3   14.52    4.09
  -3   8  -3   19.74    6.23
   3  -8   4   74.23    8.39
  -3   8  -4   67.23   10.16
  -3   8  -5  193.84   15.30
   3  -8   5  225.16   15.78
   3  -8   6  248.52   17.80
  -3   8  -6  242.53   16.31
   3  -8   7  401.80   24.71
   3  -8   8  137.22   15.96
   3  -8   9  -11.19    7.82
  -3   7   4   93.94   16.71
  -3   7   3  147.51   19.00
  -3   7   2   30.87    9.43
  -3   7   1  348.61   25.67
   3  -7  -1  354.05   15.36
   3  -7   0  662.48   22.58
  -3   7   0  642.39   33.70
   3  -7   0  605.74   22.45
  -3   7  -1  369.08   24.05
   3  -7   1  349.15   17.10
   3  -7   2   44.19    6.69
  -3   7  -2   44.05    8.40
   3  -7   3   59.37    7.93
   3  -7   3   72.68    7.93
  -3   7  -3   60.57    9.19
   3  -7   3   59.27    7.75
  -3   7  -4  454.11   22.57
   3  -7   4  453.80   23.16
   3  -7   4  438.46   21.17
   3  -7   5   30.75    6.54
  -3   7  -5   35.70    6.46
  -3   7  -6  308.68   16.19
   3  -7   6  325.44   20.58
   3  -7   7   -1.51    4.63
   3  -7   8  131.09   15.32
   3  -7   9  169.67   18.64
  -3   6   6   29.89   10.55
  -3   6   5  170.64   20.24
  -3   6   4    8.18    3.79
  -3   6   4    9.48    7.74
  -3   6   3  264.97   14.65
   3  -6  -3  248.03   15.20
  -3   6   3  236.61   21.82
  -3   6   2  154.68   17.19
  -3   6   2  131.92    9.53
   3  -6  -2  144.82   10.22
  -3   6   1  714.31   34.85
   3  -6  -1  705.18   24.51
   3  -6   0   24.18    4.50
  -3   6   0   17.15    6.61
   3  -6   0   17.87    3.90
   3  -6   1   41.99    5.79
  -3   6  -1   47.34    8.85
   3  -6   1   43.42    6.82
  -3   6  -2  948.09   35.27
   3  -6   2  989.30   32.82
   3  -6   2  985.35   32.77
   3  -6   3  499.14   20.82
  -3   6  -3  478.85   22.38
   3  -6   3  530.60   23.63
   3  -6   3  523.11   21.65
  -3   6  -4  489.01   20.95
  -3   6  -4  497.41   23.43
   3  -6   4  511.85   22.81
   3  -6   5    4.00    3.50
  -3   6  -5    0.03    2.76
  -3   6  -6  243.26   11.57
   3  -6   6  226.87   17.36
   3  -6   7    0.15    5.31
   3  -6   8  269.23   21.84
   3  -6   9   -3.62    6.31
  -3   5   7  102.64   16.55
  -3   5   6    1.00    7.45
  -3   5   6    7.19    4.61
  -3   5   5  158.19   18.15
  -3   5   5  168.15   13.70
  -3   5   4  272.57   22.69
   3  -5  -4  275.80   17.44
  -3   5   4  319.62   17.53
  -3   5   3 1555.37   55.72
   3  -5  -3 1513.43   44.95
  -3   5   3 1620.99   43.74
   3  -5  -3 1487.32   42.89
   3  -5  -2    4.36    3.08
  -3   5   2    4.27    5.46
  -3   5   2    4.82    3.14
   3  -5  -1   11.25    3.28
  -3   5   1    8.04    5.38
  -3   5   1   10.32    3.47
   3  -5   0   -0.07    2.42
   3  -5   0    3.97    2.81
   3  -5   0    4.94    2.63
   3  -5   1 2371.57   58.37
   3  -5   1 2341.63   57.84
  -3   5  -1 2442.94   62.35
  -3   5  -2   77.54    8.53
   3  -5   2   88.11    7.84
   3  -5   2   94.80    8.95
  -3   5  -3  243.31   13.60
  -3   5  -3  226.85   14.35
   3  -5   3  219.82   11.60
  -3   5  -4  132.50   11.42
  -3   5  -4  130.20    8.83
   3  -5   4  114.04   10.68
  -3   5  -5  589.95   18.12
   3  -5   5  561.82   26.25
   3  -5   6  875.00   35.75
   3  -5   7  113.34   13.54
   3  -5   8   13.03    5.84
   3  -5   9   -5.41    6.73
  -3   4   7   -2.11    4.74
  -3   4   6  689.56   31.03
  -3   4   6  717.05   37.75
  -3   4   5  283.71   17.92
  -3   4   5  269.01   21.95
  -3   4   4   72.35    8.53
   3  -4  -4   66.43    8.57
  -3   4   4   79.09   12.54
  -3   4   3    9.03    3.89
   3  -4  -3    2.03    2.74
  -3   4   3    1.88    4.64
  -3   4   2  475.16   25.32
   3  -4  -2  516.81   23.99
  -3   4   2  491.75   20.27
   3  -4  -2  508.93   20.81
   3  -4  -1 2074.55   54.59
  -3   4   1 2026.72   57.29
  -3   4   1 2092.80   50.36
   3  -4  -1 2029.97   50.87
   3  -4   0    5.37    2.78
  -3   4   0    7.88    4.39
   3  -4   0    7.74    3.25
   3  -4   1  126.76    9.11
  -3   4  -1  133.85   10.40
   3  -4   1  115.66    9.05
   3  -4   1  135.51   10.16
   3  -4   2    3.43    2.09
  -3   4  -2   11.69    4.11
   3  -4   2    3.37    3.13
   3  -4   3 1207.13   29.62
  -3   4  -3 1243.19   31.40
  -3   4  -3 1243.01   37.74
  -3   4  -4   12.35    4.09
   3  -4   4   16.16    5.64
  -3   4  -4   19.18    2.77
   3  -4   5  297.12   18.39
   3  -4   6    4.91    4.41
   3  -4   7  195.44   17.74
   3  -4   8   66.06   12.08
   3  -4   9   45.62   11.36
  -3   3   9   27.82    8.82
  -3   3   8  508.48   29.96
  -3   3   7    1.81    4.79
  -3   3   6  576.18   28.11
  -3   3   5    6.90    4.10
  -3   3   5    9.88    6.34
  -3   3   4 1137.20   42.60
   3  -3  -4 1205.03   39.55
  -3   3   4 1216.77   38.18
   3  -3  -4 1173.48   37.96
   3  -3  -3  283.60   17.75
  -3   3   3  271.35   18.08
   3  -3  -3  268.19   15.20
  -3   3   3  264.10   15.11
   3  -3  -2 1072.81   36.07
  -3   3   2 1093.42   37.29
  -3   3   2 1107.31   33.05
   3  -3  -2 1113.14   33.39
  -3   3   1   10.08    4.46
   3  -3  -1    5.55    2.79
   3  -3  -1   19.77    5.00
  -3   3   1   15.80    4.31
  -3   3   0  160.22   10.93
  -3   3   0  150.51   10.25
   3  -3   0  160.62   10.65
   3  -3   0  180.60   10.97
  -3   3  -1  898.29   26.89
   3  -3   1  933.77   28.85
   3  -3   1  911.60   29.13
   3  -3   1  932.30   26.21
   3  -3   2  564.24   17.13
  -3   3  -2  617.88   18.34
  -3   3  -2  595.65   22.76
   3  -3   2  627.70   23.74
  -3   3  -3 2245.92   54.92
   3  -3   3 2054.56   40.54
   3  -3   4    1.69    3.85
  -3   3  -4    2.14    2.99
   3  -3   5  266.23   17.40
   3  -3   6    4.85    5.04
   3  -3   7 1096.21   43.92
   3  -3   8    8.96    6.26
   3  -3   9   26.57    9.63
  -3   2  10   53.61   11.62
  -3   2   9  150.03   17.13
  -3   2   8  395.91   26.06
  -3   2   7    6.13    4.93
  -3   2   6  306.15   19.90
  -3   2   5   -2.99    3.74
   3  -2  -5    1.62    3.00
   3  -2  -4 2965.37   74.66
  -3   2   4 2852.32   70.22
   3  -2  -4 2814.12   70.00
  -3   2   4 3078.81   74.44
   3  -2  -3   44.56    6.21
  -3   2   3   55.36    7.79
  -3   2   3   55.84    7.03
  -3   2   2    2.18    2.69
   3  -2  -2    3.34    2.50
  -3   2   2    2.42    3.45
   3  -2  -1  173.06   11.15
  -3   2   1  182.20   11.21
  -3   2   1  186.60   11.29
   3  -2  -1  182.59   11.05
  -3   2   0 2311.61   51.98
  -3   2   0 2391.43   54.91
   3  -2   0 2426.49   55.38
   3  -2   0 2317.43   52.93
   3  -2   1  230.37   12.87
   3  -2   1  221.00    9.94
  -3   2  -2  282.97   14.60
   3  -2   2  252.76    8.57
  -3   2  -3  116.95    9.84
  -3   2  -4  447.57   21.18
   3  -2   4  408.09   20.58
   3  -2   5 1023.86   37.26
   3  -2   6   15.72    6.84
   3  -2   7   -3.30    6.08
   3  -2   8    5.27    6.74
   3  -2   9  250.45   23.07
  -3   1  10    3.24    6.93
  -3   1   9    3.20    5.92
  -3   1   8   14.37    6.83
  -3   1   7  683.16   32.41
  -3   1   6  272.09   18.35
   3  -1  -5  234.64   16.86
   3  -1  -5  225.79   15.99
  -3   1   5  221.11   15.58
  -3   1   4  113.39   10.36
   3  -1  -4  118.89   10.38
  -3   1   3  283.05   15.25
   3  -1  -3  278.15   15.21
  -3   1   2 1944.72   48.46
   3  -1  -2 1966.90   48.60
   3  -1  -1  174.22   10.20
   3  -1  -1  185.13   11.04
   3  -1   0  231.23   10.23
   3  -1   0  214.66   12.01
   3  -1   1  576.17   21.37
  -3   1  -2 2188.79   53.25
  -3   1  -3   86.09    8.44
   3  -1   3   84.84    8.35
  -3   1  -4  468.33   21.89
   3  -1   4  431.47   21.29
   3  -1   5   10.94    5.36
   3  -1   6  100.79   12.13
   3  -1   7  265.72   20.62
   3  -1   8   63.76   11.59
   3  -1   9   35.50    9.84
  -3   0  10   14.09    7.46
  -3   0   9  605.63   34.50
  -3   0   8    6.07    5.32
  -3   0   7  954.87   39.03
  -3   0   6  176.53   15.09
   3   0  -5  572.09   25.72
   3   0  -5  574.32   25.56
  -3   0   5  542.25   24.70
  -3   0   4  927.17   31.49
   3   0  -4  908.97   31.16
   3   0  -3 2130.11   53.27
   3   0  -2  746.71   24.98
   3   0  -1   13.73    3.36
   3   0   0 2561.95   57.96
   3   0   1  325.61   14.97
   3   0   1  341.84   15.55
   3   0   2  998.74   30.97
   3   0   2 1005.27   23.53
   3   0   3   62.15    7.51
  -3   0  -3   81.72    8.25
   3   0   3   74.36    4.91
   3   0   4  384.67   13.87
  -3   0  -4  407.92   20.33
   3   0   4  403.23   20.36
   3   0   5    7.64    2.92
   3   0   5    1.07    3.63
   3   0   6  338.10   21.77
   3   0   7    9.57    6.08
   3   0   8   21.41    7.96
   3   0   9    8.69    5.84
  -3  -1  10  314.61   25.66
  -3  -1   9  378.47   26.49
  -3  -1   8   48.66    9.14
  -3  -1   7  395.18   23.75
  -3  -1   6   55.86    8.27
   3   1  -6   57.27    8.03
   3   1  -5 2113.60   56.68
  -3  -1   5 1971.73   55.35
   3   1  -4   71.35    7.90
   3   1  -3    9.29    3.48
   3   1  -2   89.06    7.63
   3   1  -1 1402.97   36.43
   3   1   0  387.24   16.19
  -3  -1   0  448.90   17.12
   3   1   0  422.31   16.91
   3   1   1  967.43   29.20
   3   1   1 1063.43   30.37
   3   1   2  187.14    9.41
  -3  -1  -2  184.90   11.60
   3   1   2  204.27   11.98
   3   1   3   92.23    7.08
  -3  -1  -3  108.69    9.61
   3   1   3   97.54    9.29
   3   1   4  613.60   22.33
  -3  -1  -4  636.98   26.08
   3   1   4  642.95   26.60
   3   1   5   61.02    7.23
   3   1   5   65.61    9.24
   3   1   6   -1.42    3.38
   3   1   6    6.63    5.59
   3   1   7   13.05    6.51
   3   1   8  189.60   19.45
   3   1   9   -3.64    6.28
  -3  -2  11   65.37   13.38
  -3  -2  10   19.05    8.91
  -3  -2   9   -6.59    6.51
  -3  -2   8 1034.52   42.32
  -3  -2   7  984.46   39.14
  -3  -2   6  283.07   18.33
   3   2  -5   39.04    6.47
   3   2  -4  142.11   10.96
  -3  -2   3 2674.74   62.77
   3   2  -3 2712.12   62.06
  -3  -2   2   13.39    3.68
   3   2  -2   17.13    3.64
  -3  -2   1  594.62   20.52
   3   2  -1  561.31   19.78
   3   2   0  197.31   10.64
   3   2   0  197.13   10.79
   3   2   1 1348.02   35.58
   3   2   1 1344.04   36.28
   3   2   1 1358.93   35.32
   3   2   2  143.74    9.66
  -3  -2  -2  134.96    9.88
   3   2   2  137.97   10.07
   3   2   2  140.32    9.90
   3   2   3  489.61   20.39
  -3  -2  -3  500.55   21.43
   3   2   3  531.78   22.07
   3   2   4   55.10    7.56
  -3  -2  -4   60.78    7.81
   3   2   4   63.16    8.38
   3   2   5   45.97    8.08
   3   2   5   40.80    7.31
   3   2   6  102.85   11.15
   3   2   6   96.44   12.22
   3   2   7   12.86    5.78
   3   2   8   33.00    9.51
  -3  -3  11    8.90    5.63
  -3  -3  10  526.39   33.12
  -3  -3   9   36.52    8.48
  -3  -3   8  800.57   36.42
  -3  -3   7   16.76    5.31
   3   3  -6  286.24   17.80
  -3  -3   6  334.09   19.92
   3   3  -5  298.03   16.89
  -3  -3   5  285.05   17.33
   3   3  -4 1554.89   43.21
  -3  -3   3  348.68   16.63
   3   3  -3  335.37   15.63
  -3  -3   2   51.69    6.16
   3   3  -2   55.31    5.89
  -3  -3   1  106.80    7.87
   3   3  -1  103.93    7.57
   3   3   0  274.33   12.27
   3   3   0  292.40   12.96
   3   3   0  250.50   13.87
   3   3   1 1215.24   32.31
   3   3   1 1226.89   35.82
   3   3   1 1201.21   33.28
   3   3   2    4.48    2.98
   3   3   2    7.83    4.33
  -3  -3  -2    2.04    2.24
   3   3   2    5.86    3.34
   3   3   3  122.36   11.27
  -3  -3  -3  124.43   10.12
   3   3   3  120.01   10.01
   3   3   4    3.19    4.28
   3   3   4    8.84    4.40
  -3  -3  -4    0.73    2.80
   3   3   5  477.49   26.35
   3   3   5  523.09   26.08
   3   3   6    2.55    4.86
   3   3   6   -0.31    4.49
   3   3   7    0.27    4.77
  -3  -4  11  168.32   19.48
  -3  -4  10  493.32   31.64
  -3  -4   9   20.11    7.23
  -3  -4   8  295.02   21.42
  -3  -4   7   12.68    5.50
   3   4  -6 3069.31   75.79
  -3  -4   6 3123.80   77.99
  -3  -4   5   35.96    6.61
   3   4  -5   20.51    4.75
   3   4  -4    4.41    3.15
   3   4  -4    5.75    3.19
  -3  -4   3  302.56   14.94
   3   4  -3  257.04   13.28
  -3  -4   2 3286.77   69.67
   3   4  -2 3188.35   68.18
   3   4  -1 1063.91   27.84
  -3  -4   1 1044.64   28.89
   3   4  -1 1155.53   29.29
   3   4  -1 1087.17   34.70
   3   4   0   72.51    5.74
   3   4   0   73.51    8.68
   3   4   0   66.72    5.83
   3   4   1   27.38    4.19
   3   4   1   31.77    6.19
   3   4   1   31.94    4.23
   3   4   2   39.13    5.34
   3   4   2   41.94    7.52
   3   4   2   38.85    5.35
   3   4   3  595.85   28.52
  -3  -4  -3  609.34   24.16
   3   4   3  609.14   24.20
   3   4   4    4.30    5.20
   3   4   4    5.45    2.50
   3   4   4   14.69    4.76
   3   4   5   14.85    7.22
   3   4   5   20.61    5.58
   3   4   6   16.78    6.14
   3   4   6    0.40    6.76
  -3  -5  11   14.48    7.71
  -3  -5  10   -1.91    5.58
  -3  -5   9  556.55   31.51
  -3  -5   8  405.51   25.05
  -3  -5   7   68.86    9.85
  -3  -5   6   44.92    7.54
   3   5  -6   56.14    7.99
  -3  -5   5   71.18    8.63
   3   5  -5   48.15    6.49
   3   5  -4 1098.48   32.02
  -3  -5   3   12.90    3.56
   3   5  -3   13.31    3.61
  -3  -5   2  279.15   12.91
   3   5  -2  277.88   12.27
   3   5  -2  273.54   16.94
   3   5  -1    8.39    2.18
   3   5  -1   15.18    5.31
   3   5  -1   12.35    2.54
   3   5   0  782.92   31.18
   3   5   0  774.47   21.49
   3   5   0  799.30   21.10
   3   5   1   75.37    9.85
   3   5   1   87.26    6.45
   3   5   1   84.10    6.45
   3   5   2  213.39   17.39
   3   5   2  224.92   11.74
   3   5   2  251.19   12.79
   3   5   3   14.16    4.20
   3   5   3   20.90    7.37
   3   5   4   17.17    5.37
   3   5   4   26.73    8.69
   3   5   5   13.26    8.16
  -3  -6  11  395.44   29.58
  -3  -6  10   47.62   10.99
  -3  -6   9  578.54   32.11
  -3  -6   8    2.30    3.87
  -3  -6   7  257.16   18.51
   3   6  -6  695.39   27.69
  -3  -6   6  717.60   29.94
   3   6  -5  616.84   23.60
  -3  -6   5  645.82   26.12
   3   6  -4  322.09   14.50
  -3  -6   3   18.19    4.02
   3   6  -3    7.58    2.22
   3   6  -3   12.59    5.05
   3   6  -2  554.27   26.99
   3   6  -2  577.37   15.56
  -3  -6   2  594.01   18.32
   3   6  -2  565.20   15.56
   3   6  -1   -0.05    3.72
   3   6  -1    2.20    0.88
   3   6   0  411.11   11.28
   3   6   0  409.06   23.86
   3   6   0  386.25   10.27
   3   6   1    2.42    0.87
   3   6   1    2.66    1.87
   3   6   1    7.68    6.60
   3   6   2   67.19   11.19
   3   6   3   35.40   10.39
   3   6   4  113.96   15.86
   3   6   5   40.25   11.26
  -3  -7  11  292.28   25.36
  -3  -7  10   18.06    7.88
  -3  -7   9  190.36   18.15
  -3  -7   8    7.77    4.95
  -3  -7   7  800.16   34.07
  -3  -7   6    7.22    3.91
   3   7  -6    3.20    2.55
   3   7  -5    3.26    2.28
   3   7  -4  133.30   13.72
  -3  -7   4  160.17   11.25
   3   7  -4  153.84    8.73
   3   7  -3  497.72   26.46
   3   7  -3  473.15   13.41
  -3  -7   3  471.32   17.19
   3   7  -3  493.39   13.09
   3   7  -2  455.93   26.01
   3   7  -1  227.58   18.83
   3   7   0   19.92    7.43
   3   7   1    9.27    6.94
   3   7   2  238.14   21.76
   3   7   3    9.81    8.51
   3   7   4    5.33    6.67
  -3  -8  11   13.61    7.80
  -3  -8  10   82.91   13.17
  -3  -8   9  362.15   25.45
  -3  -8   8  135.29   14.56
  -3  -8   7    9.17    5.36
  -3  -8   6    9.64    4.22
   3   8  -6    7.56    5.90
   3   8  -5  391.06   24.41
  -3  -8   4    3.85    2.51
   3   8  -4   -1.27    5.02
   3   8  -3   56.78   10.15
   3   8  -2    5.73    5.08
   3   8  -1  141.43   16.21
   3   8   0  124.67   16.33
   3   8   1   51.45   11.37
   3   8   2   14.26    8.46
  -3  -9  10  220.60   20.80
  -3  -9   9    1.61    4.98
   3   9  -9   -0.74    4.92
   3   9  -8    5.39    5.29
  -3  -9   8    9.86    6.03
   3   9  -7  343.76   24.11
  -3  -9   7  346.87   21.06
   3   9  -6  274.45   21.98
  -3  -9   6  276.53   17.13
   3   9  -5  202.98   19.04
   3   9  -4   30.31    9.31
   3   9  -3  152.39   17.46
   3   9  -2   12.88    7.41
   3   9  -1  155.53   18.59
   3   9   0    7.99    7.51
   3  10 -10   28.47    8.72
  -3 -10  10   16.44    7.56
   3  10  -9    4.79    5.46
   3  10  -8  371.75   27.13
   3  10  -7    8.32    6.84
   3  10  -6   12.23    7.82
   3  10  -5   77.57   13.65
   3  10  -4  224.38   21.70
   3  10  -3  124.23   17.09
  -4  11  -3  357.00   30.23
  -4  11  -4   28.04   10.77
  -4  10  -1   82.18   14.56
  -4  10  -2   60.78   12.65
  -4  10  -3   68.28   13.42
  -4  10  -4   -2.13    6.13
  -4  10  -5  155.56   17.39
   4 -10   8   16.95    6.66
  -4   9   1   -8.48    7.99
  -4   9   0  305.38   27.51
  -4   9  -1    4.52    7.48
  -4   9  -2    4.19    6.50
  -4   9  -3  120.44   15.17
   4  -9   3  122.72   11.03
  -4   9  -4  237.69   20.04
   4  -9   4  203.04   15.16
  -4   9  -5  272.54   20.18
   4  -9   5  240.70   17.54
   4  -9   6   45.98    9.24
   4  -9   7   -1.85    5.63
   4  -9   8   16.57    7.56
  -4   8   3  160.85   21.07
  -4   8   2  391.35   30.78
  -4   8   1   69.97   13.56
  -4   8   0    4.91    6.75
   4  -8   0    3.70    3.10
   4  -8   1   23.29    5.25
  -4   8  -1   29.25    9.75
   4  -8   2  901.84   31.21
  -4   8  -2  823.75   38.91
  -4   8  -3   14.37    6.37
   4  -8   3    0.73    3.12
  -4   8  -4  222.36   17.50
   4  -8   4  229.16   16.23
   4  -8   5   59.33    9.10
  -4   8  -5   55.37    8.87
   4  -8   6  211.26   17.74
   4  -8   7  212.10   18.87
   4  -8   8  120.40   15.92
   4  -8   9   14.95    9.40
  -4   7   4   74.05   15.19
  -4   7   3  164.63   20.45
  -4   7   2    6.41    8.86
   4  -7  -1  123.04   10.68
  -4   7   1  122.95   15.63
  -4   7   0  384.33   25.94
   4  -7   0  403.25   19.55
   4  -7   0  383.10   19.92
   4  -7   1  183.24   12.95
  -4   7  -1  181.12   16.99
   4  -7   1  162.72   13.12
   4  -7   2  145.45   11.94
  -4   7  -2  136.13   14.16
   4  -7   2  127.53   12.08
   4  -7   3  119.44   10.63
   4  -7   3  113.19   10.84
  -4   7  -3  100.08   11.95
  -4   7  -4  228.97   15.93
   4  -7   4  228.91   16.31
   4  -7   5    0.05    4.29
  -4   7  -5    1.37    3.28
   4  -7   6  141.46   14.73
  -4   7  -6  146.65    9.79
   4  -7   7    3.83    6.04
   4  -7   8    1.99    4.42
   4  -7   9   45.25   11.48
  -4   6   5  348.16   28.30
  -4   6   4    4.44    3.38
  -4   6   4    3.18    7.03
  -4   6   3  197.01   20.48
  -4   6   3  187.49   13.78
   4  -6  -2   25.94    5.52
  -4   6   2   29.49    8.87
  -4   6   2   20.51    4.73
  -4   6   1 1562.64   55.38
   4  -6  -1 1547.24   45.65
   4  -6   0   90.50    9.54
   4  -6   0   95.17    9.54
  -4   6   0   89.58   12.38
   4  -6   1   -0.62    3.12
  -4   6  -1    7.64    5.96
   4  -6   1    2.99    3.86
   4  -6   2  758.05   28.50
   4  -6   2  813.95   30.19
  -4   6  -2  775.63   31.51
   4  -6   2  790.61   31.65
   4  -6   3  575.98   25.36
   4  -6   3  563.27   22.40
  -4   6  -3  560.27   24.55
  -4   6  -4  715.24   26.16
   4  -6   4  717.97   30.14
   4  -6   5   28.33    7.05
  -4   6  -5   26.29    4.29
   4  -6   6   12.35    5.75
   4  -6   7   -2.44    6.42
   4  -6   8  321.80   25.28
   4  -6   9   -3.33    5.34
  -4   5   6   12.19    5.62
  -4   5   6   26.94    9.79
  -4   5   5  162.45   18.43
  -4   5   5  137.04   13.10
  -4   5   4  113.13   15.02
  -4   5   4  124.03   12.14
  -4   5   3  793.24   30.38
  -4   5   3  817.37   38.66
   4  -5  -3  714.44   29.37
  -4   5   2   39.66    6.61
   4  -5  -2   45.34    7.06
   4  -5  -1    2.20    2.77
  -4   5   1    5.66    5.65
  -4   5   1    0.94    3.46
   4  -5   0    4.41    3.39
   4  -5   0    9.35    3.86
  -4   5   0   12.65    6.16
  -4   5  -1 1094.51   37.26
   4  -5   1 1107.43   35.72
   4  -5   1 1116.80   37.12
   4  -5   1 1056.50   34.80
   4  -5   2    1.04    3.09
   4  -5   2    7.54    4.50
  -4   5  -2    5.45    4.29
   4  -5   2    4.49    2.70
  -4   5  -3  256.68   13.93
   4  -5   3  295.53   18.76
   4  -5   3  251.84   16.54
   4  -5   3  258.03   12.77
  -4   5  -4  125.74    8.17
   4  -5   4  143.97   12.98
   4  -5   5  119.62   12.76
   4  -5   6  244.23   19.24
   4  -5   7  146.48   16.00
   4  -5   8   25.32    9.19
   4  -5   9   -1.39    7.59
  -4   4   7    4.83    4.88
  -4   4   6  522.45   27.90
  -4   4   5   83.27   10.44
  -4   4   5   79.85   12.73
  -4   4   4  270.72   17.62
  -4   4   4  264.09   20.65
   4  -4  -4  298.54   18.40
  -4   4   3    5.41    3.71
   4  -4  -3    4.14    3.00
  -4   4   3   10.52    6.48
  -4   4   2  134.21   13.43
  -4   4   2  146.56   11.85
   4  -4  -2  151.15   12.29
   4  -4  -1  950.97   34.15
  -4   4   1 1005.14   36.14
  -4   4   1  960.22   32.60
   4  -4  -1  929.45   32.94
   4  -4   0  181.74   12.73
  -4   4   0  180.54   13.47
   4  -4   0  175.22   13.02
  -4   4  -1  806.92   28.48
   4  -4   1  835.25   27.53
   4  -4   1  825.18   31.01
   4  -4   2   57.80    5.94
   4  -4   2   53.61    7.17
  -4   4  -2   51.77    5.80
   4  -4   2   64.56    8.61
   4  -4   3  730.52   20.98
   4  -4   3  779.74   30.23
   4  -4   4    6.11    4.36
   4  -4   5  579.41   28.37
   4  -4   6   35.64    8.81
   4  -4   7   68.61   11.58
   4  -4   8   25.07    7.81
   4  -4   9   10.73    5.79
  -4   3   9   10.13    6.38
  -4   3   8  370.90   25.88
  -4   3   7   43.03    9.03
  -4   3   6  687.60   32.23
  -4   3   5   53.07    8.54
  -4   3   4  266.69   17.28
   4  -3  -4  257.03   17.31
  -4   3   3    1.29    3.31
   4  -3  -3   -2.30    3.92
  -4   3   3   -3.35    5.45
   4  -3  -2 2362.08   62.43
  -4   3   2 2294.94   61.17
  -4   3   2 2336.07   59.73
   4  -3  -2 2276.39   59.65
  -4   3   1    6.39    3.29
   4  -3  -1   15.49    4.22
   4  -3  -1   16.01    4.66
  -4   3   1    7.94    3.92
  -4   3   0  126.28   10.39
  -4   3   0  119.80    9.49
   4  -3   0  128.64   10.86
   4  -3   0  121.69    9.78
   4  -3   1  403.44   16.91
   4  -3   1  434.39   20.75
   4  -3   2  232.91   10.79
   4  -3   2  254.17   15.90
   4  -3   2  249.06   15.92
   4  -3   3 1095.39   24.19
   4  -3   3 1159.33   38.25
  -4   3  -3 1145.24   38.23
   4  -3   4  190.37   15.02
   4  -3   5   26.26    6.96
   4  -3   6    3.55    5.85
   4  -3   7  489.54   29.30
   4  -3   8    7.52    8.66
   4  -3   9   15.73    8.66
  -4   2  10    1.52    6.61
  -4   2   9  297.97   24.78
  -4   2   8  181.57   17.94
  -4   2   7   56.94    9.59
  -4   2   6   18.14    6.73
  -4   2   5  228.44   16.78
  -4   2   4 1920.11   55.26
   4  -2  -4 1959.52   55.29
   4  -2  -3   95.19   10.50
  -4   2   3  111.83   10.62
   4  -2  -3  112.72   10.63
  -4   2   2   71.22    8.19
   4  -2  -2   59.92    7.70
   4  -2  -2   74.48    8.44
   4  -2  -1  131.68   10.39
  -4   2   1  115.58    9.99
   4  -2  -1  108.43    9.82
   4  -2   0 3619.41   77.28
  -4   2   0 3535.43   81.19
   4  -2   0 3680.88   82.10
   4  -2   1  106.05    7.50
   4  -2   1   97.28    9.82
   4  -2   2  262.02   10.51
   4  -2   2  316.10   17.61
  -4   2  -3   67.12    8.48
   4  -2   3   58.24    8.10
   4  -2   4  193.93   14.92
   4  -2   5  408.72   23.44
   4  -2   6   61.19   10.51
   4  -2   7   25.88    8.65
   4  -2   8    4.52    6.51
   4  -2   9  132.44   17.66
  -4   1  10    0.09    5.72
  -4   1   9   55.25   11.13
  -4   1   8   31.70    8.64
  -4   1   7  876.49   38.43
  -4   1   6  255.96   18.97
  -4   1   5  796.92   32.80
   4  -1  -4  149.32   13.24
  -4   1   4  137.82   12.19
   4  -1  -4  148.00   12.65
  -4   1   3  351.52   18.92
   4  -1  -3  345.70   18.67
   4  -1  -2 2031.55   51.40
  -4   1   2 1935.51   52.20
   4  -1  -2 1954.25   52.45
   4  -1  -1   83.80    7.65
   4  -1  -1   65.62    7.57
   4  -1   0  862.59   29.76
   4  -1   1   10.48    3.65
   4  -1   2  227.27   14.70
   4  -1   2  218.19   14.64
  -4   1  -3    6.80    3.58
   4  -1   3    6.84    1.27
   4  -1   3    7.08    4.37
   4  -1   4  769.41   31.45
   4  -1   5   59.78    9.05
   4  -1   6   19.51    6.60
   4  -1   7    1.03    4.57
   4  -1   8   70.72   12.45
  -4   0  10   26.81    9.06
  -4   0   9  352.75   26.32
  -4   0   8   52.02   10.31
  -4   0   7  857.39   37.70
  -4   0   6   64.61   10.08
  -4   0   5  290.02   18.80
   4   0  -5  263.58   17.91
  -4   0   4   72.38    8.97
   4   0  -4   67.95    8.53
   4   0  -3 3210.69   75.84
   4   0  -2  234.36   14.21
   4   0  -1   93.26    8.83
   4   0   0 1042.67   33.19
   4   0   0 1104.30   34.47
   4   0   1  878.69   30.31
   4   0   1  952.24   31.78
   4   0   2  708.92   27.69
  -4   0  -2  746.51   28.21
   4   0   2  769.56   29.12
   4   0   3   57.88    4.61
  -4   0  -3   73.40    8.61
   4   0   3   67.86    8.44
   4   0   4   42.38    8.01
   4   0   4   33.94    3.95
   4   0   5   39.32    8.20
   4   0   5   54.74    4.82
   4   0   6  535.34   29.36
   4   0   7   35.71    9.34
   4   0   8   27.15    8.23
  -4  -1  10  492.39   32.76
  -4  -1   9  463.34   29.79
  -4  -1   8   54.04   10.51
  -4  -1   7  282.99   20.63
  -4  -1   6  179.79   15.66
  -4  -1   5 1927.45   56.62
   4   1  -5 2033.51   57.27
   4   1  -4   29.82    6.14
   4   1  -3   15.50    4.54
   4   1  -2   13.45    4.16
   4   1  -1 2125.37   53.48
   4   1   0  583.82   22.99
   4   1   0  612.58   23.66
   4   1   1 1067.45   33.61
   4   1   1 1079.01   34.62
   4   1   2    3.94    2.72
   4   1   2   -2.27    3.44
   4   1   2   -1.57    2.26
   4   1   3  153.27    9.51
  -4  -1  -3  158.91   12.60
   4   1   3  185.77   14.27
   4   1   3  148.60   12.27
   4   1   4  475.66   18.94
   4   1   4  492.41   24.51
   4   1   5   62.46    7.23
   4   1   5   60.13    9.44
   4   1   6   30.82    7.75
   4   1   7   22.07    7.67
   4   1   8   70.99   12.22
  -4  -2  10  100.52   15.79
  -4  -2   9   16.67    8.07
  -4  -2   8  381.51   25.70
  -4  -2   7  240.70   19.20
  -4  -2   6  798.18   33.75
  -4  -2   5  194.92   15.03
   4   2  -5  174.59   13.82
  -4  -2   4  233.72   15.64
   4   2  -4  225.57   14.79
   4   2  -3  973.83   32.82
   4   2  -2  135.39   10.47
   4   2  -1  692.31   25.14
   4   2   0  141.65   10.38
   4   2   0  139.24   10.47
   4   2   1  544.56   22.08
   4   2   1  521.01   20.24
   4   2   1  533.15   22.56
   4   2   2   27.92    4.68
   4   2   2   31.27    5.54
   4   2   2   22.30    5.40
   4   2   3  600.29   23.51
  -4  -2  -3  648.78   26.93
   4   2   3  649.61   27.56
   4   2   3  629.65   26.38
   4   2   4   86.78    9.09
   4   2   4   92.51   10.34
   4   2   5    8.52    4.14
   4   2   5   12.26    6.38
   4   2   6   67.10   10.50
   4   2   7   12.64    6.90
   4   2   8   32.29    8.89
  -4  -3  11   -2.09    5.51
  -4  -3  10  386.18   28.68
  -4  -3   9   10.37    6.61
  -4  -3   8  917.91   40.68
  -4  -3   7   -0.69    4.62
  -4  -3   6  395.23   22.80
  -4  -3   5  313.88   18.97
   4   3  -5  288.09   18.12
  -4  -3   4 1981.15   54.09
   4   3  -4 1912.60   52.44
   4   3  -3  309.88   16.77
   4   3  -2   -0.36    2.32
  -4  -3   1  781.66   27.17
   4   3  -1  766.04   26.50
   4   3   0   34.64    5.28
   4   3   0   27.44    4.82
   4   3   1  652.31   25.38
   4   3   1  689.51   24.68
   4   3   1  677.13   25.60
   4   3   2   19.49    4.81
   4   3   2   18.04    5.09
   4   3   2   29.71    5.85
   4   3   3   60.03    7.88
   4   3   3   62.69    8.74
  -4  -3  -3   80.96    9.06
   4   3   3   64.13    8.29
   4   3   4   22.04    6.56
   4   3   4   25.79    6.33
   4   3   5  302.35   20.62
   4   3   5  337.91   21.69
   4   3   6   -0.69    4.86
   4   3   7   -3.33    5.22
  -4  -4  11  266.77   25.04
  -4  -4  10  380.82   28.39
  -4  -4   9   69.29   12.56
  -4  -4   8    8.01    6.26
  -4  -4   7   27.99    7.39
  -4  -4   6 1927.58   57.47
  -4  -4   5    0.09    3.50
   4   4  -5    0.82    3.57
   4   4  -4   36.69    6.25
   4   4  -3   52.13    6.65
   4   4  -2 1284.23   36.69
   4   4  -1  100.75    8.31
  -4  -4   1  104.90    8.55
   4   4  -1   95.14    8.31
   4   4   0  258.53   16.34
   4   4   0  290.36   14.23
   4   4   0  283.93   14.62
   4   4   1   24.16    4.64
   4   4   1   25.92    4.81
   4   4   1   22.32    5.47
   4   4   2   27.83    4.92
   4   4   2   31.29    5.34
   4   4   2   33.77    6.96
   4   4   3  140.19   13.70
   4   4   3  137.28   11.84
   4   4   3  172.94   13.03
   4   4   4    9.95    5.40
   4   4   4   12.72    5.09
   4   4   5   48.99    9.80
   4   4   5   59.97    9.36
  -4  -5  11   59.44   12.61
  -4  -5  10   -5.90    6.43
  -4  -5   9  380.83   26.75
  -4  -5   8  247.22   19.85
  -4  -5   7  187.89   16.52
  -4  -5   6  108.51   11.87
  -4  -5   5    7.46    4.53
   4   5  -5    6.00    3.78
   4   5  -4  574.43   23.79
   4   5  -3    0.09    2.71
  -4  -5   2  247.61   13.84
   4   5  -2  250.35   13.34
   4   5  -1   52.14    5.70
   4   5  -1   49.34    5.55
   4   5   0  175.02   14.45
   4   5   0  188.80   11.19
   4   5   0  196.00   10.80
   4   5   1   32.85    5.11
   4   5   1   35.97    5.26
   4   5   1   25.32    6.69
   4   5   2  238.97   18.74
   4   5   2  269.43   14.81
   4   5   3   39.32    8.84
   4   5   3   25.08    5.48
   4   5   4   -3.31    6.13
   4   5   5    1.05    6.87
  -4  -6  11  217.04   22.31
  -4  -6  10   -5.83    7.51
  -4  -6   9  664.90   35.49
  -4  -6   8   -4.74    5.29
  -4  -6   7   63.22   10.09
   4   6  -6  128.33   11.52
  -4  -6   6  144.36   13.64
   4   6  -5  927.73   31.75
  -4  -6   5  958.76   35.16
   4   6  -4  284.46   14.85
   4   6  -3   69.45    7.10
   4   6  -3   57.00    8.88
   4   6  -2   36.62    7.80
   4   6  -2   36.25    4.99
   4   6  -2   41.83    4.86
  -4  -6   2   45.35    5.78
   4   6  -1  151.14    8.19
   4   6  -1  138.45   13.94
   4   6  -1  156.33    9.14
   4   6   0  387.06   24.03
   4   6   0  403.55   15.03
   4   6   0  373.97   14.20
   4   6   1    6.77    5.23
   4   6   1   -1.24    2.02
   4   6   2    0.10    6.12
   4   6   3   -0.30    6.06
   4   6   4   97.31   14.66
  -4  -7  10   45.88   10.72
  -4  -7   9   18.34    7.14
  -4  -7   8   28.54    7.53
  -4  -7   7  741.58   33.82
   4   7  -6   -1.82    3.60
  -4  -7   6    3.28    3.81
  -4  -7   5   42.85    7.01
   4   7  -5   46.08    6.34
   4   7  -4   32.60    8.05
   4   7  -4   19.28    3.79
   4   7  -3  416.99   25.41
   4   7  -3  435.60   15.66
  -4  -7   3  450.06   18.56
   4   7  -3  434.95   15.29
   4   7  -2  245.91   19.54
   4   7  -2  239.78    8.66
   4   7  -1  239.60   19.66
   4   7   0    2.11    6.10
   4   7   1    5.35    6.08
   4   7   2  167.51   18.82
   4   7   3   22.34   10.14
  -4  -8  10   62.46   12.05
  -4  -8   9  286.33   22.89
  -4  -8   8  192.10   17.38
  -4  -8   7   85.06   11.40
  -4  -8   6   16.93    6.17
  -4  -8   5  280.98   17.03
   4   8  -5  265.07   21.08
   4   8  -4    0.70    5.91
   4   8  -3  131.34   15.63
   4   8  -2   24.31    7.85
   4   8  -1   36.91    9.66
   4   8   0   40.53   10.50
   4   8   1   70.10   13.54
  -4  -9  10  254.20   22.15
  -4  -9   9   13.76    6.63
  -4  -9   8   16.72    6.24
   4   9  -8   21.22    7.90
   4   9  -7  160.99   17.59
  -4  -9   7  177.98   15.67
   4   9  -6  284.58   23.03
   4   9  -5  133.74   16.41
   4   9  -4   14.70    6.46
   4   9  -3   84.01   13.65
   4   9  -2   17.40    7.87
   4   9  -1  119.27   16.61
   4  10  -7   -0.77    5.93
   4  10  -6   13.41    8.20
   4  10  -5   29.16    9.47
  -5  11  -3  166.33   20.44
  -5  10  -1   42.14   11.75
  -5  10  -2   52.86   13.17
  -5  10  -3   98.06   15.32
  -5  10  -4    4.11    6.86
  -5   9   1   29.48   12.57
  -5   9   0  484.37   34.03
  -5   9  -1   -8.01    9.45
  -5   9  -2    4.97    6.30
   5  -9   3   92.24   10.37
  -5   9  -3   80.66   12.56
  -5   9  -4  179.25   17.44
   5  -9   4  195.80   16.21
   5  -9   5  131.66   14.31
   5  -9   6   95.50   13.28
   5  -9   7    8.22    5.59
  -5   8   2  203.88   22.36
  -5   8   1   68.54   14.16
  -5   8   0   10.39    6.73
   5  -8   0   10.70    4.65
   5  -8   1   20.06    5.86
  -5   8  -1   15.05    7.96
   5  -8   2  257.49   17.55
  -5   8  -2  319.98   23.05
  -5   8  -3   18.21    6.89
   5  -8   3   14.38    5.57
   5  -8   4  122.06   12.97
  -5   8  -4  134.69   13.57
   5  -8   5   27.85    7.85
   5  -8   6  103.96   13.65
   5  -8   7   59.01   11.28
   5  -8   8   83.70   13.63
  -5   7   4   31.80   11.53
  -5   7   3  378.24   29.81
  -5   7   2   20.78    8.41
  -5   7   1   91.08   13.53
   5  -7  -1  105.80   11.38
  -5   7   0  279.36   22.25
   5  -7   0  247.86   16.97
   5  -7   1  135.91   12.68
  -5   7  -1  150.74   15.86
   5  -7   2  109.36   11.65
  -5   7  -2  101.05   12.36
  -5   7  -3    8.92    5.22
   5  -7   3    7.77    5.26
   5  -7   4   21.67    6.90
  -5   7  -4   22.36    5.80
   5  -7   5   21.11    7.71
  -5   7  -5   15.35    4.76
   5  -7   6  218.18   19.31
   5  -7   7    0.30    4.61
   5  -7   8   -3.83    6.29
  -5   6   5  256.80   25.08
  -5   6   4   10.02    4.84
  -5   6   4  -11.11    9.36
  -5   6   3    1.78    6.54
  -5   6   3   25.35    6.51
  -5   6   2   -3.38    5.91
  -5   6   2    2.39    4.08
  -5   6   1  961.85   41.74
   5  -6  -1  936.31   36.47
   5  -6   0   46.99    7.71
  -5   6   0   34.40    8.12
  -5   6  -1  192.34   15.78
   5  -6   1  211.69   15.51
   5  -6   2  161.51   14.07
  -5   6  -2  147.24   12.86
   5  -6   2  128.76   11.22
   5  -6   3  517.22   21.51
   5  -6   3  520.25   26.27
  -5   6  -3  553.82   23.94
  -5   6  -4  131.60    9.92
   5  -6   4  124.44   13.40
   5  -6   4  127.23    8.94
   5  -6   5  173.65   16.10
   5  -6   6   -4.76    6.01
   5  -6   7   21.80    8.41
   5  -6   8  196.89   20.74
  -5   5   6   66.54   10.63
  -5   5   5    0.03    4.00
  -5   5   4  259.06   22.68
  -5   5   4  310.19   20.62
  -5   5   3  592.67   32.30
  -5   5   3  560.62   27.19
  -5   5   2    5.55    5.52
  -5   5   2   15.77    5.18
   5  -5  -1   53.50    8.21
  -5   5   1   46.86    9.07
  -5   5   1   57.11    8.39
   5  -5   0  103.58   11.13
  -5   5   0  124.74   12.41
   5  -5   0  129.58   12.39
   5  -5   1  683.03   26.84
  -5   5  -1  678.20   28.21
   5  -5   1  652.31   28.76
   5  -5   2   14.18    4.27
   5  -5   2   16.42    5.69
  -5   5  -2   15.73    4.71
   5  -5   3  344.76   15.29
   5  -5   3  381.18   22.33
   5  -5   4    9.85    6.37
   5  -5   5  214.58   18.12
   5  -5   6  106.87   14.03
   5  -5   7   73.88   12.71
   5  -5   8   -1.58    7.52
  -5   4   8  174.17   18.36
  -5   4   7   10.01    6.11
  -5   4   6  228.12   19.02
  -5   4   5    9.28    5.45
  -5   4   4  788.98   33.73
  -5   4   3  143.12   13.44
  -5   4   2    1.63    3.78
   5  -4  -2    8.80    4.40
  -5   4   2   -1.12    6.24
  -5   4   1  256.99   17.18
  -5   4   1  261.38   17.08
   5  -4  -1  264.11   17.56
   5  -4   0  330.95   18.46
   5  -4   0  320.37   19.07
   5  -4   0  300.89   19.04
   5  -4   1  956.55   31.44
   5  -4   1  891.74   34.67
   5  -4   1  953.22   36.86
   5  -4   2   -2.88    2.96
   5  -4   2    2.67    3.50
   5  -4   3   75.92    5.88
   5  -4   3   84.38   11.02
   5  -4   4   47.04    8.52
   5  -4   5  453.56   26.40
   5  -4   6    7.55    5.61
   5  -4   7    7.29    7.36
   5  -4   8    3.02    7.12
  -5   3   9   -4.55    7.16
  -5   3   8  122.91   16.20
  -5   3   7  196.84   18.28
  -5   3   6  811.52   37.39
  -5   3   5    5.94    4.58
  -5   3   4  380.19   22.28
  -5   3   3   31.12    6.95
  -5   3   2 1626.15   50.33
   5  -3  -2 1689.14   51.27
   5  -3  -1   24.54    6.22
   5  -3  -1   36.78    6.92
  -5   3   1   30.65    6.68
   5  -3   0    6.75    3.21
   5  -3   0    4.87    3.21
  -5   3   0    4.22    3.67
   5  -3   0    2.07    3.93
   5  -3   1  162.57   11.21
   5  -3   1  172.19   13.92
   5  -3   1  163.36   14.03
   5  -3   2  473.25   17.61
   5  -3   2  430.34   23.27
   5  -3   3  568.86   15.85
   5  -3   3  578.58   27.82
   5  -3   4   76.67   10.54
   5  -3   5   62.30   10.25
   5  -3   6    4.58    5.00
   5  -3   7  347.16   25.66
   5  -3   8   22.04    9.62
  -5   2   9  273.00   23.94
  -5   2   8  234.37   21.29
  -5   2   7  137.05   15.67
  -5   2   6    4.79    4.15
  -5   2   5  103.60   12.44
  -5   2   4 1448.73   48.01
  -5   2   3   27.51    6.50
   5  -2  -3   15.74    5.12
   5  -2  -2  162.23   13.15
  -5   2   2  153.84   13.63
   5  -2  -2  178.04   14.39
  -5   2   1   13.79    4.88
   5  -2  -1   13.36    4.51
   5  -2  -1   11.48    4.14
   5  -2   0  826.58   28.29
   5  -2   0  817.11   31.80
  -5   2   0  781.09   31.24
   5  -2   0  829.87   32.46
   5  -2   1    0.61    3.38
   5  -2   1    9.60    5.13
   5  -2   1    6.59    3.36
   5  -2   2  601.34   27.35
   5  -2   2  580.39   19.17
   5  -2   3  107.10    5.34
   5  -2   3   97.16   11.18
   5  -2   4   83.02   11.00
   5  -2   5   56.03   10.13
   5  -2   6   84.96   12.80
   5  -2   7   67.88   12.32
   5  -2   8   -3.78    7.99
  -5   1  10   13.38    7.55
  -5   1   9  215.81   21.33
  -5   1   8   43.45   10.44
  -5   1   7  441.49   27.44
  -5   1   6  119.41   13.52
  -5   1   5  610.78   30.02
  -5   1   4  110.27   11.89
  -5   1   3   -0.04    4.50
   5  -1  -3    5.71    4.67
   5  -1  -3   -3.18    3.58
   5  -1  -2  474.89   22.04
  -5   1   2  450.12   23.17
   5  -1  -2  490.44   23.82
   5  -1  -1  117.27    9.91
   5  -1  -1  130.45   11.74
   5  -1   0  636.90   27.61
   5  -1   1   18.98    5.02
   5  -1   1   16.28    5.44
   5  -1   2  203.68   15.50
   5  -1   3    8.02    1.96
   5  -1   3    8.22    4.87
   5  -1   4  476.66   25.78
   5  -1   5   48.42    9.42
   5  -1   6    3.45    4.74
   5  -1   7   38.45    9.55
   5  -1   8   15.62    7.92
  -5   0  10  -12.16    6.61
  -5   0   9  168.20   18.98
  -5   0   8   86.82   13.37
  -5   0   7  683.04   34.64
  -5   0   6    2.41    4.47
  -5   0   5   55.00    8.93
  -5   0   4   34.97    7.32
  -5   0   3 1972.94   56.64
   5   0  -3 1978.22   56.21
   5   0  -2    9.17    3.52
   5   0  -1  354.58   19.54
   5   0   0   93.35    9.82
   5   0   0  101.04   10.43
  -5   0   0  107.50   10.73
   5   0   1  889.75   33.31
   5   0   1  965.74   35.61
   5   0   2  376.83   21.01
   5   0   3   21.39    3.26
   5   0   3   13.21    4.96
   5   0   4   36.22    7.94
   5   0   4   17.08    2.94
   5   0   5   13.36    6.38
   5   0   5   15.55    2.46
   5   0   6  166.67   16.84
   5   0   7   17.67    7.97
   5   0   8   28.90    8.18
  -5  -1  10  436.47   31.59
  -5  -1   9  267.62   23.36
  -5  -1   8  350.06   25.24
  -5  -1   7    4.94    5.47
  -5  -1   6  173.03   16.14
  -5  -1   5  783.36   33.86
  -5  -1   4   13.24    5.01
   5   1  -4    9.70    4.63
  -5  -1   3  626.41   27.94
   5   1  -3  611.75   27.20
  -5  -1   2   92.41   10.38
   5   1  -2   93.75    9.66
  -5  -1   1  644.03   27.28
   5   1  -1  637.43   26.96
   5   1   0  285.04   17.09
   5   1   0  288.60   17.47
   5   1   1  500.14   23.48
   5   1   1  539.01   25.13
   5   1   2    8.87    3.08
   5   1   2    4.52    4.08
   5   1   3   36.49    5.31
   5   1   3   27.22    6.45
   5   1   4   94.93    8.16
   5   1   4   90.63   11.48
   5   1   5   36.12    8.26
   5   1   5   27.81    5.07
   5   1   6    9.27    6.13
   5   1   7    2.68    5.70
  -5  -2  10  235.44   23.19
  -5  -2   9   19.63    7.06
  -5  -2   8  346.01   24.90
  -5  -2   7  210.13   18.43
  -5  -2   6 1029.55   41.19
  -5  -2   5   69.41    9.98
  -5  -2   4    4.75    4.21
   5   2  -4    3.62    3.56
  -5  -2   3  424.12   22.37
   5   2  -3  447.23   22.38
  -5  -2   2  239.19   16.34
   5   2  -2  266.14   16.57
  -5  -2   1  472.20   23.05
   5   2  -1  490.46   22.97
   5   2   0    8.10    4.44
   5   2   0    2.57    3.52
   5   2   1   95.44   10.32
   5   2   1   97.49   10.12
   5   2   1   94.11    8.76
   5   2   2   15.68    5.25
   5   2   2   21.91    4.66
   5   2   2   32.85    6.25
   5   2   3  353.65   17.86
   5   2   3  354.00   20.85
   5   2   4   16.26    6.21
   5   2   4   17.51    5.35
   5   2   5   56.42    9.95
   5   2   6    3.02    6.46
   5   2   7   34.42    9.96
  -5  -3  10  118.39   16.27
  -5  -3   9   95.09   14.70
  -5  -3   8 1172.16   48.09
  -5  -3   7   10.51    5.38
  -5  -3   6   26.08    8.23
  -5  -3   5   -0.59    4.16
  -5  -3   4 1411.18   46.09
   5   3  -4 1405.16   45.06
  -5  -3   3  234.17   16.24
   5   3  -3  246.45   16.30
  -5  -3   2   92.25   10.06
   5   3  -2  113.19   10.70
   5   3  -1   10.20    3.88
   5   3  -1    4.91    3.23
   5   3   0  268.92   16.14
   5   3   0  258.05   16.13
   5   3   1  251.91   15.81
   5   3   1  295.21   17.08
   5   3   1  279.62   17.34
   5   3   2   38.20    6.89
   5   3   2   41.25    6.98
   5   3   2   50.99    7.79
   5   3   3   -0.50    4.02
   5   3   3   -1.44    3.45
   5   3   4    3.35    4.31
   5   3   4    6.12    4.02
   5   3   5  135.18   14.51
   5   3   6    1.16    4.93
  -5  -4  10  339.41   27.51
  -5  -4   9  105.96   14.93
  -5  -4   8   10.14    6.44
  -5  -4   7   -0.61    4.96
  -5  -4   6  960.28   39.19
  -5  -4   5  101.85   11.90
  -5  -4   4  211.68   16.10
   5   4  -4  217.59   15.46
  -5  -4   3   12.32    4.73
   5   4  -3   18.67    4.81
  -5  -4   2  644.99   26.52
   5   4  -2  551.85   24.31
   5   4  -1   45.45    6.27
   5   4  -1   47.05    6.86
   5   4   0  338.75   19.85
   5   4   0  343.93   17.75
   5   4   0  306.33   17.37
   5   4   1   56.93    7.55
   5   4   1   71.44    9.63
   5   4   1   72.31    8.43
   5   4   2    1.71    3.26
   5   4   2    4.81    4.49
   5   4   2    0.69    4.05
   5   4   3   67.93   10.56
   5   4   3   59.23    8.68
   5   4   4   29.45    8.07
   5   4   4   26.98    6.68
  -5  -5  10   10.24    7.17
  -5  -5   9  213.28   20.23
  -5  -5   8  133.79   15.79
  -5  -5   7  362.00   24.07
  -5  -5   6  386.65   23.64
  -5  -5   5    0.89    4.31
  -5  -5   4  210.94   15.57
   5   5  -4  199.91   14.48
  -5  -5   3   81.09    9.56
   5   5  -3   88.83    9.72
   5   5  -2  699.47   26.58
   5   5  -2  719.63   27.22
   5   5  -1   19.55    6.08
   5   5  -1    9.30    3.18
   5   5  -1   10.96    3.73
   5   5   0  141.19   10.63
   5   5   0  129.83   13.41
   5   5   0  127.69   10.69
   5   5   1   12.88    4.02
   5   5   1    9.98    5.32
   5   5   2  183.15   16.84
   5   5   2  189.44   13.55
   5   5   3   27.04    7.38
   5   5   4    8.02    6.83
  -5  -6  10    9.64    6.47
  -5  -6   9  508.99   31.65
  -5  -6   8   10.90    6.01
  -5  -6   7   15.28    6.54
  -5  -6   6   36.99    7.67
   5   6  -5  630.55   26.86
  -5  -6   5  643.53   29.48
  -5  -6   4  161.48   13.64
   5   6  -4  154.38   12.36
  -5  -6   3   29.72    6.27
   5   6  -3   29.92    5.59
   5   6  -2   17.79    6.08
   5   6  -2   27.34    5.03
   5   6  -2   25.27    4.74
   5   6  -1   73.39   11.11
   5   6  -1   71.24    6.94
   5   6   0  137.00   15.02
   5   6   0  129.98    9.61
   5   6   1   15.58    6.80
   5   6   2   -1.73    5.41
   5   6   3    0.62    5.97
  -5  -7  10   93.39   14.93
  -5  -7   9   -5.99    6.93
  -5  -7   8   10.80    5.85
  -5  -7   7  505.68   28.26
  -5  -7   6    1.84    4.29
  -5  -7   5  102.57   11.66
   5   7  -5  110.47   10.24
  -5  -7   4    5.18    3.69
   5   7  -4    5.54    5.23
   5   7  -3  203.04   18.50
   5   7  -3  205.42   12.12
   5   7  -2  186.92   18.13
   5   7  -1  145.71   16.18
   5   7   0    0.21    6.20
   5   7   1   -4.01    6.78
   5   7   2   71.96   13.38
   5   7   3   15.78    9.27
  -5  -8  10   20.84    8.01
  -5  -8   9  157.21   17.62
  -5  -8   8  199.64   18.38
  -5  -8   7   56.45    9.72
  -5  -8   6    1.36    3.80
  -5  -8   5   62.81    8.97
   5   8  -5   43.73    9.33
   5   8  -4   25.28    8.15
   5   8  -3   54.31   11.46
   5   8  -2    7.66    5.37
   5   8  -1    8.31    7.78
   5   8   0    6.39    7.76
  -5  -9  10  169.86   18.92
  -5  -9   9   -8.58    5.32
  -5  -9   8    6.12    5.23
   5   9  -7   43.04   10.14
   5   9  -6  198.17   20.35
   5   9  -5   62.72   12.38
   5   9  -4   66.00   13.26
   5   9  -3   15.55    8.23
  -6  10  -2   61.91   13.31
  -6  10  -3  107.66   15.58
  -6   9   0  354.41   29.24
  -6   9  -1   19.55    9.61
  -6   9  -2   25.45    8.90
  -6   9  -3   33.27    8.51
   6  -9   3   17.67    6.35
   6  -9   4  127.72   14.38
   6  -9   5   51.54   10.23
   6  -9   6   53.13   11.18
  -6   8   2  168.18   20.82
   6  -8  -1   91.53   11.40
  -6   8   1   87.09   14.70
  -6   8   0   57.39   11.65
   6  -8   0   61.69    9.60
   6  -8   1    3.23    4.36
  -6   8  -1   12.04    7.28
  -6   8  -2  118.89   14.46
   6  -8   2  117.58   13.13
  -6   8  -3   20.66    6.57
   6  -8   3   14.91    6.74
   6  -8   4  183.85   17.01
   6  -8   5    0.85    5.76
   6  -8   6    7.34    6.97
   6  -8   7    1.13    5.41
  -6   7   3  450.81   32.33
  -6   7   2    0.24    6.73
   6  -7  -1   10.44    5.25
  -6   7   1   12.37    7.99
   6  -7   0   43.24    8.51
  -6   7   0   37.19    9.04
   6  -7   1  287.40   20.18
  -6   7  -1  307.29   22.11
   6  -7   2  224.66   18.13
  -6   7  -2  206.58   16.85
  -6   7  -3   -0.84    4.15
   6  -7   3    2.93    4.84
   6  -7   4    3.64    4.80
   6  -7   5   -0.31    5.19
   6  -7   6  210.45   20.62
   6  -7   7    3.34    6.72
  -6   6   4    8.38    5.56
  -6   6   3    7.00    4.26
  -6   6   2   24.53    8.15
  -6   6   2   22.49    6.27
  -6   6   1  813.98   37.55
   6  -6  -1  777.78   34.72
  -6   6   0   10.55    6.00
   6  -6   0   18.87    6.83
  -6   6  -1   66.51    9.97
   6  -6   1   62.55    9.61
   6  -6   2   83.89   11.48
   6  -6   3  392.73   24.61
   6  -6   4   83.62   11.90
   6  -6   5   57.34   10.59
   6  -6   6    0.04    6.53
   6  -6   7   26.32    8.70
  -6   5   6  262.79   21.58
  -6   5   5   13.99    6.52
  -6   5   4   55.55    9.78
  -6   5   3  215.67   17.52
  -6   5   2  176.44   15.72
  -6   5   1  412.76   23.90
   6  -5   0   30.50    6.48
   6  -5   1  307.21   18.12
   6  -5   1  342.64   21.63
   6  -5   2    7.70    3.67
   6  -5   2    3.47    4.76
   6  -5   3  334.07   15.44
   6  -5   3  334.44   22.96
   6  -5   4    0.52    4.84
   6  -5   5   -4.58    6.51
   6  -5   6   16.21    8.34
   6  -5   7   57.29   12.08
  -6   4   8  150.87   17.95
  -6   4   7    0.30    5.02
  -6   4   6  145.97   16.12
  -6   4   5    5.72    5.22
  -6   4   4  580.55   30.67
  -6   4   3   10.57    4.91
  -6   4   2    1.27    3.86
  -6   4   1  343.15   21.66
   6  -4   0  113.82   12.51
   6  -4   0  155.69   13.41
   6  -4   1  262.99   16.18
   6  -4   1  284.99   19.78
   6  -4   2   74.77    7.66
   6  -4   2   86.47   11.38
   6  -4   3   78.16   11.14
   6  -4   3   88.65    6.76
   6  -4   4   -5.26    5.46
   6  -4   5  250.10   20.78
   6  -4   6   -4.13    4.96
   6  -4   7   25.15    9.74
  -6   3   9   -9.24    7.85
  -6   3   8   20.82    7.31
  -6   3   7  219.21   20.38
  -6   3   6  357.33   24.99
  -6   3   5   84.39   11.84
  -6   3   4   15.66    6.18
  -6   3   3  189.90   16.52
  -6   3   2 1024.71   39.99
   6  -3  -1   22.49    6.11
  -6   3   1   21.11    6.41
   6  -3   0  181.82   13.73
   6  -3   0  139.23   13.72
   6  -3   1    3.57    4.80
   6  -3   1    3.66    3.57
   6  -3   2  185.86   11.42
   6  -3   2  179.44   16.11
   6  -3   3  135.86   14.31
   6  -3   3  136.05    7.50
   6  -3   4  211.68   18.71
   6  -3   5    7.86    6.30
   6  -3   6   19.03    7.06
   6  -3   7  154.86   18.24
  -6   2   9  230.51   22.88
  -6   2   8  113.59   15.86
  -6   2   7  288.68   23.27
  -6   2   6   37.32    8.84
  -6   2   5    4.98    6.04
  -6   2   4  456.02   26.35
  -6   2   3  205.27   17.06
  -6   2   2  328.30   21.24
   6  -2  -1    0.08    3.44
  -6   2   1    6.90    4.57
   6  -2   0  289.73   16.68
   6  -2   0  295.01   19.90
   6  -2   1    1.78    4.48
   6  -2   1   -1.10    3.00
   6  -2   2  323.76   21.48
   6  -2   2  338.47   15.13
   6  -2   3   10.43    2.33
   6  -2   3   13.64    5.68
   6  -2   4    7.84    5.49
   6  -2   5   33.73    8.92
   6  -2   6   25.48    8.23
   6  -2   7   35.15    9.36
  -6   1   9  154.75   18.77
  -6   1   8   -4.33    5.76
  -6   1   7  151.36   17.10
  -6   1   6   20.97    7.18
  -6   1   5 1345.89   49.58
  -6   1   4   78.22   11.17
  -6   1   3    3.58    3.97
   6  -1  -2  133.19   12.59
  -6   1   2  144.76   14.23
   6  -1  -1  762.26   29.07
  -6   1   1  723.43   32.30
   6  -1   0  694.66   25.95
   6  -1   0  661.59   30.40
   6  -1   1   32.83    7.74
   6  -1   2   37.44    8.06
   6  -1   3    4.45    1.78
   6  -1   3    3.96    2.11
   6  -1   3    4.28    4.40
   6  -1   4  539.57   29.57
   6  -1   5   14.93    6.72
   6  -1   6   29.94    8.51
   6  -1   7   17.93    8.67
  -6   0   9   11.80    7.98
  -6   0   8  211.70   20.60
  -6   0   7  560.93   32.67
  -6   0   6    9.84    6.92
  -6   0   5   18.57    6.92
  -6   0   4   98.41   12.25
  -6   0   3 1307.99   46.34
  -6   0   2   69.90   10.53
  -6   0   1   91.45   11.16
   6   0   0    6.62    4.66
   6   0   1  255.77   18.17
   6   0   2    4.39    4.49
   6   0   3   63.38    5.88
   6   0   3   65.91    9.92
   6   0   4    1.51    1.77
   6   0   4    1.37    4.00
   6   0   5    9.21    6.11
   6   0   6   19.04    7.42
   6   0   7   -3.32    7.19
  -6  -1  10  332.69   28.29
  -6  -1   9   92.02   15.06
  -6  -1   8  432.82   29.55
  -6  -1   7   14.96    7.31
  -6  -1   6  140.93   15.37
  -6  -1   5  689.85   33.51
  -6  -1   4   84.74   11.39
  -6  -1   3  461.78   25.58
  -6  -1   2    0.60    4.38
  -6  -1   1  367.49   22.06
   6   1   0   93.43   10.76
   6   1   1  840.13   34.73
   6   1   2   20.19    4.35
   6   1   2   33.55    7.32
   6   1   3    8.49    3.73
   6   1   3   -1.08    4.44
   6   1   4   46.79    9.28
   6   1   4   38.14    5.41
   6   1   5   70.45   11.31
   6   1   6   58.42   11.44
  -6  -2  10  321.55   27.84
  -6  -2   9   28.19   10.12
  -6  -2   8  122.60   16.07
  -6  -2   7   35.06    8.89
  -6  -2   6  908.22   40.26
  -6  -2   5  113.55   13.54
  -6  -2   4   12.81    6.02
  -6  -2   3  135.82   14.05
  -6  -2   2  243.08   17.95
   6   2  -1  247.53   17.36
  -6  -2   1  245.20   17.80
   6   2   0   10.59    5.20
   6   2   1    5.71    4.89
   6   2   2    4.91    3.48
   6   2   2    2.08    3.65
   6   2   3  289.04   16.36
   6   2   3  251.34   19.09
   6   2   4   19.81    6.43
   6   2   5    7.16    5.84
   6   2   6    0.82    6.21
  -6  -3  10   26.49    9.92
  -6  -3   9   96.18   15.27
  -6  -3   8  363.51   26.87
  -6  -3   7   20.21    7.67
  -6  -3   6    2.24    4.63
  -6  -3   5   -0.75    4.60
  -6  -3   4  630.39   30.73
  -6  -3   3   36.60    7.72
  -6  -3   2  128.77   12.96
   6   3  -1    5.93    4.45
  -6  -3   1    7.06    4.29
   6   3   0  151.83   13.40
   6   3   1  114.29   11.11
   6   3   1  124.61   12.12
   6   3   2   30.98    6.43
   6   3   2   31.42    6.88
   6   3   3    0.78    4.50
   6   3   3    2.83    4.21
   6   3   4   -5.91    5.81
   6   3   5   62.08   10.89
  -6  -4  10  114.65   16.60
  -6  -4   9  297.23   25.13
  -6  -4   8   66.20   11.88
  -6  -4   7   21.60    8.30
  -6  -4   6  694.10   34.31
  -6  -4   5  111.77   13.12
  -6  -4   4  284.88   20.13
  -6  -4   3   16.58    5.74
   6   4  -2  303.18   18.91
  -6  -4   2  313.56   19.86
   6   4  -1   53.49    8.06
   6   4   0  184.37   15.53
   6   4   0  174.46   13.96
   6   4   1   41.29    7.68
   6   4   1   41.65    7.31
   6   4   2    5.25    5.06
   6   4   2   -0.38    4.61
   6   4   3   39.41    7.92
   6   4   3   25.44    6.74
  -6  -5  10    6.82    7.58
  -6  -5   9   40.84   10.84
  -6  -5   8    5.14    6.55
  -6  -5   7  290.02   22.99
  -6  -5   6  170.38   16.58
  -6  -5   5    0.43    4.20
  -6  -5   4   30.38    7.12
  -6  -5   3   93.88   11.01
   6   5  -2  155.41   13.11
  -6  -5   2  177.42   14.60
   6   5  -1   62.03   10.20
   6   5  -1   59.20    8.25
   6   5  -1   64.68    8.28
   6   5   0    6.55    5.12
   6   5   0    6.36    3.54
   6   5   1   -2.28    5.09
   6   5   1    3.48    4.05
   6   5   2   85.90   12.02
   6   5   3  -10.78    7.01
  -6  -6  10   57.78   12.14
  -6  -6   9  436.48   30.12
  -6  -6   8    5.57    5.23
  -6  -6   7   -3.35    5.72
  -6  -6   6   11.72    6.26
  -6  -6   5  273.44   20.12
  -6  -6   4   89.94   11.11
   6   6  -3   55.73    8.09
  -6  -6   3   70.26    9.53
   6   6  -2   -0.46    4.56
   6   6  -2    2.57    3.26
   6   6  -1   11.72    5.79
   6   6  -1   15.11    3.97
   6   6   0   32.06    8.46
   6   6   1   12.10    7.49
   6   6   2   20.28    7.94
  -6  -7  10  139.18   18.26
  -6  -7   9   26.29    8.27
  -6  -7   8    7.68    6.56
  -6  -7   7  161.96   16.63
  -6  -7   6   48.97    9.49
  -6  -7   5  174.35   15.84
  -6  -7   4    5.26    4.13
   6   7  -3   22.33    7.81
  -6  -7   3   37.74    6.81
   6   7  -2   12.75    7.36
   6   7  -1  185.61   18.89
   6   7   0    2.97    5.57
   6   7   1   -1.27    6.36
   6   7   2   23.99    8.49
  -6  -8  10    6.07    6.84
  -6  -8   9   32.81    9.49
  -6  -8   8  203.94   19.63
  -6  -8   7   56.31   10.41
  -6  -8   6    6.35    5.26
   6   8  -5   12.57    6.81
   6   8  -4   46.83   11.25
   6   8  -3   89.28   14.44
   6   8  -2   -0.80    5.52
   6   8  -1   -8.32    7.49
  -7   9   0   72.52   13.13
  -7   9  -1   35.23    9.90
  -7   9  -2   40.46    9.93
   7  -9   3  -13.01    6.59
   7  -9   4   46.41   10.16
   7  -9   5   12.14    7.59
   7  -8  -1   70.65   10.87
   7  -8   0   66.24   10.19
   7  -8   1   -2.47    5.28
   7  -8   2   34.27    8.50
   7  -8   3   13.94    6.63
   7  -8   4  119.78   15.13
   7  -8   5   -0.75    5.89
   7  -7  -2    6.92    5.42
   7  -7  -1    4.65    4.79
   7  -7   0   13.00    5.64
   7  -7   1  141.97   15.79
   7  -7   2   47.06    9.85
   7  -7   3    8.68    6.07
   7  -7   4    4.32    6.82
   7  -7   5   13.44    7.42
  -7   6   4    4.79    5.12
  -7   6   3   41.31    9.22
  -7   6   2   57.81   10.30
   7  -6  -1  281.31   21.68
   7  -6   0   39.32    8.69
   7  -6   1  122.98   14.51
   7  -6   2   15.50    7.15
   7  -6   3   98.03   13.65
   7  -6   4    1.88    5.65
   7  -6   5   33.97    8.95
   7  -6   6   -0.43    6.75
  -7   5   6  326.72   26.00
  -7   5   5    7.58    6.16
  -7   5   4    3.09    5.43
  -7   5   3  112.22   13.86
  -7   5   2   64.50   10.64
   7  -5  -1  111.41   13.46
   7  -5   0   28.66    7.47
   7  -5   1   13.91    5.87
   7  -5   2   22.27    7.41
   7  -5   3  295.56   23.07
   7  -5   4    1.07    5.84
   7  -5   5    5.72    6.44
   7  -5   6    7.51    7.00
  -7   4   7    6.75    7.15
  -7   4   6   53.19   11.17
  -7   4   5   46.73    9.49
  -7   4   4  589.19   32.87
  -7   4   3   18.25    7.13
  -7   4   2   42.11    9.07
  -7   4   1    3.73    5.04
   7  -4   0  406.69   25.78
   7  -4   1  168.34   13.58
   7  -4   1  183.41   17.02
   7  -4   2   91.85   13.17
   7  -4   3    8.74    5.19
   7  -4   4   61.91   11.59
   7  -4   5  202.98   20.24
   7  -4   6   -0.25    5.35
  -7   3   8   16.28    8.29
  -7   3   7  116.22   16.27
  -7   3   6  193.32   19.56
  -7   3   5   26.52    7.95
  -7   3   4   29.42    9.02
  -7   3   3   69.74   11.09
  -7   3   2  131.79   14.73
  -7   3   1   14.83    6.53
   7  -3   0  151.63   13.43
   7  -3   0  174.03   16.61
   7  -3   1   78.18   11.55
   7  -3   1   88.66    9.66
   7  -3   2   69.33    7.70
   7  -3   2   63.17   11.28
   7  -3   3    9.80    6.10
   7  -3   4   70.68   12.29
   7  -3   5    4.88    6.34
   7  -3   6   11.32    6.87
  -7   2   8   30.84    9.26
  -7   2   7  478.24   31.75
  -7   2   6   74.01   12.25
  -7   2   5   11.47    5.38
  -7   2   4  479.28   29.28
  -7   2   3  328.76   23.40
  -7   2   2  402.46   25.48
  -7   2   1    2.45    5.35
   7  -2   0  294.58   18.34
   7  -2   0  307.56   21.80
   7  -2   1   -1.13    4.81
   7  -2   1    1.54    3.00
   7  -2   2  377.65   25.10
   7  -2   2  395.67   18.07
   7  -2   3   47.18    9.16
   7  -2   4   -0.70    6.27
   7  -2   5   11.01    7.33
   7  -2   6   23.26    8.40
  -7   1   8   14.88    9.51
  -7   1   7   39.92   10.66
  -7   1   6   30.42    9.47
  -7   1   5  365.22   25.52
  -7   1   4   39.86    8.55
  -7   1   3   27.89    7.38
  -7   1   2   -7.27    6.60
   7  -1  -1  162.57   13.83
  -7   1   1  179.53   16.91
   7  -1   0   69.08   10.84
   7  -1   0   68.20    8.34
   7  -1   1   43.75    6.40
   7  -1   1   51.49    9.55
   7  -1   2    4.23    6.20
   7  -1   2   -2.09    2.62
   7  -1   3    7.37    2.50
   7  -1   3   -0.81    4.54
   7  -1   4   63.37   11.39
   7  -1   5   14.48    8.57
   7  -1   6   19.01    7.38
  -7   0   9   12.41    8.05
  -7   0   8  112.07   16.15
  -7   0   7  316.77   25.25
  -7   0   6   12.03    5.99
  -7   0   5   37.70    9.66
  -7   0   4    8.30    6.33
  -7   0   3  338.13   23.64
  -7   0   2   -4.41    6.09
  -7   0   1  165.12   16.45
   7   0   0    7.16    5.52
   7   0   1  102.39   13.03
   7   0   2   12.03    6.26
   7   0   3   15.41    3.39
   7   0   3   13.57    6.69
   7   0   4    3.48    5.29
   7   0   5    8.13    6.59
   7   0   6   20.99    9.06
  -7  -1   9   37.54   10.72
  -7  -1   8  434.65   30.86
  -7  -1   7   -1.66    5.52
  -7  -1   6    4.32    5.20
  -7  -1   5  120.52   14.56
  -7  -1   4  193.07   18.09
  -7  -1   3  418.85   26.14
  -7  -1   2   67.78   10.87
   7   1  -1   13.35    6.42
  -7  -1   1   22.34    7.14
   7   1   0    8.20    5.69
   7   1   1  486.24   27.58
   7   1   2    0.08    3.19
   7   1   2   -2.49    5.21
   7   1   3   -2.08    3.34
   7   1   3   14.22    6.70
   7   1   4    4.87    5.33
   7   1   5   27.34    7.98
  -7  -2   9   -3.59    5.59
  -7  -2   8    7.47    5.95
  -7  -2   7    9.92    6.82
  -7  -2   6  533.00   31.94
  -7  -2   5    1.33    4.86
  -7  -2   4   11.21    6.30
  -7  -2   3   20.33    7.35
  -7  -2   2  325.00   22.57
   7   2  -1   88.60   11.44
  -7  -2   1   96.34   12.19
   7   2   0    6.11    5.21
   7   2   1    8.73    5.78
   7   2   2    2.28    3.18
   7   2   2   -3.71    5.30
   7   2   3   70.94   11.21
   7   2   4   14.69    6.23
   7   2   5    9.65    6.10
  -7  -3   9   98.86   15.69
  -7  -3   8  331.87   26.65
  -7  -3   7   50.99   10.88
  -7  -3   6  101.36   14.16
  -7  -3   5    7.20    5.53
  -7  -3   4  261.43   20.91
  -7  -3   3   45.90    9.52
  -7  -3   2  172.44   16.16
   7   3  -1   19.43    6.23
   7   3   0   18.76    6.34
   7   3   1   25.33    6.75
   7   3   1   20.21    6.58
   7   3   2   18.17    5.44
   7   3   2   26.12    7.06
   7   3   3   18.45    6.84
   7   3   4   -1.33    5.19
  -7  -4   9  312.99   26.61
  -7  -4   8   58.97   12.42
  -7  -4   7   12.74    6.04
  -7  -4   6  179.29   17.93
  -7  -4   5  284.78   22.21
  -7  -4   4  206.43   18.43
  -7  -4   3   19.75    6.82
   7   4  -2   88.55   11.35
  -7  -4   2  111.07   12.96
   7   4  -1    6.45    5.42
   7   4   0  149.34   14.43
   7   4   0  142.31   14.32
   7   4   1   -3.34    4.80
   7   4   1    5.18    4.82
   7   4   2   13.25    5.71
   7   4   2    7.21    5.45
  -7  -5   9    8.62    7.51
  -7  -5   8    1.88    6.42
  -7  -5   7  140.70   16.70
  -7  -5   6  112.14   14.15
  -7  -5   5   27.46    8.33
  -7  -5   4    6.26    4.72
  -7  -5   3   41.03    8.67
   7   5  -2  132.56   13.37
   7   5  -1   21.19    7.43
   7   5  -1   20.74    6.26
   7   5   0   -3.23    5.22
   7   5   0   -2.34    3.93
   7   5   1   -7.28    6.34
   7   5   2   30.50    8.51
  -7  -6   9  197.38   21.26
  -7  -6   8   47.05   11.14
  -7  -6   7   37.48    9.34
  -7  -6   6    6.25    6.60
  -7  -6   5  123.61   14.56
  -7  -6   4   17.90    6.65
   7   6  -3   80.29   10.52
  -7  -6   3   82.88   11.23
   7   6  -2   47.91    9.74
   7   6  -2   25.82    6.30
   7   6  -1   22.44    7.55
   7   6   0   31.46    9.03
   7   6   1   25.54    9.43
  -7  -7   9   14.90    7.27
  -7  -7   8   -5.26    7.03
  -7  -7   7   73.22   12.91
  -7  -7   6   48.11   10.08
  -7  -7   5  108.35   13.75
  -7  -7   4    9.72    5.55
   7   7  -3   11.12    6.63
   7   7  -2   19.44    7.12
   7   7  -1   45.31   10.52
   7   7   0    9.67    7.34
  -7  -8   9   17.98    8.03
  -7  -8   8  123.87   15.96
  -7  -8   7   32.19    8.73
   8  -8   0   51.94   10.39
   8  -8   1   -2.98    5.27
   8  -8   2   27.77    7.72
   8  -8   3   12.34    6.81
   8  -7  -3  159.69   18.21
   8  -7  -2   23.65    8.13
   8  -7  -1   15.55    7.97
   8  -7   0   -4.46    7.13
   8  -7   1   57.31   11.24
   8  -7   2   26.23    8.78
   8  -7   3   36.32    9.78
   8  -7   4    3.85    6.20
  -8   6   4   12.71    6.90
  -8   6   3   53.17   10.95
   8  -6  -2   -8.95    6.83
   8  -6  -1  113.46   15.03
   8  -6   0   19.21    8.27
   8  -6   1  121.55   15.25
   8  -6   2   -2.85    6.21
   8  -6   3   13.44    7.47
   8  -6   4   -9.56    6.84
  -8   5   6  196.33   20.65
  -8   5   5   -7.92    7.26
  -8   5   4   -0.70    5.43
  -8   5   3   28.03    8.36
  -8   5   2  219.80   20.52
   8  -5  -1  143.24   16.70
   8  -5   0   11.16    6.14
   8  -5   1   45.84   10.79
   8  -5   2    2.17    6.44
   8  -5   3  196.92   20.37
   8  -5   4   -4.29    7.85
  -8   4   6   13.00    8.50
  -8   4   5   31.78    9.57
  -8   4   4  199.78   19.93
  -8   4   3    8.23    6.90
  -8   4   2   63.65   11.53
   8  -4  -1    7.09    5.36
   8  -4   0  105.16   14.26
   8  -4   1   35.69   10.18
   8  -4   2   44.21    9.81
   8  -4   3  -11.08    7.96
   8  -4   4    1.18    6.54
   8  -4   5   30.48   10.11
  -8   3   7   41.95   10.80
  -8   3   6   85.53   14.50
  -8   3   5  111.20   15.45
  -8   3   4   19.73    7.19
  -8   3   3   49.70   11.36
  -8   3   2  204.10   19.44
  -8   3   1    5.95    5.61
   8  -3  -1    8.40    5.90
   8  -3   0   88.58   13.44
   8  -3   1   -0.75    5.94
   8  -3   2    2.52    5.24
   8  -3   3   26.90    8.01
   8  -3   4   54.82   12.04
   8  -3   5   -1.27    6.33
  -8   2   7  428.93   31.46
  -8   2   6   14.74    6.85
  -8   2   5   31.12   10.33
  -8   2   4   49.10   10.52
  -8   2   3  351.84   25.79
  -8   2   2   94.56   13.35
   8  -2  -1  106.26   14.38
  -8   2   1  110.72   14.46
   8  -2   0    7.28    6.16
   8  -2   1   16.02    6.94
   8  -2   2  137.76   16.23
   8  -2   3    8.94    5.88
   8  -2   4   51.61   11.02
   8  -2   5    0.83    5.78
  -8   1   8    6.07    6.86
  -8   1   7   -6.97    7.10
  -8   1   6   57.36   11.99
  -8   1   5  179.50   19.29
  -8   1   4   21.04    8.78
  -8   1   3   43.48    9.55
  -8   1   2    7.60    5.46
   8  -1  -1   95.20   13.52
  -8   1   1   79.52   12.69
   8  -1   0   12.42    6.92
   8  -1   1   69.89   12.15
   8  -1   2    0.80    5.42
   8  -1   3   10.02    6.89
   8  -1   4   56.22   11.68
   8  -1   5    4.66    7.58
  -8   0   8   37.90   10.78
  -8   0   7   78.17   13.81
  -8   0   6  173.70   19.41
  -8   0   5  232.00   21.64
  -8   0   4    0.26    7.79
  -8   0   3  159.31   17.40
  -8   0   2   12.84    6.06
   8   0  -1  294.93   22.99
  -8   0   1  380.74   26.02
   8   0   0   22.43    8.31
   8   0   1   17.76    7.74
   8   0   2   -1.60    5.59
   8   0   3   53.71   10.88
   8   0   4   32.78   10.05
  -8  -1   8  373.22   29.60
  -8  -1   7    4.18    4.56
  -8  -1   6   37.43   10.28
  -8  -1   5   28.51    9.01
  -8  -1   4  241.70   21.72
  -8  -1   3  160.39   17.33
  -8  -1   2   17.16    6.22
   8   1  -1   42.51    9.52
   8   1   0    2.20    5.02
   8   1   1  223.46   20.13
   8   1   2    6.54    3.82
   8   1   2    1.07    5.65
   8   1   3    1.04    5.95
   8   1   4   12.71    8.40
  -8  -2   8   14.33    9.28
  -8  -2   7    6.36    7.35
  -8  -2   6  388.39   28.47
  -8  -2   5   34.62    9.05
  -8  -2   4   18.16    8.43
  -8  -2   3    8.68    6.52
  -8  -2   2   50.19   10.28
   8   2  -2   34.69    8.78
   8   2  -1   36.29    9.33
   8   2   0   17.24    6.85
   8   2   1   43.89    9.61
   8   2   1   31.97    6.68
   8   2   2   -2.14    6.14
   8   2   3   35.96    8.62
   8   2   4    5.73    7.35
  -8  -3   8  154.08   19.87
  -8  -3   7   61.06   12.45
  -8  -3   6   66.16   12.48
  -8  -3   5   -1.74    6.30
  -8  -3   4  116.69   15.69
  -8  -3   3    4.20    5.08
   8   3  -2   93.10   12.90
  -8  -3   2   99.02   14.04
   8   3  -1    9.47    5.69
   8   3   0    8.49    5.64
   8   3   1    0.49    4.51
   8   3   1   -1.46    5.80
   8   3   2   32.66    8.00
   8   3   3   21.29    7.69
  -8  -4   8   12.30    6.45
  -8  -4   7    7.93    7.23
  -8  -4   6   32.70    9.71
  -8  -4   5  143.26   17.24
  -8  -4   4   49.75   10.52
  -8  -4   3   38.59    9.20
   8   4  -2   12.69    6.43
   8   4  -1    6.49    4.94
   8   4   0   63.93   10.61
   8   4   0   62.15   10.38
   8   4   1    0.45    4.71
   8   4   1    4.51    5.69
  -8  -5   8   15.66    8.47
  -8  -5   7   61.66   12.41
  -8  -5   6   61.28   12.19
  -8  -5   5   51.63   10.95
  -8  -5   4   -3.81    5.53
   8   5  -3    6.16    5.09
  -8  -5   3   17.24    7.75
   8   5  -2   35.04    7.94
   8   5  -1   12.71    5.89
   8   5  -1   11.92    6.58
   8   5   0    7.00    6.03
   8   5   1    3.15    5.78
  -8  -6   8   69.48   12.92
  -8  -6   7   26.63    7.97
  -8  -6   6    7.16    5.26
  -8  -6   5   26.78    8.46
   8   6  -4   -5.32    5.41
  -8  -6   4   -6.45    6.92
   8   6  -3   56.10   10.23
   8   6  -2   -7.97    7.71
   8   6  -1    0.50    5.33
   8   6   0   -3.11    5.49
  -8  -7   8   -6.53    6.25
  -8  -7   7   -8.49    7.61
  -8  -7   6   35.00    9.49
  -8  -7   5   38.37    9.27
   9  -6  -2   -4.82    6.81
   9  -6  -1   25.45    9.42
   9  -6   0   37.46   10.59
   9  -6   1   81.51   14.60
  -9   5   4   -0.04    6.07
  -9   5   3   12.75    7.68
   9  -5  -2   82.29   13.60
   9  -5  -1   14.45    6.73
   9  -5   0   29.21    9.41
   9  -5   1    3.73    7.12
   9  -5   2   11.70    6.04
  -9   4   5    3.64    6.93
  -9   4   4   75.20   13.92
  -9   4   3    3.32    6.35
   9  -4  -2   72.24   13.08
  -9   4   2   71.89   13.13
   9  -4  -1    4.66    6.46
   9  -4   0   18.85    7.80
   9  -4   1    8.35    7.47
   9  -4   2   74.72   14.08
  -9   3   5  117.95   16.64
  -9   3   4   47.98   11.28
  -9   3   3   -1.73    7.60
  -9   3   2   15.01    9.78
   9  -3  -1   29.63    9.08
   9  -3   0  185.21   20.05
   9  -3   1   15.42    8.06
   9  -3   2   -2.79    6.23
   9  -3   3    1.46    6.31
  -9   2   6   -3.32    7.30
  -9   2   5   -0.27    6.76
  -9   2   4   15.05    8.35
  -9   2   3  193.80   20.73
  -9   2   2   21.62    9.33
   9  -2  -1   36.51   10.03
   9  -2   0   12.59    8.42
   9  -2   1   32.91    8.73
   9  -2   2   52.54   11.94
   9  -2   3    7.17    6.36
  -9   1   6   11.28    7.87
  -9   1   5  100.53   15.70
  -9   1   4    7.93    6.37
  -9   1   3  138.05   17.98
  -9   1   2   62.31   12.36
   9  -1  -1   52.47   10.51
   9  -1   0   54.77   11.89
   9  -1   1   10.65    7.21
   9  -1   2   15.34    7.42
   9  -1   3   -1.09    6.22
  -9   0   7   26.51    9.40
  -9   0   6   70.45   12.99
  -9   0   5   28.62   10.86
  -9   0   4   13.68    6.80
  -9   0   3   49.62   11.83
   9   0  -2   -0.16    5.62
  -9   0   2    7.20    7.15
   9   0  -1   43.75   10.51
   9   0   0   -8.50    7.44
   9   0   1   15.20    7.88
   9   0   2    4.30    6.29
   9   0   3   -2.96    5.70
  -9  -1   7    1.65    5.33
  -9  -1   6    7.31    8.10
  -9  -1   5   -4.86    6.50
  -9  -1   4   77.57   13.53
  -9  -1   3   72.94   13.22
   9   1  -2   38.60    9.96
  -9  -1   2   24.61    8.88
   9   1  -1   -2.43    5.42
   9   1   0  -14.31    8.32
   9   1   1   94.57   14.56
   9   1   2   -3.31    7.05
   9   1   3   15.68    7.87
  -9  -2   7    2.07    6.46
  -9  -2   6   43.98   10.97
  -9  -2   5  -11.20    8.95
  -9  -2   4   71.09   12.86
  -9  -2   3   22.97    8.63
  -9  -2   2   -2.60    4.96
   9   2  -2    5.24    5.14
   9   2  -1   -6.76    5.86
   9   2   0   14.66    8.14
   9   2   1   16.97    7.17
   9   2   2    8.76    6.23
  -9  -3   7  111.56   16.97
  -9  -3   6   70.96   13.87
  -9  -3   5    5.47    6.68
  -9  -3   4    9.34    6.34
   9   3  -3   -1.00    6.07
  -9  -3   3    1.72    5.40
   9   3  -2   81.24   12.71
   9   3  -1    7.52    6.54
   9   3   0    2.97    6.45
   9   3   0   -2.08    4.55
   9   3   1  -29.87    8.90
   9   3   2    9.59    5.33
  -9  -4   7    1.62    8.43
  -9  -4   6    8.44    6.14
  -9  -4   5   89.16   15.17
  -9  -4   4   54.37   11.05
  -9  -4   3    1.36    4.92
   9   4  -3   31.37    9.42
   9   4  -2   -7.87    5.54
   9   4  -1   -6.72    6.26
   9   4   0    0.40    5.11
   9   4   0    6.47    6.99
  -9  -5   7   47.03   11.07
  -9  -5   6    8.36    7.36
  -9  -5   5   77.30   14.17
   9   5  -4    9.52    6.96
  -9  -5   4    6.54    6.05
   9   5  -3    3.17    5.45
   9   5  -2   26.87    7.62
   9   5  -1   20.89    7.48
   9   5   0    7.83    5.99
  -9  -6   7    0.72    6.40
  -9  -6   6    5.20    6.50
  -9  -6   5   16.21    8.03
  -9  -6   4   -9.19    7.08
 -10   2   3  123.91   18.41
  10  -2  -2   15.95    8.76
  10  -2  -1   51.73   11.76
  10  -2   0    6.17    7.38
 -10   1   4   -1.75    7.31
 -10   1   3   59.96   13.57
  10  -1  -2   -4.06    7.56
  10  -1  -1    9.15    7.30
  10  -1   0    9.06    8.83
 -10   0   4   10.40    8.20
 -10   0   3   11.20    7.60
  10   0  -2   10.88    6.84
  10   0  -1   40.13   10.23
  10   0   0    6.30    7.77
 -10  -1   4   24.49    9.50
  10   1  -3   12.08    7.47
 -10  -1   3   23.58   10.48
  10   1  -2   67.08   13.41
  10   1  -1   16.27    7.67
  10   1   0   11.84    8.79
 -10  -2   4   53.07   12.00
  10   2  -3   11.11    6.29
 -10  -2   3    4.99    5.69
  10   2  -2   19.11    9.51
  10   2  -1   25.85    9.19
  10   2   0   24.37    9.27
 -10  -3   4   20.46    8.90
 -10  -3   3    4.40    7.29
  10   3  -3    6.92    6.20
  10   3  -2   10.42    6.59
  10   3  -1   -0.09    5.02
  10   3   0  -12.09    8.90
  10   4  -4    5.74    6.28
 -10  -4   4   11.84    7.64
  10   4  -3    2.35    6.50
  10   4  -2   -3.98    6.87
  10   4  -1    6.30    7.22
  10   5  -4  -10.15    7.01
 -10  -5   4    2.59    5.43
   0   0   0    0.00    0.00
;
_shelx_hkl_checksum              11205
_olex2_submission_special_instructions 'No special instructions were received'
#END Tags that were not found in dictionaries
loop_
_space_group_symop_operation_xyz
'x, y, z'
'-x, -y, -z'
loop_
_atom_site_label
_atom_site_type_symbol
_atom_site_fract_x
_atom_site_fract_y
_atom_site_fract_z
_atom_site_U_iso_or_equiv
_atom_site_adp_type
_atom_site_occupancy
_atom_site_site_symmetry_order
_atom_site_calc_flag
_atom_site_refinement_flags_posn
Br1 Br 0.51016(6) 0.72985(4) 0.16383(5) 0.03574(14) Uani 1 1 d .
Br2 Br 0.43255(6) 1.12789(4) 0.37813(5) 0.03488(14) Uani 1 1 d .
O1 O 0.5584(4) 1.4569(3) 0.2865(3) 0.0341(7) Uani 1 1 d .
C4 C 0.4332(5) 1.3496(4) 0.1919(4) 0.0240(8) Uani 1 1 d .
O2 O 0.2835(4) 1.3747(3) 0.1684(3) 0.0361(7) Uani 1 1 d .
C6 C 0.4708(4) 1.0525(4) 0.1595(4) 0.0208(7) Uani 1 1 d .
C7 C 0.5043(5) 0.8872(4) 0.0704(4) 0.0221(8) Uani 1 1 d .
C8 C 0.4680(4) 1.1676(4) 0.0903(4) 0.0203(7) Uani 1 1 d .
N2 N 0.8177(4) 1.3578(4) 0.4394(4) 0.0355(8) Uani 1 1 d .
H2 H 0.7504 1.4055 0.3907 0.043 Uiso 1 1 calc R
N1 N 0.8367(5) 1.3827(4) 0.5995(5) 0.0370(9) Uani 1 1 d .
C11 C 0.9511(6) 1.2896(5) 0.6331(5) 0.0420(11) Uani 1 1 d .
C13 C 0.9192(5) 1.2475(5) 0.3666(5) 0.0372(10) Uani 1 1 d .
C14 C 0.9233(6) 1.1918(6) 0.1874(6) 0.0569(13) Uani 1 1 d .
H14A H 0.8812 1.0728 0.1230 0.085 Uiso 1 1 calc GR
H14B H 1.0372 1.2105 0.1809 0.085 Uiso 1 1 calc GR
H14C H 0.8541 1.2560 0.1420 0.085 Uiso 1 1 calc GR
C17 C 1.0062(6) 1.2039(5) 0.4885(6) 0.0464(12) Uani 1 1 d .
H17 H 1.0874 1.1300 0.4751 0.056 Uiso 1 1 calc R
C19 C 0.9977(8) 1.2908(7) 0.8024(6) 0.0708(17) Uani 1 1 d .
H19A H 1.0934 1.3752 0.8727 0.106 Uiso 1 1 calc GR
H19B H 1.0255 1.1807 0.7892 0.106 Uiso 1 1 calc GR
H19C H 0.9044 1.3171 0.8545 0.106 Uiso 1 1 calc GR
H1 H 0.786(5) 1.456(5) 0.672(5) 0.041(12) Uiso 1 1 d .
loop_
_atom_site_aniso_label
_atom_site_aniso_U_11
_atom_site_aniso_U_22
_atom_site_aniso_U_33
_atom_site_aniso_U_23
_atom_site_aniso_U_13
_atom_site_aniso_U_12
Br1 0.0668(3) 0.0228(2) 0.0291(2) 0.01683(16) 0.0223(2) 0.01452(17)
Br2 0.0599(3) 0.0298(2) 0.0221(2) 0.01159(16) 0.02339(19) 0.01376(18)
O1 0.0460(19) 0.0188(13) 0.0286(15) 0.0062(11) 0.0003(13) 0.0073(11)
C4 0.041(2) 0.0214(18) 0.0136(18) 0.0089(14) 0.0125(17) 0.0139(16)
O2 0.0394(18) 0.0325(14) 0.0359(16) 0.0116(12) 0.0144(14) 0.0199(12)
C6 0.027(2) 0.0238(17) 0.0152(17) 0.0092(13) 0.0115(15) 0.0070(14)
C7 0.034(2) 0.0157(16) 0.0196(18) 0.0094(14) 0.0086(16) 0.0051(14)
C8 0.026(2) 0.0150(16) 0.0197(18) 0.0066(13) 0.0075(15) 0.0052(13)
N2 0.035(2) 0.0352(18) 0.033(2) 0.0127(15) 0.0067(16) 0.0108(14)
N1 0.037(2) 0.0340(18) 0.032(2) 0.0059(15) 0.0102(17) 0.0150(15)
C11 0.039(3) 0.045(2) 0.034(2) 0.0101(19) 0.006(2) 0.0211(19)
C13 0.030(2) 0.036(2) 0.036(2) 0.0051(18) 0.0128(19) 0.0023(17)
C14 0.046(3) 0.068(3) 0.045(3) 0.011(2) 0.019(2) 0.002(2)
C17 0.039(3) 0.051(3) 0.040(3) 0.009(2) 0.012(2) 0.024(2)
C19 0.080(4) 0.090(4) 0.039(3) 0.026(3) 0.009(3) 0.046(3)
loop_
_atom_type_symbol
_atom_type_description
_atom_type_scat_dispersion_real
_atom_type_scat_dispersion_imag
_atom_type_scat_source
C C 0.0033 0.0016 'International Tables Vol C Tables 4.2.6.8 and 6.1.1.4'
H H 0.0000 0.0000 'International Tables Vol C Tables 4.2.6.8 and 6.1.1.4'
Br Br -0.2901 2.4595 'International Tables Vol C Tables 4.2.6.8 and 6.1.1.4'
N N 0.0061 0.0033 'International Tables Vol C Tables 4.2.6.8 and 6.1.1.4'
O O 0.0106 0.0060 'International Tables Vol C Tables 4.2.6.8 and 6.1.1.4'
loop_
_geom_angle_atom_site_label_1
_geom_angle_atom_site_label_2
_geom_angle_atom_site_label_3
_geom_angle
_geom_angle_site_symmetry_1
O1 C4 C8 116.6(3) .
O2 C4 O1 127.2(3) .
O2 C4 C8 116.2(3) .
C7 C6 Br2 121.0(2) .
C7 C6 C8 120.6(3) .
C8 C6 Br2 118.4(2) .
C6 C7 Br1 121.0(3) .
C8 C7 Br1 118.2(2) 2_675
C8 C7 C6 120.7(3) 2_675
C6 C8 C4 119.6(3) .
C7 C8 C4 121.7(3) 2_675
C7 C8 C6 118.6(3) 2_675
C13 N2 N1 109.6(3) .
C11 N1 N2 109.3(4) .
N1 C11 C17 107.1(4) .
N1 C11 C19 121.3(4) .
C17 C11 C19 131.6(4) .
N2 C13 C14 122.0(4) .
N2 C13 C17 106.5(4) .
C17 C13 C14 131.4(4) .
C11 C17 C13 107.5(4) .
loop_
_geom_bond_atom_site_label_1
_geom_bond_atom_site_label_2
_geom_bond_distance
_geom_bond_site_symmetry_2
Br1 C7 1.896(3) .
Br2 C6 1.886(3) .
O1 C4 1.247(5) .
C4 O2 1.240(4) .
C4 C8 1.531(4) .
C6 C7 1.391(4) .
C6 C8 1.394(4) .
C7 C8 1.385(5) 2_675
C8 C7 1.385(5) 2_675
N2 N1 1.335(5) .
N2 C13 1.333(5) .
N1 C11 1.330(5) .
C11 C17 1.373(6) .
C11 C19 1.486(7) .
C13 C14 1.479(6) .
C13 C17 1.380(6) .
