#------------------------------------------------------------------------------
#$Date: 2016-03-26 22:36:24 +0200 (Sat, 26 Mar 2016) $
#$Revision: 180512 $
#$URL: svn://www.crystallography.net/cod/cif/7/21/81/7218147.cif $
#------------------------------------------------------------------------------
#
# This file is available in the Crystallography Open Database (COD),
# http://www.crystallography.net/
#
# All data on this site have been placed in the public domain by the
# contributors.
#
data_7218147
loop_
_publ_author_name
'Wang, Lei'
'Hu, Yanjing'
'Xu, Wenyan'
'pang, Yanyan'
'Liu, Faqian'
'Yang, Yu'
_publ_section_title
;
 Investigation of Hydrogen Bonding Patterns in A Series of Multi-component
 Molecular Solids Formed by Tetrabromoterephthalic Acid with Selected
 N-heterocycles
;
_journal_name_full               'RSC Adv.'
_journal_paper_doi               10.1039/C4RA08452G
_journal_year                    2014
_chemical_formula_moiety         'C8 H2 Br4 O4, C20 H10 Br4 N4 O4'
_chemical_formula_sum            'C28 H10 Br8 N4 O8'
_chemical_formula_weight         1169.60
_chemical_name_systematic
;
 ?
;
_space_group_crystal_system      triclinic
_space_group_IT_number           2
_space_group_name_Hall           '-P 1'
_space_group_name_H-M_alt        'P -1'
_symmetry_space_group_name_Hall  '-P 1'
_symmetry_space_group_name_H-M   'P -1'
_atom_sites_solution_hydrogens   mixed
_audit_creation_date             2014-09-04
_audit_creation_method
;
Olex2 1.2
(compiled 2014.07.22 svn.r2960 for OlexSys, GUI svn.r4862)
;
_cell_angle_alpha                105.180(7)
_cell_angle_beta                 109.306(6)
_cell_angle_gamma                96.573(6)
_cell_formula_units_Z            1
_cell_length_a                   8.8990(5)
_cell_length_b                   9.0236(7)
_cell_length_c                   12.0472(8)
_cell_measurement_reflns_used    2200
_cell_measurement_temperature    293(2)
_cell_measurement_theta_max      28.2140
_cell_measurement_theta_min      2.5750
_cell_volume                     859.41(12)
_computing_cell_refinement
;
CrysAlisPro, Agilent Technologies,
Version 1.171.36.28 (release 01-02-2013 CrysAlis171 .NET)
(compiled Feb  1 2013,16:14:44)
;
_computing_data_collection
;
CrysAlisPro, Agilent Technologies,
Version 1.171.36.28 (release 01-02-2013 CrysAlis171 .NET)
(compiled Feb  1 2013,16:14:44)
;
_computing_data_reduction
;
CrysAlisPro, Agilent Technologies,
Version 1.171.36.28 (release 01-02-2013 CrysAlis171 .NET)
(compiled Feb  1 2013,16:14:44)
;
_computing_molecular_graphics    'Olex2 (Dolomanov et al., 2009)'
_computing_publication_material  'Olex2 (Dolomanov et al., 2009)'
_computing_structure_refinement  'ShelXL (Sheldrick, 2008)'
_diffrn_ambient_temperature      293(2)
_diffrn_measured_fraction_theta_full 0.999
_diffrn_measured_fraction_theta_max 0.999
_diffrn_measurement_device_type  'multiwire proportional'
_diffrn_measurement_method       'phi and omega scans'
_diffrn_radiation_monochromator  graphite
_diffrn_radiation_type           MoK\a
_diffrn_radiation_wavelength     0.71073
_diffrn_reflns_av_R_equivalents  0.0419
_diffrn_reflns_av_unetI/netI     0.0806
_diffrn_reflns_Laue_measured_fraction_full 0.999
_diffrn_reflns_Laue_measured_fraction_max 0.999
_diffrn_reflns_limit_h_max       10
_diffrn_reflns_limit_h_min       -11
_diffrn_reflns_limit_k_max       8
_diffrn_reflns_limit_k_min       -11
_diffrn_reflns_limit_l_max       15
_diffrn_reflns_limit_l_min       -14
_diffrn_reflns_number            6165
_diffrn_reflns_point_group_measured_fraction_full 0.999
_diffrn_reflns_point_group_measured_fraction_max 0.999
_diffrn_reflns_theta_full        25.242
_diffrn_reflns_theta_max         26.499
_diffrn_reflns_theta_min         2.486
_exptl_absorpt_coefficient_mu    9.386
_exptl_absorpt_correction_T_max  1.0000
_exptl_absorpt_correction_T_min  0.5284
_exptl_absorpt_correction_type   multi-scan
_exptl_absorpt_process_details
;
CrysAlisPro, Agilent Technologies,
Version 1.171.36.28 (release 01-02-2013 CrysAlis171 .NET)
(compiled Feb  1 2013,16:14:44)
SADABS v.2.10 (Bruker,2003) was used for absorption correction.
R(int) for selected reflections was 0.1079 before and 0.0236 after
correction. The Ratio of minimum to maximum transmission is 0.42976.
The \l/2 correction factor is 0.0015
;
_exptl_crystal_colour            colourless
_exptl_crystal_density_diffrn    2.260
_exptl_crystal_density_method    'not measured'
_exptl_crystal_description       block
_exptl_crystal_F_000             550
_exptl_crystal_size_max          0.25
_exptl_crystal_size_mid          0.18
_exptl_crystal_size_min          0.16
_refine_diff_density_max         2.085
_refine_diff_density_min         -1.939
_refine_diff_density_rms         0.280
_refine_ls_extinction_method     none
_refine_ls_goodness_of_fit_ref   1.042
_refine_ls_hydrogen_treatment    mixed
_refine_ls_matrix_type           full
_refine_ls_number_parameters     222
_refine_ls_number_reflns         3556
_refine_ls_number_restraints     0
_refine_ls_restrained_S_all      1.042
_refine_ls_R_factor_all          0.0868
_refine_ls_R_factor_gt           0.0580
_refine_ls_shift/su_max          0.000
_refine_ls_shift/su_mean         0.000
_refine_ls_structure_factor_coef Fsqd
_refine_ls_weighting_details
;
 w=1/[\s^2^(Fo^2^)+(0.0841P)^2^]
 where P=(Fo^2^+2Fc^2^)/3
;
_refine_ls_weighting_scheme      calc
_refine_ls_wR_factor_gt          0.1419
_refine_ls_wR_factor_ref         0.1581
_reflns_Friedel_coverage         0.000
_reflns_number_gt                2594
_reflns_number_total             3556
_reflns_threshold_expression     'I > 2\s(I)'
_cod_data_source_file            c4ra08452g2.cif
_cod_data_source_block           w1
_cod_original_cell_volume        859.41(11)
_cod_database_code               7218147
#BEGIN Tags that were not found in dictionaries:
_shelxl_version_number           2013-2
_shelx_space_group_comment
;
The symmetry employed for this shelxl refinement is uniquely defined
by the following loop, which should always be used as a source of
symmetry information in preference to the above space-group names.
They are only intended as comments.
;
_olex2_refinement_description
;
1. Fixed Uiso
 At 1.2 times of:
  All C(H) groups
 At 1.5 times of:
  All O(H) groups
2.a Aromatic/amide H refined with riding coordinates:
 C21(H21), C30(H30), C31(H31), C32(H32)
2.b Idealised tetrahedral OH refined as rotating group:
 O4(H4)
;
_shelx_res_file
;
TITL w1 in P-1 P-1
CELL 0.71073 8.899 9.0236 12.0472 105.18 109.306 96.573
ZERR 1 0.0005 0.0007 0.0008 0.007 0.006 0.006
LATT 1

SFAC  C 2.310 20.844 1.02 10.208 1.589 0.569 0.865 51.651 0.216 0.003 0.002 =
 11.5 0.68 12.01
SFAC  H 0.493 10.511 0.323 26.126 0.14 3.142 0.041 57.8 0.003 0 0 0.624 0.35 =
 1.008
SFAC  Br 17.179 2.172 5.236 16.58 5.638 0.261 3.985 41.433 2.956 -0.29 2.46 =
 10000 1.21 79.9
SFAC  N 12.213 0.006 3.132 9.893 2.013 28.998 1.166 0.583 -11.529 0.006 =
 0.003 19.6 0.68 14.01
SFAC  O 3.049 13.277 2.287 5.701 1.546 0.324 0.867 32.909 0.251 0.011 0.006 =
 32.5 0.68 16
UNIT 28 10 8 4 8

L.S. 5
PLAN  20
BOND $H
fmap 2 53
acta
OMIT -3 53
REM <HKL>C:/Users/lenovo/Desktop/hu%20rsc/D-HNSF-27-11BA/struct/tmp-8/W1.hkl</
REM HKL>

WGHT    0.084100
FVAR       0.17411
BR2   3    0.837754    0.782892   -0.079033    11.00000    0.04370    0.02108 =
         0.03222    0.01434    0.00513    0.01205
BR4   3    0.664258    0.407545   -0.247021    11.00000    0.03103    0.02976 =
         0.02379    0.00614   -0.00537    0.00160
O3    5    1.242605    0.910307    0.132967    11.00000    0.05127    0.02239 =
         0.05640    0.00766    0.02206   -0.00597
O4    5    1.077973    0.867618    0.232201    11.00000    0.05378    0.01569 =
         0.02959   -0.00294    0.01496   -0.00088
AFIX 147
H4    2    1.123607    0.957701    0.278184    11.00000   -1.50000
AFIX   0
C7    1    0.857865    0.463103   -0.104645    11.00000    0.02175    0.01796 =
         0.01730    0.00709    0.00492   -0.00301
C9    1    0.928275    0.619447   -0.033128    11.00000    0.02998    0.01460 =
         0.01589    0.01003    0.00865    0.00797
C12   1    1.069017    0.654823    0.071137    11.00000    0.03093    0.01825 =
         0.01919    0.00370    0.00704   -0.00404
C24   1    1.143886    0.826948    0.149865    11.00000    0.03150    0.01823 =
         0.02821    0.01140    0.00539    0.00549

BR1   3    0.549283    0.284136    0.385199    11.00000    0.03364    0.03083 =
         0.04996    0.03286    0.01807    0.01312
BR3   3    0.806086    0.040711    0.410545    11.00000    0.02829    0.03931 =
         0.05095    0.02901    0.02465    0.01586
O1    5    0.144153    0.150315    0.371721    11.00000    0.02673    0.02343 =
         0.02214    0.00173   -0.00442    0.01310
O2    5    0.301627    0.335104    0.550860    11.00000    0.03686    0.01741 =
         0.03238   -0.00074    0.00635    0.01025
C3    1    0.392029    0.101863    0.488787    11.00000    0.01426    0.01188 =
         0.01853    0.00531   -0.00073    0.00934
C5    1    0.627557    0.018609    0.461320    11.00000    0.01450    0.01796 =
         0.02477    0.01070    0.00784    0.00453
C6    1    0.521404    0.117975    0.448538    11.00000    0.01436    0.01123 =
         0.01679    0.00899   -0.00024    0.00066
C8    1    0.273843    0.209556    0.472681    11.00000    0.01464    0.01509 =
         0.02532    0.01329    0.01141    0.00769
N1    4    0.963158    0.334730    0.297236    11.00000    0.03404    0.03177 =
         0.03424    0.02091    0.01070    0.01333
N2    4    0.613792    0.704252    0.104156    11.00000    0.05855    0.07851 =
         0.06951    0.04818    0.01911    0.04087
C13   1    0.782128    0.523469    0.201087    11.00000    0.03382    0.04825 =
         0.03745    0.03132    0.01934    0.02375
C21   1    1.010161    0.488771    0.353133    11.00000    0.03429    0.03434 =
         0.02972    0.01562    0.01045    0.01637
AFIX  43
H21   2    1.104476    0.530095    0.424406    11.00000   -1.20000
AFIX   0
C27   1    0.685009    0.620681    0.145477    11.00000    0.04711    0.05796 =
         0.04834    0.03534    0.02174    0.02758
C30   1    0.921182    0.586994    0.306843    11.00000    0.04002    0.02608 =
         0.03139    0.01269    0.00853    0.01265
AFIX  43
H30   2    0.953759    0.695294    0.346003    11.00000   -1.20000
AFIX   0
C31   1    0.827891    0.274292    0.195545    11.00000    0.04418    0.03386 =
         0.04091    0.01370    0.00628    0.00736
AFIX  43
H31   2    0.798169    0.165666    0.157916    11.00000   -1.20000
AFIX   0
C32   1    0.731467    0.363641    0.144288    11.00000    0.03119    0.04725 =
         0.03741    0.02326   -0.00507    0.00962
AFIX  43
H32   2    0.636007    0.318972    0.074312    11.00000   -1.20000
AFIX   0
H1    2    1.063831    0.271768    0.342000    11.00000    0.03930
HKLF 4

REM  w1 in P-1 P-1
REM R1 =  0.0580 for    2594 Fo > 4sig(Fo)  and  0.0868 for all    3556 data
REM    222 parameters refined using      0 restraints

END

WGHT      0.0837      0.0000

REM Highest difference peak  2.085,  deepest hole -1.939,  1-sigma level  0.280
Q1    1   0.5053 -0.0122  0.0213  11.00000  0.05    2.09
Q2    1   0.5209  0.4836  0.5410  11.00000  0.05    0.91
Q3    1   0.6594  0.6230 -0.0958  11.00000  0.05    0.91
Q4    1   0.9442  0.0003  0.4793  11.00000  0.05    0.84
Q5    1   0.4530  0.4100  0.3858  11.00000  0.05    0.79
Q6    1   0.5866  0.6362 -0.1760  11.00000  0.05    0.77
Q7    1   0.7407  0.2189  0.4383  11.00000  0.05    0.77
Q8    1   0.9195 -0.0517  0.4382  11.00000  0.05    0.76
Q9    1   0.7147  0.6482  0.0327  11.00000  0.05    0.74
Q10   1   0.6610  0.2086  0.5983  11.00000  0.05    0.74
Q11   1   0.8169  0.1560  0.4192  11.00000  0.05    0.73
Q12   1   0.5248  0.1859  0.1762  11.00000  0.05    0.70
Q13   1   0.8570  0.8144  0.4232  11.00000  0.05    0.68
Q14   1   0.5759  0.3418 -0.4320  11.00000  0.05    0.68
Q15   1   0.7267  0.8873 -0.1074  11.00000  0.05    0.68
Q16   1   0.8811 -0.0921  0.4813  11.00000  0.05    0.67
Q17   1   0.8417  0.8730  0.1437  11.00000  0.05    0.66
Q18   1   0.4936  0.3403  0.1343  11.00000  0.05    0.65
Q19   1   0.7244  0.2893 -0.3867  11.00000  0.05    0.65
Q20   1   0.9484  0.8378  0.4636  11.00000  0.05    0.65
;
_shelx_res_checksum              47196
_shelx_hkl_file
;
   0   0   2   13.01    0.75
   0   0  -2   14.44    1.15
   0   0   3    3.47    0.47
   0   0   3    4.05    0.75
   0   0  -3    3.49    0.83
   0   0   3    2.87    0.44
   0   0   4  123.55    3.01
   0   0   4  121.41    4.55
   0   0   4  117.79    3.09
   0   0  -4  123.03    4.76
   0   0  -5   24.21    2.43
   0   0   5   22.19    2.24
   0   0   5   23.56    1.54
   0   0   5   25.30    1.53
   0   0  -6  392.30   10.44
   0   0   6  390.37    6.86
   0   0   6  403.32    6.63
   0   0   7   25.78    1.88
   0   0  -7   26.33    3.18
   0   0   7   25.34    1.97
   0   0   7   24.96    2.82
   0   0   8   29.39    2.17
   0   0  -8   28.81    3.67
   0   0   8   28.05    3.21
   0   0   8   30.84    2.34
   0   0   9   15.45    1.74
   0   0   9   14.49    1.65
   0   0  -9   14.52    2.93
   0   0  10    0.72    0.67
   0   0 -10    0.39    1.62
   0   0  10   -0.03    0.61
   0   0 -11    1.28    1.82
   0   0  11   -0.15    0.67
   0   0 -12   19.10    3.97
   0   0 -13   21.08    4.66
   0   0 -14    2.41    2.66
   0   1 -15   11.39    4.55
   0   1 -14    9.75    3.80
   0   1 -13    0.89    2.25
   0   1 -12    0.76    1.87
   0  -1  11    6.78    1.41
   0   1 -11    3.50    1.90
   0   1 -10   11.46    2.89
   0  -1  10   11.15    1.72
   0  -1  10    7.80    1.42
   0  -1   9   71.57    3.86
   0   1  -9   75.78    5.95
   0  -1   9   76.48    3.69
   0  -1   8   24.13    1.95
   0   1  -8   28.07    3.40
   0  -1   8   23.49    2.10
   0  -1   7    1.34    0.51
   0   1  -7    1.95    1.09
   0  -1   6   75.69    2.98
   0   1  -6   68.85    3.04
   0   1  -6   77.90    4.54
   0  -1   5    6.77    0.85
   0   1  -5    6.28    1.29
   0   1  -5    5.90    0.91
   0   1  -4   23.90    1.46
   0   1  -4   25.39    2.05
   0  -1   4   23.13    1.39
   0  -1   3  378.02    5.36
   0   1  -3  386.95    5.41
   0   1  -2   52.53    1.99
   0   1  -1   29.05    1.70
   0  -1  -1  230.81    3.37
   0  -1  -1  223.58    4.80
   0   1   1  233.30    3.44
   0  -1  -2  485.06    5.28
   0  -1  -2  485.96    8.06
   0  -1  -3  485.54    5.87
   0  -1  -3  471.30    9.08
   0  -1  -4  167.52    4.08
   0   1   4  157.55    3.55
   0   1   4  160.30    6.13
   0  -1  -4  166.21    5.99
   0   1   5   41.61    3.44
   0  -1  -5   41.72    3.42
   0   1   5   40.12    2.00
   0   1   6   63.30    2.82
   0   1   6   67.86    4.64
   0  -1  -6   70.74    4.71
   0   1   6   63.32    2.77
   0  -1  -7   18.58    2.87
   0   1   7   19.17    2.76
   0   1   7   21.27    1.80
   0   1   7   18.51    1.63
   0   1   8   23.64    2.08
   0   1   8   20.90    1.86
   0  -1  -8   23.43    3.34
   0   1   9   24.93    2.21
   0   1   9   20.61    2.00
   0  -1  -9   19.99    3.41
   0   1  10  114.25    4.73
   0  -1 -10  103.63    7.77
   0   1  10   99.03    4.31
   0  -1 -11   15.16    3.59
   0  -1 -12    1.88    2.12
   0  -1 -13    1.75    2.26
   0   2 -15    4.18    3.08
   0   2 -14    2.45    2.26
   0   2 -13    2.51    2.24
   0   2 -12    4.75    2.91
   0   2 -11  124.98    8.91
   0  -2  11  105.85    5.32
   0  -2  10   10.14    1.64
   0  -2  10   10.71    1.73
   0   2 -10   12.87    2.91
   0   2  -9   26.15    3.59
   0  -2   9   25.29    2.41
   0   2  -8   13.64    2.45
   0   2  -8   12.22    1.65
   0  -2   8   13.56    1.79
   0   2  -7   31.50    3.19
   0   2  -7   26.19    2.32
   0  -2   7   26.89    2.21
   0  -2   6    3.86    0.93
   0   2  -6    3.08    1.12
   0   2  -6    3.94    0.88
   0   2  -5  404.81    9.48
   0   2  -5  400.36    7.88
   0  -2   5  378.54    7.78
   0  -2   4   84.97    3.65
   0   2  -4   83.72    3.63
   0   2  -3    1.81    0.80
   0  -2   3   -0.34    0.87
   0   2  -2   89.06    4.27
   0   2  -1    2.41    0.62
   0   2   0   36.00    2.39
   0  -2  -1  313.22    6.12
   0  -2  -1  297.18    7.74
   0   2   1  316.45    6.19
   0  -2  -2    9.79    1.00
   0   2   2    9.92    1.00
   0  -2  -2   11.43    1.76
   0   2   3   33.88    1.92
   0  -2  -3   34.51    1.98
   0  -2  -3   37.83    2.98
   0   2   4   78.88    3.06
   0  -2  -4   86.43    4.84
   0  -2  -4   79.61    3.22
   0   2   4   86.69    5.26
   0   2   5   48.90    4.32
   0   2   5   46.30    2.48
   0  -2  -5   49.64    2.72
   0  -2  -5   50.90    4.08
   0  -2  -6    7.13    2.03
   0  -2  -6    4.83    1.05
   0   2   6    5.50    1.01
   0   2   6    6.87    2.04
   0   2   7  136.16    4.74
   0  -2  -7  148.13    7.88
   0   2   8   34.11    2.57
   0  -2  -8   33.58    4.27
   0   2   8   33.41    2.66
   0   2   9    8.55    1.44
   0  -2  -9    7.97    2.64
   0  -2 -10    0.01    1.62
   0  -2 -11    3.38    2.45
   0  -2 -12    6.58    3.14
   0  -2 -13   33.07    6.08
   0   3 -15    4.48    2.70
   0   3 -14   38.73    6.46
   0   3 -13   11.27    3.91
   0   3 -12    5.05    2.85
   0   3 -11    1.00    1.73
   0   3 -10   78.92    6.61
   0   3 -10   66.14    4.64
   0   3  -9   44.71    3.68
   0   3  -9   52.85    5.02
   0   3  -8   64.91    4.15
   0   3  -8   78.44    5.80
   0   3  -7  346.64    9.43
   0   3  -7  367.63   11.40
   0  -3   7  341.21    9.24
   0  -3   6  100.57    4.90
   0   3  -6  102.59    5.17
   0  -3   5   19.75    2.16
   0   3  -5   23.42    2.50
   0  -3   4  158.68    6.40
   0   3  -4  135.56    6.13
   0   3  -3   86.59    5.11
   0   3  -2   31.08    3.03
   0   3  -1  623.42   12.25
   0   3   0   89.40    4.45
   0  -3   0   84.53    4.52
   0  -3  -1   60.47    4.34
   0   3   1   56.12    3.34
   0  -3  -1   53.01    3.35
   0  -3  -2  106.49    5.68
   0   3   2   95.32    4.22
   0  -3  -2   95.43    4.15
   0  -3  -3    0.93    0.59
   0   3   3   -0.55    0.74
   0  -3  -4   22.02    2.97
   0   3   4   17.57    1.77
   0   3   4   25.91    3.91
   0  -3  -4   19.08    2.00
   0   3   5  143.28    5.20
   0   3   5  152.60    8.83
   0  -3  -5  151.60    7.61
   0  -3  -5  145.30    5.38
   0  -3  -6    1.38    0.88
   0   3   6    0.28    0.60
   0  -3  -7    5.10    1.44
   0   3   7    4.07    1.04
   0  -3  -8   12.88    3.32
   0   3   8    9.78    1.59
   0  -3  -9    3.06    2.25
   0  -3 -10   10.66    3.37
   0  -3 -11   25.60    4.82
   0  -3 -12    7.84    3.22
   0   4 -15    0.70    2.63
   0   4 -14    1.10    3.04
   0  -4  13   18.86    3.05
   0   4 -13   22.62    4.97
   0   4 -12    8.17    3.07
   0  -4  12    7.87    2.22
   0   4 -11   29.75    4.57
   0   4 -11   25.10    3.32
   0  -4  11   29.50    3.33
   0   4 -10  140.49    7.46
   0  -4  10  151.77    7.34
   0   4  -9    2.52    1.58
   0   4  -9    3.52    2.07
   0   4  -8   35.19    3.71
   0   4  -8   37.27    4.26
   0   4  -7  218.68    9.09
   0   4  -6    0.34    0.80
   0   4  -5   30.76    3.57
   0   4  -4  723.89   17.17
   0   4  -3    0.14    1.04
   0   4  -2   36.29    3.63
   0   4  -1   83.46    5.04
   0  -4   0   10.95    1.88
   0   4   0   11.50    1.83
   0  -4  -1  203.32    9.69
   0   4   1  192.00    7.19
   0  -4  -1  173.09    7.12
   0   4   2  429.29   10.67
   0  -4  -2  422.18   10.74
   0  -4  -2  439.49   13.39
   0  -4  -3   76.81    5.64
   0   4   3   72.80    4.38
   0  -4  -3   67.74    4.10
   0  -4  -4    6.91    2.08
   0   4   4    6.48    1.51
   0  -4  -4    5.53    1.41
   0  -4  -5    2.36    1.79
   0  -4  -5    1.55    1.12
   0   4   5    3.46    1.26
   0  -4  -6   23.96    3.94
   0  -4  -6   17.54    2.36
   0   4   6   16.27    2.23
   0   4   7   11.73    2.00
   0  -4  -7   11.22    3.01
   0  -4  -7    9.83    1.98
   0   4   8   65.03    4.63
   0  -4  -8   71.39    5.37
   0  -4  -8   72.13    6.99
   0  -4  -9   20.26    4.17
   0  -4 -10    6.56    3.15
   0  -4 -11    4.88    3.05
   0   5 -15    8.00    4.28
   0   5 -14    3.72    3.51
   0  -5  13   11.28    2.77
   0   5 -13   11.85    4.04
   0   5 -12   21.80    4.23
   0  -5  12   22.57    3.41
   0  -5  11    3.90    1.77
   0   5 -11    2.94    2.46
   0   5 -10   71.29    7.02
   0   5 -10   57.15    5.59
   0  -5  10   65.14    5.37
   0   5  -9   18.30    3.17
   0  -5   9   22.70    3.20
   0  -5   8    3.60    1.62
   0   5  -8    0.33    1.23
   0  -5   7   43.58    4.32
   0   5  -7   43.26    4.71
   0  -5   6   20.13    3.03
   0   5  -6   18.62    3.24
   0  -5   5   22.89    3.33
   0   5  -5   19.65    3.36
   0   5  -4   29.35    3.90
   0   5  -3  173.63    9.07
   0   5  -2   56.56    4.90
   0   5  -1  251.36   10.18
   0   5  -1  238.81    9.42
   0  -5   1  245.87   10.65
   0   5   0   38.98    3.57
   0  -5   0   35.54    3.96
   0   5   1   17.32    2.51
   0  -5  -1   15.92    2.67
   0  -5  -2   -1.25    2.81
   0  -5  -2    3.12    1.53
   0   5   2    0.10    1.97
   0   5   2    3.06    1.16
   0   5   3  116.57    6.23
   0  -5  -3   99.18    5.87
   0  -5  -3  112.68    7.51
   0  -5  -4   83.15    6.64
   0   5   4   81.25    5.38
   0  -5  -4   78.81    5.24
   0  -5  -5   44.94    5.27
   0  -5  -5   45.95    4.19
   0   5   5   40.09    3.81
   0   5   6   69.28    5.16
   0  -5  -6   66.84    5.06
   0  -5  -6   64.81    6.51
   0  -5  -7   -0.15    1.10
   0  -5  -7    0.25    1.80
   0   5   7   -0.41    0.96
   0  -5  -8    0.62    1.36
   0  -5  -8   -0.20    1.48
   0  -5  -9   10.56    3.39
   0  -5 -10    4.44    2.81
   0   6 -15   32.44    6.92
   0   6 -14    0.62    3.32
   0  -6  13    1.22    1.55
   0   6 -13    1.94    2.72
   0  -6  12    7.98    2.42
   0   6 -12   11.82    3.82
   0   6 -11   12.82    3.40
   0  -6  11    9.89    2.54
   0  -6  10   16.95    3.16
   0  -6   9   95.24    6.89
   0  -6   8   65.16    5.70
   0  -6   7   16.31    3.00
   0  -6   6    7.68    2.30
   0  -6   5  102.91    7.41
   0   6  -5   81.61    6.97
   0   6  -4   -0.54    1.14
   0  -6   4   -0.76    2.03
   0  -6   3   81.37    6.83
   0   6  -3   82.01    6.66
   0  -6   2  175.54    9.97
   0   6  -2  171.54    9.66
   0   6  -2  193.05    9.71
   0   6  -1   -1.15    1.35
   0  -6   1   -1.15    1.74
   0   6  -1    1.47    1.30
   0   6  -1    0.78    1.26
   0  -6   0   33.74    4.43
   0   6   0   33.04    3.74
   0  -6  -1   10.14    2.61
   0   6   1    7.14    1.86
   0  -6  -2    7.19    2.46
   0   6   2    4.68    1.52
   0  -6  -3   41.35    5.09
   0  -6  -3   41.61    4.44
   0  -6  -4   29.28    4.40
   0  -6  -4   29.21    3.80
   0  -6  -5   11.77    2.76
   0  -6  -5    6.17    1.93
   0  -6  -6   27.31    3.82
   0  -6  -6   24.61    4.14
   0  -6  -7   -3.16    3.18
   0  -6  -7    0.80    1.40
   0  -6  -8    0.03    1.88
   0  -6  -9    6.68    3.12
   0   7 -14   61.07    9.02
   0  -7  14   49.14    6.07
   0  -7  13   21.42    4.06
   0   7 -13   23.50    5.82
   0  -7  12   55.71    6.13
   0   7 -12   66.04    8.80
   0  -7  11   18.65    3.74
   0  -7  10   11.02    3.01
   0  -7   9    6.69    2.53
   0  -7   8  294.09   13.22
   0  -7   7   39.74    5.03
   0  -7   6    0.24    1.28
   0  -7   5  253.10   12.61
   0  -7   4   13.62    3.24
   0  -7   3    0.02    2.57
   0  -7   2  171.19   10.72
   0  -7   1    6.75    2.28
   0  -7   0    3.30    1.93
   0  -7  -1  161.82   10.43
   0  -7  -2    7.00    2.73
   0  -7  -3   15.47    3.13
   0  -7  -4   10.87    2.80
   0  -7  -5    2.72    2.77
   0  -7  -5    8.25    2.71
   0  -7  -6   -3.47    3.45
   0  -7  -6    1.93    1.92
   0  -7  -7   17.83    3.41
   0  -7  -7   13.20    3.23
   0  -8  14    3.85    2.38
   0   8 -14   -1.09    3.76
   0  -8  13    3.16    2.39
   0   8 -13    1.72    3.06
   0   8 -12    8.23    4.05
   0  -8  12    6.60    2.90
   0  -8  11  106.31    8.65
   0  -8  10    5.70    2.56
   0  -8   9   -1.71    1.96
   0  -8   8   92.93    8.06
   0  -8   7   30.45    4.81
   0  -8   6  113.85    9.10
   0  -8   5   98.83    8.41
   0  -8   4   57.54    6.64
   0  -8   3   72.13    7.40
   0  -8   2  150.55   10.64
   0  -8   1   -0.24    2.09
   0  -8   0    4.39    2.86
   0  -8  -1   10.26    3.47
   0  -8  -2   49.92    6.18
   0  -8  -3   32.87    5.27
   0  -8  -4   35.69    5.52
   0  -8  -5   19.23    4.28
   0  -8  -6    3.55    2.66
   0   9 -13   11.03    5.32
   0  -9  13    9.55    3.52
   0  -9  12    9.51    3.32
   0  -9  11    1.45    2.05
   0  -9  10    7.38    2.90
   0  -9   9   38.35    5.55
   0  -9   8   29.84    5.02
   0  -9   7   45.59    6.20
   0  -9   6    2.57    2.33
   0  -9   5  114.96    9.79
   0  -9   4    1.96    1.98
   0  -9   3   29.60    5.26
   0  -9   2    0.39    2.42
   0  -9   1   82.40    8.63
   0  -9   0    1.07    2.21
   0  -9  -1   10.90    3.96
   0  -9  -2   34.03    5.78
   0  -9  -3    0.46    2.33
   0  -9  -4    4.81    3.01
   0  -9  -5   28.92    5.65
   0 -10  11    6.74    3.34
   0 -10  10    4.23    2.86
   0 -10   9   52.98    6.87
   0 -10   8    2.99    2.79
   0 -10   7    2.98    2.49
   0 -10   6   40.49    6.19
   0 -10   5    0.58    1.87
   0 -10   4   17.64    4.54
   0 -10   3   24.74    5.17
   0 -10   2    8.28    3.17
   0 -10   1    3.86    3.10
   0 -10   0   13.85    4.28
   0 -10  -1    4.81    3.18
   0 -10  -2   16.24    4.73
   0 -10  -3   13.12    4.39
   0 -10  -4    0.62    2.74
   0 -11   7    8.61    3.67
   0 -11   6   82.31    8.84
   0 -11   5   14.42    4.46
   0 -11   4    8.50    3.72
   0 -11   3   32.24    6.07
   0 -11   2   -2.47    3.33
   0 -11   1    2.45    3.06
   0 -11   0    9.90    4.32
   0 -11  -1    6.30    3.76
   1 -11  -1    5.43    3.61
   1 -11   0    4.02    2.82
   1 -11   1   32.12    6.00
   1 -11   2   18.58    4.42
   1 -11   3   16.75    4.67
   1 -11   4  105.35   10.32
   1 -11   5    5.19    3.37
   1 -11   6    8.64    3.39
   1 -11   7    2.31    2.55
   1 -10  -5   -0.17    2.39
   1 -10  -4    6.94    3.38
   1 -10  -3    1.08    2.57
   1 -10  -2   13.41    4.49
   1 -10  -1   27.85    5.66
   1 -10   0    4.89    3.33
   1 -10   1   27.53    5.41
   1 -10   2    0.74    2.53
   1 -10   3    3.76    3.00
   1 -10   4    0.45    1.91
   1 -10   5  160.62   11.71
   1 -10   6   44.65    6.43
   1 -10   7   56.42    7.09
   1 -10   8   21.11    4.40
   1 -10   9    0.60    2.20
   1 -10  10   23.79    4.86
   1 -10  11   66.58    7.51
   1  -9  -6    4.95    2.26
   1  -9  -5    4.30    2.84
   1  -9  -4    4.14    2.78
   1  -9  -3   25.60    5.08
   1  -9  -2    1.82    2.48
   1  -9  -1   25.02    4.61
   1  -9   0   10.40    3.98
   1  -9   1    1.21    2.14
   1  -9   2  107.07    9.55
   1  -9   3    1.74    2.17
   1  -9   4   11.29    3.39
   1  -9   5   14.99    3.99
   1  -9   6   16.77    3.98
   1  -9   7    4.74    2.43
   1  -9   8  129.63   10.01
   1  -9   9    2.37    1.82
   1  -9  10    5.09    2.66
   1  -9  11   25.12    4.56
   1  -9  12    3.19    2.44
   1  -9  13    9.36    3.18
  -1   9 -13   11.63    5.54
   1  -8  -7    0.26    2.08
   1  -8  -6   35.94    5.36
   1  -8  -5   -0.09    1.80
   1  -8  -4    1.43    2.15
   1  -8  -3   39.50    5.50
   1  -8  -2   27.60    4.54
   1  -8  -1   12.74    3.60
   1  -8   0  160.17   11.03
   1  -8   1    1.50    2.35
   1  -8   2    8.15    2.70
   1  -8   3   33.44    4.92
   1  -8   4    4.23    2.34
   1  -8   5   -1.03    2.19
   1  -8   6   51.32    6.34
   1  -8   7   32.80    4.92
   1  -8   8    0.28    2.06
   1  -8   9   44.13    5.73
   1  -8  10   15.20    3.65
   1  -8  11   16.12    3.78
  -1   8 -12   18.21    5.73
   1  -8  12   13.42    3.65
  -1   8 -13   11.67    5.48
   1  -8  13    8.83    3.26
  -1   8 -14    7.01    4.91
   1  -7  -8    3.03    2.62
   1  -7  -8    8.33    2.56
   1  -7  -7    0.32    1.79
   1  -7  -6    9.91    3.00
   1  -7  -5   -0.04    1.38
   1  -7  -4   13.15    3.03
   1  -7  -3  122.66    8.44
   1  -7  -2   49.16    5.28
   1  -7  -1   12.69    3.18
   1  -7   0  125.24    8.95
   1  -7   1    8.72    2.71
   1  -7   2   96.07    7.88
   1  -7   3   44.35    5.15
   1  -7   4  309.05   13.97
   1  -7   5   39.34    5.23
   1  -7   6  102.84    8.11
   1  -7   7    4.42    2.08
   1  -7   8    3.77    2.04
   1  -7   9   -0.39    1.69
   1  -7  10  166.13   10.31
   1  -7  11   14.92    3.42
  -1   7 -11   12.88    4.38
   1  -7  12    6.89    2.43
  -1   7 -12    6.69    3.48
  -1   7 -13   17.73    5.73
   1  -7  13   20.85    4.13
  -1   7 -14   -2.20    4.08
   1  -6  -9    1.05    2.32
   1  -6  -8    3.56    2.25
   1  -6  -8   -3.72    3.79
   1  -6  -7    0.45    1.36
   1  -6  -7   -4.57    3.58
   1  -6  -6    5.52    2.18
   1  -6  -6   -0.43    3.00
   1  -6  -5  115.58    7.42
   1  -6  -5  130.46    9.38
   1  -6  -4   -0.38    1.18
   1  -6  -3    9.53    2.02
   1  -6  -2   -0.57    1.42
   1  -6  -1   50.90    5.06
  -1   6   1   47.06    4.24
  -1   6   0   36.21    3.72
   1  -6   0   43.17    4.81
   1  -6   1  387.65   14.12
  -1   6  -1  343.14   14.36
  -1   6  -1  371.42   11.96
  -1   6  -2   11.65    2.17
   1  -6   2   10.79    2.59
   1  -6   3   92.93    7.07
  -1   6  -3   88.28    6.45
   1  -6   4    2.51    1.85
  -1   6  -4    4.08    1.43
  -1   6  -5   18.30    3.21
   1  -6   5   21.57    3.46
  -1   6  -6   17.26    3.39
   1  -6   6   18.30    3.28
   1  -6   7  452.39   15.88
   1  -6   8   12.39    2.80
   1  -6   9    1.27    1.41
   1  -6  10   26.50    4.01
  -1   6 -10   18.81    4.43
  -1   6 -11    6.24    3.04
   1  -6  11   10.82    2.72
  -1   6 -12   14.95    4.78
   1  -6  12   20.90    3.70
  -1   6 -13   67.43    9.28
  -1   6 -14    2.89    3.76
  -1   6 -15    1.21    3.38
   1  -5 -11   -1.68    2.79
   1  -5 -10   -0.59    2.50
   1  -5  -9    1.58    1.68
   1  -5  -9   -2.24    2.68
   1  -5  -8   19.24    3.92
   1  -5  -8   23.37    3.54
   1  -5  -7   46.31    4.54
   1  -5  -7   41.39    5.26
  -1   5   6   12.09    1.98
   1  -5  -6   12.17    2.27
   1  -5  -6   14.90    3.14
   1  -5  -5    2.75    1.60
  -1   5   5    0.97    0.86
   1  -5  -5   -0.04    2.26
   1  -5  -4   -3.63    3.15
  -1   5   4    0.04    1.07
  -1   5   3    1.77    1.24
   1  -5  -3   -0.53    1.32
  -1   5   2   32.02    3.10
   1  -5  -2   26.72    2.96
   1  -5  -1  206.39    8.71
  -1   5   1  213.36    8.00
  -1   5   0    0.17    0.62
   1  -5   0    0.53    1.08
  -1   5  -1    1.09    0.89
  -1   5  -2   70.46    4.92
  -1   5  -3    6.59    1.67
  -1   5  -3    6.07    1.30
  -1   5  -4  147.13    8.25
  -1   5  -5  145.20    8.58
   1  -5   6   14.47    2.69
  -1   5  -6   16.36    3.11
  -1   5  -7   11.27    2.67
   1  -5   7   11.74    2.55
   1  -5   8    0.68    1.53
  -1   5  -8   -0.14    1.06
  -1   5  -9   61.85    6.84
  -1   5  -9   55.17    5.22
  -1   5 -10   90.48    8.71
  -1   5 -10   77.88    6.16
  -1   5 -11    6.45    3.37
   1  -5  11    9.52    2.53
  -1   5 -12   -1.21    2.64
   1  -5  12    2.61    1.82
  -1   5 -13   11.67    4.58
  -1   5 -14   -0.36    3.32
  -1   5 -15   12.12    5.54
   1  -4 -12    8.90    3.53
   1  -4 -11   -0.71    1.70
   1  -4 -10   74.05    7.16
   1  -4  -9    4.39    2.27
  -1   4   8    0.05    0.83
   1  -4  -8    0.39    1.21
   1  -4  -8    2.40    2.11
  -1   4   7    1.14    0.86
   1  -4  -7    0.50    1.18
   1  -4  -7    1.85    1.83
   1  -4  -6    2.56    1.76
  -1   4   6    2.40    0.83
   1  -4  -6    1.71    1.06
   1  -4  -5   23.06    2.73
  -1   4   5   23.33    2.41
   1  -4  -5   23.90    3.35
   1  -4  -4  361.21    9.64
  -1   4   4  363.66    9.05
   1  -4  -4  360.80   12.62
  -1   4   4  353.63   15.74
  -1   4   3    1.35    0.65
  -1   4   3   -2.08    2.09
   1  -4  -3    1.01    0.77
   1  -4  -3   -1.49    2.05
   1  -4  -2    6.20    1.16
  -1   4   2    6.19    1.18
  -1   4   1    4.24    1.08
   1  -4  -1    3.34    1.36
  -1   4   0   95.57    4.92
  -1   4  -1   67.32    4.28
  -1   4  -2  250.02    8.56
  -1   4  -3  292.76   10.16
  -1   4  -3  281.02    9.92
  -1   4  -4   32.23    3.51
  -1   4  -5   68.98    5.48
  -1   4  -6    1.03    1.21
  -1   4  -7    0.48    1.01
  -1   4  -8   71.55    4.99
  -1   4  -8   72.37    6.40
  -1   4  -9   75.71    7.04
  -1   4  -9   61.17    4.69
  -1   4 -10   -2.13    2.29
  -1   4 -10    0.42    0.90
   1  -4  10    0.50    1.21
  -1   4 -11    8.31    2.96
   1  -4  11    6.12    1.74
  -1   4 -12   31.45    5.68
   1  -4  12   36.24    4.07
  -1   4 -13    5.67    3.81
  -1   4 -14   21.57    6.04
  -1   4 -15   10.11    4.95
   1  -3 -13   13.61    3.83
   1  -3 -12   12.72    3.87
   1  -3 -11    3.15    2.42
   1  -3 -10   12.30    3.26
  -1   3  10   10.28    1.98
   1  -3  -9    6.61    2.34
  -1   3   9    4.73    0.55
  -1   3   9    4.62    1.29
  -1   3   8   70.13    4.28
   1  -3  -8   71.49    6.04
   1  -3  -8   79.05    5.38
   1  -3  -7  128.25    7.53
   1  -3  -7  134.65    6.24
  -1   3   7  125.29    5.41
  -1   3   6  116.30    8.18
   1  -3  -6  104.68    6.46
   1  -3  -6   97.62    4.91
  -1   3   6  101.13    4.61
  -1   3   5    0.72    0.65
   1  -3  -5    1.08    1.06
   1  -3  -5    0.02    0.67
  -1   3   4  122.83    7.85
  -1   3   4  111.88    4.39
   1  -3  -4  110.78    4.68
   1  -3  -4  125.53    6.49
  -1   3   3  148.53    4.90
   1  -3  -3  161.12    7.35
  -1   3   3  147.90    8.24
   1  -3  -3  144.30    5.09
  -1   3   2  220.68    5.81
   1  -3  -2  213.46    6.00
   1  -3  -1  338.32    7.70
  -1   3   1  340.62    7.31
  -1   3   0  659.84   10.80
  -1   3  -1  146.65    5.51
  -1   3  -2  218.64    7.15
  -1   3  -3  314.10    9.42
   1  -3   3  313.53    9.67
  -1   3  -4   16.28    2.27
   1  -3   4   13.08    2.05
   1  -3   5    0.19    0.76
  -1   3  -5    0.19    0.66
  -1   3  -6  515.63   11.31
   1  -3   6  642.85   13.43
  -1   3  -7   33.26    2.80
   1  -3   7   41.96    3.52
  -1   3  -7   35.91    4.08
  -1   3  -8    1.56    0.59
  -1   3  -8    1.27    1.70
  -1   3  -9    5.03    1.80
  -1   3  -9    3.55    1.23
  -1   3 -10    1.21    1.73
  -1   3 -10    2.84    1.23
  -1   3 -11    0.98    2.14
  -1   3 -12   94.86    9.24
  -1   3 -13    9.29    4.03
  -1   3 -14    9.71    4.72
   1  -2 -13    4.46    2.99
   1  -2 -12   10.44    3.47
  -1   2  11   -0.33    1.08
   1  -2 -11    1.83    2.51
  -1   2  10   20.29    2.57
  -1   2  10   17.90    2.20
   1  -2 -10   19.13    3.53
  -1   2   9   68.67    4.14
   1  -2  -9   68.57    5.81
  -1   2   8   50.27    3.38
   1  -2  -8   44.40    4.41
  -1   2   7   13.45    2.67
   1  -2  -7   12.15    2.41
  -1   2   7   11.27    1.51
   1  -2  -6   77.42    5.02
   1  -2  -6   77.63    4.08
  -1   2   6   74.45    3.61
  -1   2   6   72.64    5.42
   1  -2  -5   46.27    2.80
  -1   2   5   51.05    4.52
   1  -2  -5   49.96    3.82
  -1   2   5   45.89    2.62
   1  -2  -4   51.94    2.77
  -1   2   4   55.94    4.33
  -1   2   4   50.88    2.58
   1  -2  -4   55.83    3.78
  -1   2   3  241.02    8.62
  -1   2   3  242.78    5.23
   1  -2  -3  250.46    5.59
  -1   2   2    0.54    0.43
   1  -2  -2    0.32    0.37
  -1   2   1   62.69    2.54
  -1   2   0   83.30    2.94
  -1   2  -1  119.94    4.11
  -1   2  -2  115.09    4.44
   1  -2   3  726.99   12.29
  -1   2  -3  793.34   12.47
  -1   2  -4    2.15    0.76
   1  -2   4    1.81    0.86
  -1   2  -5   15.62    2.21
   1  -2   5   18.28    2.03
  -1   2  -5   15.85    1.50
  -1   2  -6    1.38    0.67
   1  -2   6   -0.08    0.82
  -1   2  -6    0.47    0.99
  -1   2  -7   47.20    4.37
   1  -2   7   46.61    2.89
  -1   2  -7   45.33    2.68
   1  -2   8  116.46    4.77
  -1   2  -8  126.91    7.76
  -1   2  -9  283.89   12.50
   1  -2   9  267.64    7.42
   1  -2  10   23.61    2.69
   1  -2  10   20.26    2.00
  -1   2 -10   25.51    4.32
  -1   2 -11    1.06    2.28
   1  -2  11    1.40    0.97
  -1   2 -12    5.78    2.91
  -1   2 -13   -1.09    3.23
  -1   2 -14    0.82    3.77
   1  -1 -14    7.70    3.63
   1  -1 -13    5.32    2.90
   1  -1 -12    1.78    1.97
   1  -1 -11   59.58    5.93
  -1   1  11   60.50    4.12
   1  -1 -10    8.13    2.43
  -1   1  10    6.38    1.44
  -1   1   9    0.46    0.72
   1  -1  -9    0.56    1.16
   1  -1  -8    8.09    2.13
  -1   1   8    9.40    1.51
  -1   1   8    9.16    2.03
   1  -1  -7    0.26    1.10
  -1   1   7    1.03    0.72
  -1   1   7    0.95    0.97
  -1   1   7    0.39    0.56
  -1   1   6   32.69    3.14
  -1   1   6   32.12    1.20
   1  -1  -6   34.48    3.11
  -1   1   6   36.25    2.39
  -1   1   6   34.89    2.37
  -1   1   5  321.08    8.98
  -1   1   5  340.56    6.73
   1  -1  -5  347.84    8.83
   1  -1  -4   37.79    2.63
  -1   1   4   37.03    2.05
   1  -1  -4   35.64    2.10
  -1   1   4   38.57    2.88
   1  -1  -3   14.08    1.51
   1  -1  -3   11.59    1.07
  -1   1   3   14.89    1.65
  -1   1   3   11.97    1.06
   1  -1  -2   54.88    2.77
  -1   1   2   49.23    1.93
  -1   1   2   52.60    2.91
  -1   1   1    0.84    0.28
  -1   1   0   12.66    0.84
  -1   1  -1   73.05    2.21
   1  -1   2   63.74    2.42
  -1   1  -2   66.85    2.46
  -1   1  -3   22.11    1.11
  -1   1  -3   20.33    1.93
   1  -1   3   17.21    1.37
  -1   1  -4    2.31    0.41
  -1   1  -4    2.85    1.00
   1  -1   4    1.93    0.42
   1  -1   5  143.22    3.61
  -1   1  -5  139.97    3.15
  -1   1  -6   81.86    2.00
  -1   1  -6   92.79    5.63
   1  -1   6   89.30    2.96
  -1   1  -7  140.87    7.61
   1  -1   7  132.10    3.82
   1  -1   7  139.16    4.08
   1  -1   8    2.98    0.58
  -1   1  -8    6.38    2.27
   1  -1   8    4.81    0.93
  -1   1  -9    7.47    2.47
   1  -1   9    4.65    0.70
   1  -1   9    7.52    1.12
   1  -1  10   19.87    1.79
  -1   1 -10   21.70    4.10
   1  -1  10   15.78    1.49
  -1   1 -11   14.88    3.38
  -1   1 -12   11.05    3.45
  -1   1 -13   34.53    5.86
  -1   1 -14    0.29    2.26
   1   0 -15    4.42    3.07
   1   0 -14   30.64    5.24
   1   0 -13    2.22    2.11
   1   0 -12   -0.17    1.53
  -1   0  12    0.03    0.88
   1   0 -11   29.45    4.22
  -1   0  11   30.24    3.05
   1   0 -10    3.04    1.73
  -1   0  10    4.30    1.26
  -1   0   9   51.16    3.55
  -1   0   9   44.44    4.01
   1   0  -9   51.17    4.59
  -1   0   8  303.15    9.60
   1   0  -8  336.78   10.54
  -1   0   8  351.67    8.10
  -1   0   8  322.28    8.21
  -1   0   7   35.99    2.59
  -1   0   7   40.29    2.67
   1   0  -7   41.41    3.47
  -1   0   7   35.50    3.03
   1   0  -6    0.86    0.86
  -1   0   6    0.44    0.69
  -1   0   6   -0.21    0.46
  -1   0   6    0.04    0.45
  -1   0   5    6.65    0.99
   1   0  -5    9.06    1.48
  -1   0   5    5.42    0.93
  -1   0   5    6.22    1.11
  -1   0   4  245.96    5.17
  -1   0   4  232.52    5.53
  -1   0   4  242.75    5.31
   1   0  -3   42.55    1.97
  -1   0   3   41.78    1.92
  -1   0   3   41.09    1.98
  -1   0   3   43.17    1.44
   1   0  -2  319.19    3.83
   1   0  -2  325.67    3.90
  -1   0   2  321.70    4.07
   1   0  -1  279.72    3.59
  -1   0   0    3.05    0.33
  -1   0   0    3.06    0.40
  -1   0  -1   76.76    1.95
  -1   0  -1   80.38    2.68
   1   0   1   79.39    1.88
  -1   0  -2  274.27    6.12
  -1   0  -2  264.43    3.65
  -1   0  -3  149.37    5.31
   1   0   4  289.37    3.10
   1   0   4  291.49    3.34
   1   0   5  214.60    7.43
   1   0   5  213.60    3.17
   1   0   5  217.79    3.48
  -1   0  -6    1.86    1.46
   1   0   6    0.40    0.83
   1   0   6    0.44    0.35
   1   0   6    0.30    0.25
   1   0   7   14.25    1.15
  -1   0  -7   14.81    2.64
   1   0   7   14.76    2.37
   1   0   7   13.51    1.04
   1   0   8    0.30    0.35
  -1   0  -8    1.69    1.52
   1   0   8    1.07    0.51
   1   0   9   14.51    1.23
  -1   0  -9   15.70    3.30
   1   0   9   15.00    1.30
   1   0  10   28.38    1.69
  -1   0 -10   33.76    4.95
  -1   0 -11   21.29    4.17
  -1   0 -12    4.18    3.07
  -1   0 -13    9.64    3.78
   1   1 -15    3.57    2.84
   1   1 -14    3.96    2.62
   1   1 -13   12.14    3.09
   1   1 -12   16.72    3.39
  -1  -1  12   23.22    2.82
   1   1 -11   45.02    4.88
  -1  -1  11   38.14    3.43
  -1  -1  10   20.84    2.47
   1   1 -10   21.07    3.21
   1   1  -9   18.63    2.84
  -1  -1   9   17.06    2.06
  -1  -1   8   18.92    2.06
  -1  -1   8   21.87    2.15
   1   1  -8   21.57    2.74
   1   1  -7  302.86    8.74
  -1  -1   7  309.54    7.32
   1   1  -6  238.03    6.30
   1   1  -6  234.89    3.98
   1   1  -6  246.20    7.04
  -1  -1   5  197.60    5.17
   1   1  -5  188.25    5.28
   1   1  -5  204.00    5.49
  -1  -1   4  172.27    4.51
   1   1  -4  170.97    4.60
   1   1  -4  176.28    4.25
   1   1  -3   53.40    2.35
   1   1  -3   55.01    1.84
   1   1  -2   16.12    1.21
  -1  -1   1  144.04    3.30
   1   1  -1  149.94    3.45
   1   1   0   21.10    1.33
  -1  -1   0   21.79    1.43
  -1  -1   0   20.67    1.43
  -1  -1  -1    7.36    0.84
  -1  -1  -1    8.57    1.14
   1   1   1    5.40    0.67
  -1  -1  -2  883.61    6.02
   1   1   2  857.29    8.28
  -1  -1  -3    1.26    0.30
   1   1   3    0.56    0.26
  -1  -1  -3    1.03    0.84
   1   1   4   66.67    2.07
   1   1   4   75.61    2.28
  -1  -1  -4   78.71    4.74
  -1  -1  -4   76.04    2.33
   1   1   5  247.77    4.26
   1   1   5  245.42    8.70
   1   1   5  245.66    3.64
   1   1   6    5.11    0.74
   1   1   6    4.64    0.69
   1   1   6    5.69    1.69
  -1  -1  -6    4.12    1.58
   1   1   7    7.61    0.92
  -1  -1  -7    5.92    1.90
   1   1   7    7.64    0.92
  -1  -1  -8  181.54    9.54
   1   1   8  174.21    4.24
   1   1   8  169.82    4.32
   1   1   9    2.38    0.63
   1   1   9    2.75    0.64
  -1  -1  -9    2.58    1.96
  -1  -1 -10    0.47    1.48
  -1  -1 -11   15.35    3.73
  -1  -1 -12    1.87    2.11
  -1  -1 -13    6.69    3.57
   1   2 -15    8.86    3.63
   1   2 -14   -1.50    2.22
   1   2 -13   18.67    3.85
  -1  -2  13   17.93    2.65
  -1  -2  12   21.79    2.72
   1   2 -12   17.30    3.48
  -1  -2  11   -0.21    0.86
   1   2 -11    0.44    1.47
  -1  -2  11    1.57    1.33
   1   2 -10   29.42    3.72
   1   2  -9    1.59    1.41
   1   2  -9    2.72    1.18
   1   2  -9    1.66    0.45
   1   2  -8    1.56    0.94
   1   2  -8    2.50    1.17
  -1  -2   7   69.05    3.69
   1   2  -7   64.67    3.99
   1   2  -7   61.87    3.70
   1   2  -6   82.29    3.91
  -1  -2   6   91.16    4.07
   1   2  -6   89.07    4.24
   1   2  -5    9.17    1.39
  -1  -2   5   12.45    1.61
   1   2  -5    9.28    1.27
   1   2  -4  281.21    6.84
   1   2  -3   -0.10    0.50
   1   2  -2   22.28    2.00
   1   2  -1  399.02    8.74
  -1  -2   1  405.88    9.74
   1   2   0    0.20    0.80
  -1  -2   0    0.95    0.47
  -1  -2   0    1.84    0.90
  -1  -2  -1  106.75    4.29
  -1  -2  -1  108.58    4.55
   1   2   1   92.67    4.45
   1   2   1   90.27    4.09
   1   2   2   98.23    4.02
  -1  -2  -2   96.30    3.38
  -1  -2  -2  100.73    4.85
   1   2   3   20.00    1.79
  -1  -2  -3   15.08    1.27
  -1  -2  -3   17.44    2.34
   1   2   4  229.43    5.86
  -1  -2  -4  232.04    8.57
  -1  -2  -4  228.47    4.95
  -1  -2  -5  329.55   11.13
  -1  -2  -5  331.30    6.48
   1   2   5  339.34    7.12
   1   2   5  314.58   11.00
   1   2   6   13.51    1.18
  -1  -2  -6   12.91    2.72
   1   2   6   11.95    1.38
  -1  -2  -7   74.44    6.19
   1   2   7   68.77    2.03
   1   2   7   69.83    3.43
   1   2   8    8.95    1.23
   1   2   8    8.78    1.36
  -1  -2  -8    6.89    2.35
  -1  -2  -9    4.28    2.45
   1   2   9    3.34    0.87
  -1  -2 -10   19.00    4.21
  -1  -2 -11   18.10    4.43
  -1  -2 -12   30.14    5.86
   1   3 -15    6.56    2.93
   1   3 -14    0.12    2.33
  -1  -3  13   -1.19    1.34
   1   3 -13    4.10    2.89
  -1  -3  12   66.20    4.98
   1   3 -12   73.86    6.86
  -1  -3  11    2.01    1.32
   1   3 -11    2.79    1.78
   1   3 -11    2.14    0.62
   1   3 -11    2.90    1.35
   1   3 -10    0.48    1.21
  -1  -3  10    0.75    1.00
   1   3 -10    0.80    1.55
   1   3  -9  137.17    7.18
   1   3  -9  125.44    6.35
   1   3  -8    1.97    0.78
   1   3  -8    3.44    1.36
   1   3  -7    2.10    1.06
   1   3  -7    2.86    1.29
   1   3  -6   20.79    2.46
  -1  -3   5  101.99    4.95
   1   3  -5   94.65    5.06
   1   3  -4   47.70    3.56
   1   3  -3  401.24   10.47
   1   3  -2   84.49    4.78
   1   3  -2   89.69    5.10
   1   3  -1    2.68    0.89
  -1  -3   1    2.38    0.97
   1   3  -1    3.71    1.22
  -1  -3   0   70.06    4.65
   1   3   0   67.89    4.57
  -1  -3   0   79.72    4.74
   1   3   1   60.87    4.29
   1   3   1   57.29    3.88
  -1  -3  -1   68.10    4.39
  -1  -3  -1   68.17    4.16
  -1  -3  -2   35.96    2.75
   1   3   2   40.21    3.13
  -1  -3  -2   44.08    3.77
  -1  -3  -3  117.90    4.52
  -1  -3  -3  128.41    6.59
  -1  -3  -4   59.70    4.81
  -1  -3  -4   56.24    3.15
   1   3   4   66.15    3.98
   1   3   4   57.52    5.04
  -1  -3  -5    2.31    0.77
  -1  -3  -5    3.96    1.78
   1   3   5    3.41    1.05
   1   3   6  191.59    6.84
  -1  -3  -6  178.05    9.34
  -1  -3  -6  180.70    6.11
  -1  -3  -7   23.37    3.75
  -1  -3  -7   23.36    2.49
   1   3   7   22.48    2.41
  -1  -3  -8   20.54    3.84
  -1  -3  -9   15.82    3.81
  -1  -3 -10   14.47    4.09
  -1  -3 -11    4.16    3.36
   1   4 -15   36.77    6.30
   1   4 -14   11.67    3.73
   1   4 -13   10.14    3.41
  -1  -4  13    4.89    1.52
  -1  -4  12   51.19    4.62
   1   4 -12   70.89    6.85
  -1  -4  11   -1.95    1.55
   1   4 -11    0.51    1.62
   1   4 -10   45.99    4.41
   1   4 -10   57.41    5.38
  -1  -4  10   46.15    4.19
   1   4  -9   68.90    5.64
   1   4  -9   62.08    5.13
  -1  -4   9   63.55    4.73
   1   4  -8  117.09    6.84
  -1  -4   8  113.65    6.27
   1   4  -7  124.48    6.88
   1   4  -6  418.81   12.68
   1   4  -5   29.85    3.49
   1   4  -4    5.36    1.73
   1   4  -3    7.15    1.85
  -1  -4   2  384.11   11.92
   1   4  -2  411.08   12.01
   1   4  -2  399.03   12.89
  -1  -4   1  142.77    7.49
   1   4  -1  139.50    7.47
  -1  -4   0   86.00    5.96
  -1  -4   0   83.34    5.90
   1   4   0   72.33    5.42
   1   4   1  129.89    6.76
  -1  -4  -1  146.83    7.44
   1   4   1  145.10    7.68
  -1  -4  -1  139.95    6.87
   1   4   2   -1.02    1.16
  -1  -4  -2    0.51    1.11
  -1  -4  -2   -0.10    1.00
   1   4   3   12.21    2.87
  -1  -4  -3   13.16    2.79
  -1  -4  -3    8.79    1.60
   1   4   3    9.75    1.76
   1   4   4   98.33    5.54
  -1  -4  -4   86.84    6.35
   1   4   5    3.97    1.25
  -1  -4  -5    5.06    1.38
  -1  -4  -5    4.54    2.30
  -1  -4  -6    8.48    2.97
   1   4   6    5.14    1.38
  -1  -4  -6    4.39    1.45
  -1  -4  -7   68.84    6.73
   1   4   7   67.97    4.71
  -1  -4  -7   62.90    4.44
  -1  -4  -8   21.28    4.34
  -1  -4  -9   13.13    3.58
  -1  -4 -10    3.87    2.75
   1   5 -15    3.56    2.95
   1   5 -14    3.33    2.97
  -1  -5  14   -0.32    1.57
   1   5 -13   18.47    4.16
  -1  -5  13   13.67    2.63
  -1  -5  12    3.75    1.51
   1   5 -12    2.21    1.91
   1   5 -11  123.03    8.84
  -1  -5  11   92.32    6.52
  -1  -5  10   13.98    2.38
   1   5 -10   22.39    3.73
  -1  -5   9   69.35    5.44
   1   5  -8   15.15    2.84
  -1  -5   8   15.63    2.54
  -1  -5   7    2.91    0.98
   1   5  -7    5.30    1.71
   1   5  -6   21.49    3.50
  -1  -5   6   16.35    2.51
  -1  -5   6   18.06    2.93
   1   5  -5  631.36   17.47
   1   5  -4  112.55    7.49
   1   5  -3   13.56    2.66
   1   5  -2  337.37   13.09
  -1  -5   2  348.74   13.02
   1   5  -1   15.95    2.76
  -1  -5   1   12.66    2.70
   1   5   0  146.90    8.49
   1   5   0  143.36    8.80
  -1  -5   0  147.23    8.37
  -1  -5  -1  324.93   13.01
  -1  -5  -1  358.41   12.56
   1   5   1  323.11   13.88
   1   5   2    2.04    1.56
  -1  -5  -2    1.23    1.32
  -1  -5  -2   -1.08    1.50
   1   5   2    0.27    1.27
   1   5   3   20.91    3.39
  -1  -5  -3   12.29    2.24
  -1  -5  -3   13.36    2.77
   1   5   3   14.12    2.23
  -1  -5  -4  101.09    7.59
  -1  -5  -4   94.46    5.84
   1   5   4  115.58    6.70
  -1  -5  -5   18.97    3.69
   1   5   5   17.10    2.68
  -1  -5  -5   15.13    2.58
   1   5   6   12.93    2.24
  -1  -5  -6   10.23    1.96
  -1  -5  -7   26.88    3.40
  -1  -5  -7   31.67    5.03
  -1  -5  -8    7.45    2.98
  -1  -5  -9    6.38    3.33
  -1  -6  14   -2.02    1.90
   1   6 -14   -1.42    2.31
   1   6 -13   12.33    3.43
  -1  -6  13   10.55    2.69
   1   6 -12    1.06    2.10
  -1  -6  12   -1.32    1.81
   1   6 -11   -1.77    2.26
  -1  -6  11   -0.65    1.58
  -1  -6  10   20.74    3.31
  -1  -6  10   19.47    3.15
  -1  -6   9   21.61    3.48
  -1  -6   8  121.73    7.78
  -1  -6   7    3.64    1.83
  -1  -6   6   34.68    4.14
  -1  -6   5   41.79    4.63
  -1  -6   4    0.84    1.54
   1   6  -4    2.73    0.84
   1   6  -3  148.23    8.38
  -1  -6   3  169.15    9.68
  -1  -6   2  166.35   10.05
   1   6  -2  203.60   10.03
   1   6  -1   83.01    6.83
  -1  -6   1   66.22    6.45
  -1  -6   0   17.20    3.26
  -1  -6  -1  116.79    8.10
  -1  -6  -2    4.65    2.16
  -1  -6  -2   -2.04    3.13
  -1  -6  -3   42.33    4.92
  -1  -6  -3   42.85    4.60
   1   6   3   52.78    5.21
   1   6   4    4.99    1.67
  -1  -6  -4    4.08    1.86
  -1  -6  -4    3.43    1.72
  -1  -6  -5   46.34    4.99
  -1  -6  -5   46.64    6.00
  -1  -6  -6   14.01    2.86
  -1  -6  -6   13.41    3.34
  -1  -6  -7    5.63    2.97
  -1  -6  -8    9.12    3.69
  -1  -7  15    1.15    2.10
  -1  -7  14    1.39    1.88
   1   7 -14    0.60    2.49
  -1  -7  13   22.46    3.98
   1   7 -13   40.90    6.63
  -1  -7  12    3.89    1.75
   1   7 -12   10.71    3.94
  -1  -7  11   20.76    3.63
  -1  -7  10   73.10    6.54
  -1  -7   9   22.93    3.88
  -1  -7   8    3.96    2.16
  -1  -7   7   68.41    6.34
  -1  -7   6   16.92    3.42
  -1  -7   5    5.90    2.64
  -1  -7   4   71.07    6.86
  -1  -7   3   79.92    7.25
  -1  -7   2   17.34    3.29
  -1  -7   1    2.68    1.86
  -1  -7   0   64.85    6.94
  -1  -7  -1    0.02    1.92
  -1  -7  -2   92.55    8.00
  -1  -7  -3    4.76    1.99
  -1  -7  -3    2.92    3.24
  -1  -7  -4    3.50    2.12
  -1  -7  -4   -1.87    3.77
  -1  -7  -5   -4.21    3.45
  -1  -7  -5    1.71    2.02
  -1  -7  -6   13.87    3.81
  -1  -7  -6   16.17    3.22
  -1  -7  -7    2.04    2.86
  -1  -8  14   25.94    4.83
   1   8 -13   35.01    6.58
  -1  -8  13   20.38    4.20
  -1  -8  12   49.04    6.16
  -1  -8  11   10.84    2.97
  -1  -8  10   71.18    6.98
  -1  -8   9   12.68    3.30
  -1  -8   8    9.17    3.03
  -1  -8   7   24.00    4.39
  -1  -8   6  194.21   11.48
  -1  -8   5   84.23    7.88
  -1  -8   4    8.07    3.01
  -1  -8   3   13.62    3.41
  -1  -8   2   -1.66    2.44
  -1  -8   1    2.81    2.35
  -1  -8   0  124.33   10.24
  -1  -8  -1    4.21    2.88
  -1  -8  -2    2.86    2.75
  -1  -8  -3   10.38    3.35
  -1  -8  -4   14.07    3.78
  -1  -8  -5    1.98    2.15
  -1  -9  13   28.03    5.11
  -1  -9  12    8.20    3.39
  -1  -9  11   16.01    3.83
  -1  -9  10   13.67    3.70
  -1  -9   9  157.32   10.91
  -1  -9   8    9.64    3.23
  -1  -9   7   40.53    5.91
  -1  -9   6    4.12    2.53
  -1  -9   5    7.51    3.40
  -1  -9   4   42.12    6.23
  -1  -9   3  168.11   12.08
  -1  -9   2   -0.59    2.60
  -1  -9   1   -0.43    2.20
  -1  -9   0   11.85    3.93
  -1  -9  -1    5.59    3.85
  -1  -9  -2   16.54    4.58
  -1  -9  -3   22.28    5.20
  -1  -9  -4   16.13    4.24
  -1 -10  10   27.26    4.99
  -1 -10   9    1.91    2.44
  -1 -10   8    2.44    2.81
  -1 -10   7   29.41    5.40
  -1 -10   6   29.33    5.33
  -1 -10   5   17.90    4.61
  -1 -10   4   10.46    3.95
  -1 -10   3   21.05    5.24
  -1 -10   2    3.56    2.89
  -1 -10   1   25.99    5.23
  -1 -10   0   20.00    5.23
  -1 -10  -1   23.28    5.51
  -1 -10  -2    1.68    2.70
  -1 -10  -3    2.68    2.78
  -1 -11   6    4.71    3.27
  -1 -11   5    6.95    3.71
  -1 -11   4   11.99    4.25
  -1 -11   3    2.39    2.81
  -1 -11   2    0.47    2.62
  -1 -11   1   15.02    4.75
  -1 -11   0    5.29    3.72
  -1 -11  -1    0.34    2.93
   2 -11  -1    5.39    3.36
   2 -11   0   38.88    6.88
   2 -11   1    2.85    2.56
   2 -11   2   17.53    4.45
   2 -11   3   16.41    4.36
   2 -11   4   -5.28    3.64
   2 -11   5   -3.60    3.07
   2 -11   6   32.38    5.86
   2 -11   7    3.64    3.01
   2 -10  -5    3.73    3.17
   2 -10  -4    2.29    3.14
   2 -10  -3   38.46    6.46
   2 -10  -2   -0.96    2.56
   2 -10  -1    3.04    3.03
   2 -10   0    7.57    3.50
   2 -10   1    2.18    2.77
   2 -10   2   15.73    4.06
   2 -10   3  142.10   11.63
   2 -10   4    9.38    3.80
   2 -10   5    1.63    2.36
   2 -10   6   78.52    8.43
   2 -10   7   21.82    4.73
   2 -10   8   30.78    5.46
   2 -10   9   49.82    6.64
   2 -10  10   17.76    4.05
   2 -10  11    7.79    3.35
   2  -9  -7   -0.27    2.20
   2  -9  -6   14.49    4.04
   2  -9  -5   17.82    4.56
   2  -9  -4    1.84    2.26
   2  -9  -3    4.71    3.00
   2  -9  -2    3.21    2.44
   2  -9  -1   14.23    3.77
   2  -9   0   53.17    6.65
   2  -9   1   36.57    5.85
   2  -9   2    3.67    2.63
   2  -9   3   42.21    6.21
   2  -9   4   12.35    3.65
   2  -9   5   90.34    8.63
   2  -9   6   54.64    6.84
   2  -9   7  140.94   10.54
   2  -9   8   20.53    4.55
   2  -9   9   83.86    8.11
   2  -9  10    8.58    3.09
   2  -9  11   27.31    4.64
   2  -9  12    0.02    1.88
   2  -8  -8   17.34    4.16
   2  -8  -7    3.02    2.15
   2  -8  -6   -0.85    2.00
   2  -8  -5    2.39    2.32
   2  -8  -4    0.22    1.55
   2  -8  -3   -0.69    2.19
   2  -8  -2   27.61    4.51
   2  -8  -1   50.45    6.00
   2  -8   0   16.72    3.87
   2  -8   1   38.53    5.57
   2  -8   2    7.25    2.87
   2  -8   3   10.37    2.99
   2  -8   4   95.12    8.39
   2  -8   5    9.64    2.99
   2  -8   6   28.45    4.64
   2  -8   7   19.93    4.22
   2  -8   8   23.87    4.36
   2  -8   9   13.85    3.64
   2  -8  10  137.65    9.92
   2  -8  11    2.34    2.33
  -2   8 -12   25.82    7.24
   2  -8  12   28.36    4.78
  -2   8 -13   -1.42    4.00
   2  -7  -9    1.84    1.91
   2  -7  -8    1.80    1.90
   2  -7  -7    7.14    2.59
   2  -7  -6    8.11    2.70
   2  -7  -5    7.94    2.65
   2  -7  -4  100.43    7.63
   2  -7  -3    1.02    1.34
   2  -7  -2   19.87    3.31
   2  -7  -1   -0.33    1.72
   2  -7   0    2.23    1.98
   2  -7   1    7.66    2.78
   2  -7   2  376.24   15.23
   2  -7   3   31.22    4.50
   2  -7   4   10.19    2.82
   2  -7   5   21.56    3.79
   2  -7   6    2.46    2.08
   2  -7   7    0.67    1.79
   2  -7   8   80.74    7.26
   2  -7   9   59.89    6.51
   2  -7  10    2.96    2.20
  -2   7 -11   10.20    4.33
   2  -7  11   11.60    3.16
   2  -7  12   11.35    3.16
  -2   7 -12    8.40    4.16
  -2   7 -13    5.15    4.10
   2  -6 -10   -1.86    3.44
   2  -6  -9    5.40    2.41
   2  -6  -9   -0.61    2.67
   2  -6  -8    0.15    1.59
   2  -6  -8   -5.10    3.75
   2  -6  -7   57.56    5.60
   2  -6  -6   12.62    2.61
   2  -6  -5   21.51    3.52
   2  -6  -4    4.61    1.96
   2  -6  -3   10.55    2.26
   2  -6  -2   81.19    5.84
   2  -6  -1  503.76   14.21
   2  -6   0   20.82    3.33
  -2   6  -1   17.56    2.60
   2  -6   1   18.86    3.34
  -2   6  -2   21.21    3.00
   2  -6   2   25.27    3.73
   2  -6   3  142.96    8.71
  -2   6  -3  131.58    7.40
  -2   6  -4  245.66   11.04
   2  -6   4  252.11   11.84
  -2   6  -4  245.85   10.95
   2  -6   5  345.34   13.74
  -2   6  -5  322.97   13.36
  -2   6  -6   77.94    6.94
   2  -6   6   77.88    6.64
  -2   6  -7    1.35    1.64
   2  -6   7   -1.53    1.92
   2  -6   8   18.34    3.59
  -2   6  -8   20.27    3.89
   2  -6   9   17.14    3.44
  -2   6  -9   15.32    3.45
  -2   6 -10    2.02    2.75
   2  -6  10    5.83    2.34
   2  -6  11   16.69    3.36
  -2   6 -11   13.10    4.72
  -2   6 -12   78.99   10.39
  -2   6 -13    0.17    4.14
   2  -5 -11   -1.91    2.75
   2  -5 -10    0.20    2.72
   2  -5  -9   17.65    3.49
   2  -5  -9   25.11    3.95
   2  -5  -8    7.98    2.15
   2  -5  -8    4.06    2.05
   2  -5  -7   28.15    3.59
   2  -5  -7   27.34    3.86
   2  -5  -6   -0.60    1.06
   2  -5  -6   -5.28    3.42
   2  -5  -5   12.22    2.39
   2  -5  -4   47.69    4.05
  -2   5   4   45.69    3.62
   2  -5  -3   59.91    4.49
  -2   5   3   59.44    4.08
  -2   5   2   19.74    2.35
   2  -5  -2   21.00    2.60
  -2   5   1   12.52    1.92
   2  -5  -1   10.68    1.84
  -2   5   0   88.56    5.16
  -2   5  -1  244.60    8.72
  -2   5  -2  106.89    6.00
  -2   5  -3  229.53    9.20
  -2   5  -4    7.91    1.91
  -2   5  -4    6.01    1.63
  -2   5  -5  127.38    7.91
  -2   5  -6  168.75    9.40
   2  -5   6  146.03    8.39
  -2   5  -7  142.60    8.52
   2  -5   7  135.94    8.23
  -2   5  -8   11.12    2.31
   2  -5   8   12.47    2.79
  -2   5  -9  176.64   12.66
  -2   5  -9  153.44    8.41
   2  -5  10    0.58    1.33
  -2   5 -10    0.72    2.68
  -2   5 -11    6.35    3.06
   2  -5  11   10.07    2.33
  -2   5 -12   -0.73    3.79
  -2   5 -13    6.49    4.04
  -2   5 -14    5.89    4.62
   2  -4 -12    9.84    3.13
   2  -4 -11    6.49    2.71
  -2   4  11    8.31    2.20
   2  -4 -10   -0.57    1.73
   2  -4  -9    0.72    1.42
   2  -4  -9   -0.63    1.68
   2  -4  -8   19.78    3.04
   2  -4  -8   18.44    3.35
  -2   4   7    8.35    1.74
   2  -4  -7    6.53    1.78
   2  -4  -7    3.26    1.70
  -2   4   6   95.04    5.05
   2  -4  -6   82.38    5.12
   2  -4  -6   86.63    6.44
  -2   4   5   93.18    4.86
   2  -4  -5   95.93    6.73
  -2   4   5   93.83    8.80
   2  -4  -5   91.31    5.13
   2  -4  -4   11.86    1.99
  -2   4   4   10.74    1.66
  -2   4   3   12.19    1.74
   2  -4  -3   12.27    1.89
  -2   4   2    1.17    0.64
   2  -4  -2    0.89    0.79
  -2   4   2    0.71    1.34
  -2   4   1    0.08    0.56
  -2   4   0  187.44    6.41
  -2   4  -1   80.87    4.53
  -2   4  -2   48.40    3.73
  -2   4  -3   34.05    3.30
  -2   4  -4   80.99    5.52
  -2   4  -5    6.44    1.52
  -2   4  -6  203.96    9.06
  -2   4  -7   83.67    5.49
  -2   4  -8  113.85    6.06
  -2   4  -8  132.07    9.70
  -2   4  -9    8.02    1.87
  -2   4  -9    5.59    2.82
  -2   4 -10    4.10    2.07
  -2   4 -11   24.18    5.15
  -2   4 -12   41.42    7.01
  -2   4 -13   14.41    5.11
  -2   4 -14    7.86    4.70
   2  -3 -13    3.07    2.49
   2  -3 -12    4.90    2.70
  -2   3  11   23.61    3.24
   2  -3 -11   20.19    3.87
  -2   3  10    9.21    2.05
   2  -3 -10   10.32    2.88
  -2   3   9    0.81    0.52
  -2   3   9    0.19    0.82
   2  -3  -9    2.40    1.85
  -2   3   8   72.68    4.51
   2  -3  -8   74.80    5.95
   2  -3  -8   80.23    5.44
   2  -3  -7    0.34    1.25
   2  -3  -7    0.68    1.06
  -2   3   7    0.64    0.64
  -2   3   6   35.25    2.86
   2  -3  -6   35.71    3.85
  -2   3   6   43.45    5.23
   2  -3  -6   33.79    2.98
   2  -3  -5   90.64    5.86
  -2   3   5   95.78    7.40
  -2   3   5   82.17    4.08
   2  -3  -5   86.15    4.42
  -2   3   4   22.30    1.98
  -2   3   4   21.23    3.22
   2  -3  -4   26.20    2.96
   2  -3  -4   23.68    2.26
   2  -3  -3   41.89    2.88
  -2   3   3   44.03    2.69
  -2   3   3   49.16    5.01
  -2   3   2  581.64    9.59
  -2   3   2  609.40   17.74
  -2   3   1    0.71    0.60
  -2   3   0   20.80    1.81
  -2   3  -1  191.46    5.89
  -2   3  -2    6.49    1.32
   2  -3   2    8.67    1.44
   2  -3   3   10.70    1.47
  -2   3  -3    8.16    1.43
   2  -3   4  341.68    9.46
  -2   3  -4  336.41    9.97
  -2   3  -5   40.01    3.47
   2  -3   5   30.39    2.85
  -2   3  -6   -0.45    0.88
  -2   3  -6   -2.29    2.10
   2  -3   6   -0.47    1.07
   2  -3   7    5.90    1.31
  -2   3  -7    8.56    2.23
  -2   3  -7    8.43    1.38
  -2   3  -8    1.82    0.80
  -2   3  -8    2.87    2.40
   2  -3   8    0.77    1.11
  -2   3  -9    0.00    2.09
   2  -3   9   -0.02    1.16
  -2   3  -9    0.13    0.58
   2  -3  10   20.92    2.57
  -2   3 -10   17.12    1.61
  -2   3 -10   18.80    4.23
  -2   3 -11   34.07    6.03
  -2   3 -12    3.24    3.13
  -2   3 -13    5.21    3.90
   2  -2 -14    9.27    3.22
   2  -2 -13    6.17    2.98
  -2   2  12   -1.01    1.20
   2  -2 -12    6.39    2.84
   2  -2 -11   65.10    6.14
  -2   2  11   75.51    5.32
  -2   2  10    4.70    1.45
  -2   2  10    3.89    1.51
  -2   2   9   42.28    3.58
  -2   2   9   44.24    3.60
   2  -2  -9   44.10    4.52
   2  -2  -8  103.06    6.33
  -2   2   8  102.86    5.23
  -2   2   8  107.15    3.24
  -2   2   8  106.75    5.26
  -2   2   8  102.93    7.00
   2  -2  -7    8.41    2.11
  -2   2   7    3.20    1.39
   2  -2  -7    6.31    1.55
  -2   2   7    6.37    1.29
  -2   2   6   56.15    3.39
  -2   2   6   57.47    5.03
   2  -2  -6   56.01    4.11
   2  -2  -6   50.35    3.42
  -2   2   5  227.96    6.38
   2  -2  -5  222.96    7.86
  -2   2   5  228.93    9.16
   2  -2  -5  210.58    6.38
  -2   2   4   47.18    2.71
   2  -2  -4   42.86    2.63
   2  -2  -4   45.41    3.43
  -2   2   4   46.99    4.00
  -2   2   3  203.97    5.24
   2  -2  -3  188.82    5.23
  -2   2   2   50.21    2.51
  -2   2   2   45.10    4.22
  -2   2   1  157.47    4.14
  -2   2   0  275.37    5.52
   2  -2   1  319.82    5.65
  -2   2  -1  343.73    6.30
   2  -2   2  270.01    5.62
  -2   2  -2  256.26    6.29
  -2   2  -3   75.08    3.76
   2  -2   3   81.04    3.27
   2  -2   4    3.80    0.66
  -2   2  -4    5.01    0.99
  -2   2  -5  294.26    5.81
  -2   2  -5  300.87   10.74
   2  -2   5  293.13    7.36
  -2   2  -6   96.28    2.96
   2  -2   6   99.90    4.50
  -2   2  -7   68.81    2.45
   2  -2   7   68.66    3.91
   2  -2   8  115.32    5.03
  -2   2  -8  126.59    3.93
   2  -2   9    0.46    0.54
  -2   2  -9    0.19    1.96
   2  -2   9   -0.02    0.49
  -2   2 -10    6.78    3.15
   2  -2  10    1.87    0.68
  -2   2 -11   23.39    5.20
  -2   2 -12   22.53    5.49
  -2   2 -13    1.89    3.61
   2  -1 -15    1.98    2.80
   2  -1 -14    3.76    2.56
   2  -1 -13   19.44    4.00
  -2   1  12    3.62    1.60
   2  -1 -12    2.89    2.12
  -2   1  11    1.80    1.26
   2  -1 -11    1.38    1.54
  -2   1  10   35.77    3.34
  -2   1  10   34.73    3.39
   2  -1 -10   34.11    4.02
  -2   1   9   -0.15    1.00
  -2   1   9    0.24    0.76
   2  -1  -9   -0.09    0.95
  -2   1   9    0.34    0.89
  -2   1   8   15.71    2.39
  -2   1   8   18.72    2.25
   2  -1  -8   16.45    2.40
  -2   1   7   59.15    4.25
   2  -1  -7   55.02    3.89
  -2   1   7   63.51    2.42
  -2   1   7   60.59    3.70
  -2   1   6   76.58    3.78
  -2   1   6   78.45    4.50
   2  -1  -6   76.21    4.26
  -2   1   6   78.57    2.67
  -2   1   6   80.94    3.96
  -2   1   5   24.34    1.49
  -2   1   5   26.85    2.61
   2  -1  -5   24.31    2.27
  -2   1   5   26.36    2.16
   2  -1  -4  255.85    6.09
   2  -1  -4  252.24    6.77
  -2   1   4  253.11    7.13
  -2   1   4  254.92    6.07
  -2   1   3  148.69    5.41
  -2   1   3  150.25    4.34
  -2   1   2   80.40    2.93
  -2   1   1  116.52    3.22
  -2   1   0   24.59    1.35
  -2   1  -1   53.17    1.86
   2  -1   1   55.71    1.79
   2  -1   2  310.05    3.80
  -2   1  -2  296.61    4.99
   2  -1   3  211.48    2.98
  -2   1  -3  219.52    7.43
  -2   1  -3  220.42    4.06
  -2   1  -4    1.22    0.56
   2  -1   4    0.71    0.29
  -2   1  -4    0.29    0.89
   2  -1   5  110.53    2.61
  -2   1  -5  108.90    3.45
  -2   1  -5  113.58    6.34
   2  -1   6   30.14    1.51
  -2   1  -6   31.19    1.84
   2  -1   6   32.27    1.32
  -2   1  -6   33.90    3.96
   2  -1   7   85.51    2.63
  -2   1  -7   88.97    6.72
   2  -1   7   86.89    2.08
   2  -1   8  109.07    2.15
   2  -1   8  114.66    2.78
  -2   1  -9    2.08    2.49
  -2   1 -10   12.89    3.91
  -2   1 -11   68.91    7.85
  -2   1 -12   11.99    4.04
  -2   1 -13    4.11    3.24
   2   0 -15    2.52    2.63
   2   0 -14    8.20    2.80
   2   0 -13    5.05    2.28
  -2   0  13    7.73    1.97
  -2   0  12   25.71    3.06
   2   0 -12   28.20    4.05
  -2   0  11   10.36    2.00
   2   0 -11   10.45    2.59
  -2   0  11   12.50    2.19
  -2   0  10   33.91    3.15
  -2   0  10   27.66    3.05
  -2   0  10   31.23    3.13
   2   0 -10   32.21    3.66
   2   0  -9   20.39    2.73
  -2   0   9   22.02    2.54
  -2   0   9   20.29    2.54
  -2   0   8   12.81    1.84
  -2   0   8   12.35    1.81
   2   0  -8   13.80    2.06
   2   0  -7    5.99    1.25
  -2   0   7    6.98    1.32
  -2   0   7    6.66    1.31
  -2   0   6  115.22    4.62
   2   0  -6  107.20    4.36
  -2   0   6  103.83    4.23
  -2   0   6  108.12    4.66
  -2   0   5   22.00    1.73
  -2   0   5   22.66    2.00
   2   0  -5   21.99    1.73
  -2   0   5   20.57    1.91
  -2   0   4   99.26    3.13
  -2   0   4   99.20    3.04
   2   0  -4  100.20    3.14
  -2   0   4  100.69    3.90
   2   0  -3 1000.00    9.52
  -2   0   3  985.50   11.47
  -2   0   3  983.03    9.73
  -2   0   2  147.91    4.11
   2   0  -2  146.18    3.65
  -2   0   1   12.54    1.08
   2   0  -1   14.16    1.10
   2   0  -1   13.15    1.12
  -2   0   0  114.80    2.88
  -2   0   0  109.16    3.39
   2   0   0  119.63    2.77
   2   0   0  119.27    3.28
  -2   0   0  113.63    2.77
  -2   0  -1   52.31    1.62
  -2   0  -1   51.59    2.72
  -2   0  -1   49.48    2.26
   2   0   1   49.87    2.11
  -2   0  -1   50.73    1.42
  -2   0  -2   98.16    4.40
  -2   0  -2   98.85    3.22
  -2   0  -3   98.70    4.95
  -2   0  -4  112.60    5.91
  -2   0  -5   39.52    3.89
   2   0   6   20.98    2.74
  -2   0  -6   24.50    3.49
  -2   0  -7   15.90    3.18
  -2   0  -8   25.50    4.11
  -2   0  -9    1.22    1.94
  -2   0 -10   43.47    6.28
  -2   0 -11   -1.47    2.32
  -2   0 -12   10.40    3.94
   2   1 -15   23.40    4.68
   2   1 -14    9.71    3.21
   2   1 -13    8.23    2.66
  -2  -1  13    9.14    1.97
  -2  -1  12    6.82    1.70
   2   1 -12    6.46    2.18
  -2  -1  11    2.30    1.23
   2   1 -11    1.33    1.36
  -2  -1  11    1.53    1.02
  -2  -1  10   31.14    3.02
  -2  -1  10   29.71    3.07
   2   1 -10   27.86    3.30
  -2  -1   9  270.00    8.66
   2   1  -9  301.00    9.48
   2   1  -8    5.20    1.35
  -2  -1   8    3.76    1.04
   2   1  -7    0.13    0.56
   2   1  -7    0.79    0.78
   2   1  -7    1.09    0.50
  -2  -1   6  190.97    6.08
   2   1  -6  174.17    5.99
   2   1  -6  181.21    5.00
   2   1  -6  171.29    4.43
   2   1  -5    3.17    0.87
   2   1  -5    3.18    0.60
  -2  -1   5    5.16    1.15
   2   1  -5    2.91    0.68
   2   1  -4  258.71    3.48
   2   1  -4  257.35    5.43
   2   1  -4  259.69    6.33
   2   1  -3  934.75   11.10
   2   1  -2  222.52    4.96
  -2  -1   1  277.14    5.51
   2   1  -1  260.78    5.03
   2   1  -1  272.72    4.57
  -2  -1   1  273.96    4.91
  -2  -1   0  271.95    5.43
   2   1   0  263.15    4.64
  -2  -1   0  274.49    5.95
   2   1   0  279.12    5.73
   2   1   1   55.07    2.02
  -2  -1  -1   56.10    2.74
  -2  -1  -1   63.04    3.35
   2   1   2    0.75    0.25
  -2  -1  -2    1.59    0.41
  -2  -1  -2    1.61    0.92
   2   1   2    1.64    0.57
   2   1   3    2.82    0.45
   2   1   3    2.34    0.58
  -2  -1  -3    3.77    1.35
   2   1   4  135.19    2.63
   2   1   4  142.72    3.89
   2   1   5   21.92    2.81
  -2  -1  -5   24.74    3.21
  -2  -1  -6   50.08    4.95
  -2  -1  -7   79.37    6.69
  -2  -1  -8   -1.40    2.21
  -2  -1  -9   14.89    3.70
  -2  -1 -10    5.68    2.87
  -2  -1 -11   -2.01    2.69
  -2  -1 -12    3.54    3.11
   2   2 -15    3.87    2.32
   2   2 -14    6.85    2.80
  -2  -2  13   29.26    3.70
   2   2 -13   25.60    3.97
  -2  -2  12   60.34    4.93
   2   2 -12   63.78    5.65
  -2  -2  11    1.72    1.23
   2   2 -11    3.14    1.57
   2   2 -10    5.09    0.96
   2   2 -10    5.04    1.59
  -2  -2  10    3.73    1.22
   2   2  -9   52.72    2.79
   2   2  -9   54.57    4.17
   2   2  -9   59.88    4.19
   2   2  -8    1.37    0.75
   2   2  -8    0.59    0.53
   2   2  -8    1.68    0.97
   2   2  -7  236.42    7.67
   2   2  -7  236.88    6.40
   2   2  -6   92.79    4.66
   2   2  -6  102.25    3.62
   2   2  -5  276.35    7.47
   2   2  -5  310.64    5.33
   2   2  -4  301.25    7.44
   2   2  -3  341.20    7.53
   2   2  -3  326.77    5.78
   2   2  -2   23.16    1.61
  -2  -2   2   21.53    1.86
   2   2  -2   21.65    1.89
  -2  -2   1  305.27    7.71
   2   2  -1  299.77    6.83
  -2  -2   1  291.84    6.66
   2   2  -1  292.03    6.47
  -2  -2   0    0.84    0.67
   2   2   0    0.44    0.66
  -2  -2   0   -1.12    1.19
   2   2   0    1.80    0.88
   2   2   1  528.77    9.34
  -2  -2  -1  507.49   10.77
  -2  -2  -1  511.80   10.42
  -2  -2  -2  178.80    5.34
   2   2   2  184.58    5.72
  -2  -2  -2  189.81    7.20
   2   2   3   46.45    2.92
  -2  -2  -3   40.45    1.98
  -2  -2  -3   46.98    4.07
  -2  -2  -4  159.49    7.66
  -2  -2  -4  153.05    3.59
   2   2   4  145.94    5.24
   2   2   5   29.76    2.27
  -2  -2  -5   34.44    3.99
   2   2   5   33.58    2.26
  -2  -2  -5   35.20    1.79
   2   2   6   39.49    2.54
  -2  -2  -6   43.48    4.74
   2   2   6   43.76    2.36
   2   2   7  111.11    3.12
   2   2   7  104.70    3.67
  -2  -2  -8    9.51    2.97
   2   2   8    7.48    0.63
  -2  -2  -9   -0.05    1.88
  -2  -2 -10   27.38    5.09
  -2  -2 -11   18.53    4.82
   2   3 -15   -1.35    2.20
  -2  -3  14   11.14    2.69
   2   3 -14   11.25    3.13
  -2  -3  13    9.93    2.31
   2   3 -13    7.84    2.39
   2   3 -12    1.85    1.71
  -2  -3  12    0.75    1.37
  -2  -3  11    7.70    2.07
   2   3 -11    4.32    1.55
   2   3 -11    4.48    1.08
   2   3 -10   68.56    5.27
  -2  -3  10   76.59    5.19
   2   3 -10   77.76    5.21
   2   3  -9    0.87    0.84
   2   3  -9    0.72    0.99
  -2  -3   9    2.03    1.32
  -2  -3   8  115.46    5.93
   2   3  -8  105.95    5.87
   2   3  -8  114.13    5.23
   2   3  -7   -0.11    0.85
   2   3  -7    2.00    1.19
   2   3  -6  101.52    5.38
   2   3  -5    1.68    0.97
   2   3  -4  179.34    6.89
   2   3  -3    5.69    1.18
   2   3  -3    9.06    1.41
  -2  -3   2  601.63   13.04
   2   3  -2  599.99   12.66
   2   3  -2  582.35   10.98
  -2  -3   1   -1.39    1.22
  -2  -3   1   -0.15    0.85
   2   3  -1   -0.41    0.78
   2   3  -1    1.69    1.07
   2   3   0   41.62    3.47
   2   3   0   45.43    3.57
  -2  -3   0   45.96    3.50
   2   3   1   60.87    4.36
  -2  -3  -1   63.83    4.49
  -2  -3  -1   63.75    4.36
  -2  -3  -2    6.18    1.55
  -2  -3  -2    7.16    1.34
   2   3   2    5.41    1.20
  -2  -3  -3   97.28    4.35
  -2  -3  -3  103.01    6.29
   2   3   3  110.77    6.79
  -2  -3  -4  153.40    4.99
  -2  -3  -4  154.77    8.18
  -2  -3  -5   35.73    2.37
  -2  -3  -5   39.10    4.60
   2   3   6    6.63    1.27
   2   3   6    3.77    0.75
  -2  -3  -6    7.28    2.45
  -2  -3  -6    7.67    1.26
   2   3   7   57.42    3.78
  -2  -3  -7   69.90    6.65
   2   3   7   67.28    3.36
  -2  -3  -8    1.96    2.16
  -2  -3  -9   43.04    6.06
  -2  -3 -10   34.86    5.80
   2   4 -14   22.29    4.37
  -2  -4  14   16.46    3.18
   2   4 -13    0.93    1.62
  -2  -4  13    0.57    1.24
  -2  -4  12    4.27    2.05
   2   4 -12    5.37    2.14
  -2  -4  11    4.66    1.66
   2   4 -11    3.40    1.72
  -2  -4  10  185.84    8.71
   2   4 -10  195.26    8.59
  -2  -4   9    1.50    1.16
   2   4  -9    1.33    0.99
   2   4  -8    5.57    1.89
  -2  -4   8    5.18    1.69
  -2  -4   7   33.25    3.49
   2   4  -7   33.79    3.79
   2   4  -6   72.36    5.27
   2   4  -5   -0.20    1.10
   2   4  -4  116.07    6.54
   2   4  -4  116.12    5.65
   2   4  -3   55.74    4.59
   2   4  -3   58.66    4.06
  -2  -4   2   10.37    1.89
   2   4  -2   11.17    2.16
  -2  -4   2   12.89    2.48
   2   4  -2   14.94    2.25
   2   4  -1   29.31    3.52
   2   4  -1   25.32    2.99
  -2  -4   1   30.14    3.31
  -2  -4   1   32.17    3.74
   2   4   0  156.07    8.12
  -2  -4   0  163.46    7.64
  -2  -4   0  152.03    8.08
   2   4   1   20.17    3.14
  -2  -4  -1   20.26    2.95
  -2  -4  -1   17.06    2.80
   2   4   1   14.75    2.55
   2   4   2   35.31    3.93
   2   4   2   48.94    5.16
  -2  -4  -2   46.39    4.50
  -2  -4  -2   47.34    4.02
   2   4   3    4.02    0.96
  -2  -4  -3    8.42    2.33
  -2  -4  -3    6.22    1.72
  -2  -4  -4   18.62    2.21
   2   4   4   13.85    2.41
  -2  -4  -4   22.53    3.69
  -2  -4  -5    4.82    1.39
   2   4   5    1.18    1.31
  -2  -4  -5    5.69    2.41
  -2  -4  -6   22.06    2.41
   2   4   6   19.62    2.78
  -2  -4  -7    0.57    0.95
  -2  -4  -7    2.06    2.31
  -2  -4  -8   47.99    6.31
  -2  -4  -9    3.86    2.70
   2   5 -14    6.17    2.95
  -2  -5  14   -0.27    2.02
   2   5 -13  157.41   10.19
  -2  -5  13  126.25    8.27
  -2  -5  12   -1.87    2.05
   2   5 -12    1.95    1.43
   2   5 -11   12.86    2.95
  -2  -5  11    7.18    1.79
  -2  -5  10    8.10    2.26
   2   5 -10    7.70    1.94
  -2  -5   9   22.46    3.18
  -2  -5   8  126.01    7.45
  -2  -5   7  230.90    9.94
   2   5  -6   82.98    6.46
  -2  -5   6   75.49    5.63
   2   5  -5   16.07    2.92
   2   5  -4   79.29    6.31
   2   5  -4   76.95    5.14
  -2  -5   4   80.80    6.06
  -2  -5   3    3.35    1.98
   2   5  -3    2.78    1.66
   2   5  -2  170.01    9.25
  -2  -5   2  183.03    9.46
   2   5  -1   31.62    4.07
  -2  -5   1   24.84    3.66
   2   5  -1   30.50    3.71
  -2  -5   0  210.55   10.64
  -2  -5   0  194.70    9.85
   2   5   0  208.90   10.73
   2   5   0  197.75   10.12
  -2  -5  -1   36.26    4.27
  -2  -5  -1   30.32    3.87
   2   5   1   29.17    4.05
   2   5   2   38.82    4.68
  -2  -5  -2   42.43    4.38
  -2  -5  -2   39.31    4.52
  -2  -5  -3   18.67    3.07
   2   5   3   14.47    2.88
  -2  -5  -3   15.03    3.20
  -2  -5  -4   28.78    3.32
  -2  -5  -4   34.89    4.83
   2   5   4   38.36    4.62
   2   5   5   28.07    3.96
  -2  -5  -5   26.30    3.24
  -2  -5  -5   32.21    4.78
  -2  -5  -6   27.82    4.85
  -2  -5  -6   23.55    2.95
  -2  -5  -7    3.73    3.10
  -2  -5  -8    0.15    1.73
  -2  -6  15   -1.55    2.24
  -2  -6  14    1.20    1.60
  -2  -6  13    0.98    1.61
   2   6 -13   -0.03    2.21
  -2  -6  12    4.27    1.73
   2   6 -12    6.41    2.36
  -2  -6  11   72.44    6.32
   2   6 -11   84.97    7.09
  -2  -6  10   29.19    3.93
  -2  -6   9   35.30    4.44
  -2  -6   8   -3.78    2.20
  -2  -6   7  101.54    7.15
  -2  -6   6   39.37    4.69
  -2  -6   6   39.45    4.53
  -2  -6   5  154.69    8.81
  -2  -6   4    9.21    2.57
   2   6  -4    9.61    2.16
   2   6  -3  280.76   11.09
  -2  -6   3  267.71   12.35
  -2  -6   2   12.55    3.04
   2   6  -2   14.06    2.75
  -2  -6   1   43.84    5.25
  -2  -6   0   -5.94    3.52
  -2  -6   0   -4.40    3.28
  -2  -6  -1   31.32    4.19
  -2  -6  -1   43.82    5.25
  -2  -6  -2   22.84    3.78
  -2  -6  -2   34.95    4.80
  -2  -6  -3  154.57   10.20
  -2  -6  -3  180.62    9.76
  -2  -6  -4    2.19    2.09
  -2  -6  -4   -1.52    1.82
  -2  -6  -5    1.10    1.30
  -2  -6  -5    2.66    2.01
  -2  -6  -6    2.17    2.54
  -2  -6  -7    7.45    3.48
  -2  -7  15   -1.56    2.43
  -2  -7  14   -0.68    2.50
  -2  -7  13   -2.52    2.36
   2   7 -13    2.98    2.80
   2   7 -12    8.92    3.13
  -2  -7  12    4.59    1.95
  -2  -7  12    4.99    2.09
  -2  -7  11   33.54    4.68
  -2  -7  11   32.56    4.69
  -2  -7  10    3.23    1.80
  -2  -7  10    3.39    1.55
  -2  -7   9    2.82    1.58
  -2  -7   8    7.54    2.18
  -2  -7   7   18.98    3.53
   2   7  -6   76.05    5.92
  -2  -7   6   90.04    7.23
  -2  -7   5   21.78    3.85
   2   7  -5   16.93    2.83
  -2  -7   4  114.16    8.73
  -2  -7   3    0.02    1.67
  -2  -7   2    7.04    2.46
  -2  -7   1   39.66    5.29
  -2  -7   0  157.72   10.93
  -2  -7  -1   10.72    3.16
  -2  -7  -2   30.55    5.00
  -2  -7  -2   21.18    3.92
  -2  -7  -3   -0.65    1.76
  -2  -7  -3   -3.05    2.94
  -2  -7  -4    0.35    1.67
  -2  -7  -4   -2.12    3.41
  -2  -7  -5   26.78    5.02
  -2  -7  -6   10.48    3.70
  -2  -8  14   41.78    5.76
  -2  -8  13    0.99    1.81
  -2  -8  12    4.90    2.42
  -2  -8  11   -1.90    2.41
  -2  -8  10    5.36    2.34
  -2  -8   9   27.91    4.41
  -2  -8   8   87.92    7.77
  -2  -8   7   14.66    3.35
  -2  -8   6    1.39    1.68
  -2  -8   5    0.42    1.86
  -2  -8   4    0.24    2.19
  -2  -8   3   -0.23    2.12
  -2  -8   2   27.91    4.97
  -2  -8   1   37.22    5.83
  -2  -8   0   -0.11    2.09
  -2  -8  -1    1.49    2.56
  -2  -8  -2   29.58    5.36
  -2  -8  -3   -2.99    2.45
  -2  -8  -4   13.43    3.50
  -2  -8  -4   11.95    3.41
  -2  -9  12   57.90    6.93
  -2  -9  11   78.33    8.06
  -2  -9  10    2.68    2.51
  -2  -9   9    6.00    2.83
  -2  -9   8   63.93    7.20
  -2  -9   7   56.25    6.85
  -2  -9   6   92.26    8.83
  -2  -9   5   54.69    7.09
  -2  -9   4   69.73    8.04
  -2  -9   3   -0.02    2.39
  -2  -9   2    0.45    2.08
  -2  -9   1   -2.16    3.16
  -2  -9   0    8.49    3.53
  -2  -9  -1    2.76    3.08
  -2  -9  -2   48.24    7.10
  -2  -9  -3    1.47    2.49
  -2 -10  10   43.62    6.37
  -2 -10   9   45.62    6.59
  -2 -10   8   10.05    3.56
  -2 -10   7   43.40    6.51
  -2 -10   6    6.09    3.48
  -2 -10   5   83.21    9.03
  -2 -10   4   33.24    6.25
  -2 -10   3   14.42    4.43
  -2 -10   2    5.23    3.22
  -2 -10   1   78.76    9.37
  -2 -10   0    0.53    3.02
  -2 -10  -1    5.06    3.63
  -2 -10  -2    0.73    2.70
  -2 -11   5    6.01    3.98
  -2 -11   4   11.18    4.11
  -2 -11   3    4.92    3.36
  -2 -11   2   12.34    4.45
  -2 -11   1    2.64    2.89
  -2 -11   0   -1.06    3.54
   3 -11   1    4.23    2.43
   3 -11   2    4.27    3.15
   3 -11   3   -2.85    3.28
   3 -11   4   16.37    4.58
   3 -11   5   21.05    4.81
   3 -11   6    0.37    2.69
   3 -10  -5   17.87    4.89
   3 -10  -4    3.27    2.78
   3 -10  -3   -0.09    2.23
   3 -10  -2   -0.37    2.71
   3 -10  -1    9.26    3.63
   3 -10   0   11.98    3.85
   3 -10   1   24.06    5.24
   3 -10   2   71.25    8.23
   3 -10   3    0.08    3.07
   3 -10   4   24.13    4.91
   3 -10   5   -2.08    2.97
   3 -10   6    0.71    2.37
   3 -10   7    1.60    2.62
   3 -10   8   80.85    8.59
   3 -10   9    2.91    2.63
   3 -10  10    2.50    2.51
   3 -10  11   11.49    3.48
   3  -9  -7    9.14    3.41
   3  -9  -6    2.30    2.10
   3  -9  -5   10.64    3.42
   3  -9  -4   14.24    3.87
   3  -9  -3   16.58    3.93
   3  -9  -2    3.17    2.51
   3  -9  -1  101.05    9.17
   3  -9   0    0.84    1.99
   3  -9   1   76.51    7.59
   3  -9   2   35.17    5.59
   3  -9   3    9.41    3.18
   3  -9   4    7.82    2.79
   3  -9   5  233.34   14.12
   3  -9   6    0.60    2.16
   3  -9   7   41.29    6.06
   3  -9   8    2.86    2.58
   3  -9   9    9.13    3.27
   3  -9  10   30.69    5.10
   3  -9  11   54.27    6.51
   3  -8  -9    9.08    3.31
   3  -8  -8    0.71    2.20
   3  -8  -7    4.30    2.22
   3  -8  -6   -1.50    2.47
   3  -8  -5    0.71    1.85
   3  -8  -4   20.09    4.14
   3  -8  -3   17.67    3.79
   3  -8  -2   30.58    4.55
   3  -8  -1   42.45    5.41
   3  -8   0   -1.27    2.40
   3  -8   1   56.13    6.17
   3  -8   2  122.22    9.42
   3  -8   3   16.16    3.89
   3  -8   4   51.00    6.29
   3  -8   5   -1.33    2.67
   3  -8   6   34.95    5.19
   3  -8   7  121.95    9.55
   3  -8   8   99.98    8.80
   3  -8   9   21.47    4.47
   3  -8  10    4.40    2.50
   3  -8  11   40.11    5.40
  -3   8 -11   50.30   10.08
   3  -7 -10    0.06    1.76
   3  -7  -9    0.73    2.09
   3  -7  -8   -0.87    1.83
   3  -7  -7   -1.62    1.90
   3  -7  -6   48.45    5.50
   3  -7  -5    8.22    2.59
   3  -7  -4    0.27    1.27
   3  -7  -3    1.40    1.50
   3  -7  -2    2.63    1.38
   3  -7  -1    1.54    1.36
   3  -7   0    8.23    2.16
   3  -7   1  149.57    9.14
   3  -7   2    5.27    2.13
   3  -7   3    4.90    2.49
   3  -7   4   18.74    3.72
   3  -7   5    8.60    2.69
   3  -7   6   78.32    7.15
   3  -7   7   35.59    4.83
   3  -7   8   22.94    4.17
   3  -7   9   38.70    5.25
   3  -7  10   17.91    3.60
  -3   7 -10   16.02    5.83
   3  -7  11   -0.58    1.68
  -3   7 -11    0.59    3.44
  -3   7 -12   44.02    9.37
   3  -6 -10    6.00    2.68
   3  -6  -9   15.55    3.51
   3  -6  -8   13.61    2.94
   3  -6  -7   10.51    2.47
   3  -6  -6   -0.33    1.50
   3  -6  -5   47.85    4.79
   3  -6  -4   28.92    3.70
   3  -6  -3   89.16    6.14
   3  -6  -2   99.34    6.35
   3  -6  -1   13.50    2.34
   3  -6   0   43.28    4.18
   3  -6   1  136.10    7.69
   3  -6   2   12.35    2.75
   3  -6   3   13.93    2.94
   3  -6   4  213.86   10.61
   3  -6   5   -0.74    1.77
  -3   6  -5   -1.29    1.38
   3  -6   6    8.58    2.16
  -3   6  -6    8.82    2.47
   3  -6   7   16.85    3.12
  -3   6  -7   19.75    3.75
   3  -6   8    8.66    2.30
  -3   6  -8   11.81    3.01
   3  -6   9    3.53    1.58
   3  -6  10   31.80    4.25
  -3   6 -10   33.60    7.11
  -3   6 -11   36.73    7.75
  -3   6 -12   -0.18    4.93
   3  -5 -12   -3.63    3.51
  -3   5  11    3.43    1.72
   3  -5 -11    2.79    2.35
   3  -5 -10    7.94    2.85
   3  -5 -10    3.37    2.59
   3  -5  -9    2.68    1.87
   3  -5  -8   69.06    6.04
   3  -5  -7   12.34    2.56
   3  -5  -6    4.15    1.42
   3  -5  -5   21.59    2.90
   3  -5  -4   40.33    3.87
   3  -5  -3   59.45    4.48
  -3   5   3   61.38    4.23
  -3   5   2  145.72    9.95
   3  -5  -2  131.92    6.49
  -3   5   2  139.31    6.13
  -3   5   1    9.90    1.68
  -3   5   0   16.73    2.23
   3  -5   1  301.90    9.78
  -3   5  -1  291.80    9.56
   3  -5   2   21.39    3.08
  -3   5  -2   17.87    2.54
  -3   5  -3  217.24    9.19
  -3   5  -4   70.70    5.43
  -3   5  -5   32.40    4.03
  -3   5  -6  124.93    8.23
   3  -5   6  107.83    6.90
  -3   5  -7  296.58   12.40
   3  -5   7  239.07   10.44
   3  -5   8    2.80    1.20
  -3   5  -8    4.15    1.78
   3  -5   9   26.97    3.54
  -3   5  -9   28.94    5.82
  -3   5 -10    3.28    3.27
   3  -5  10    4.06    1.45
  -3   5 -11    0.39    3.86
  -3   5 -12    7.11    3.75
   3  -4 -13    5.22    2.12
  -3   4  12    1.47    1.84
   3  -4 -12   -4.05    2.99
   3  -4 -11    1.50    2.15
  -3   4  11    1.87    1.43
   3  -4 -10    5.40    1.80
   3  -4  -9    1.91    1.49
   3  -4  -9   -0.80    2.73
   3  -4  -8   14.84    2.76
   3  -4  -8   19.07    3.05
   3  -4  -7   27.02    3.67
   3  -4  -7   28.05    3.28
   3  -4  -6   50.90    4.03
  -3   4   5   57.98    3.96
  -3   4   5   46.06    6.09
   3  -4  -5   50.70    3.90
   3  -4  -4   45.01    3.58
  -3   4   4   52.38    3.60
   3  -4  -3    1.25    0.88
  -3   4   3    1.67    1.01
  -3   4   3    1.33    1.75
  -3   4   2   49.02    3.36
  -3   4   1   27.68    2.58
  -3   4   0  285.93    8.01
  -3   4  -1   12.04    1.69
  -3   4  -2  132.52    6.07
  -3   4  -3  168.05    7.46
  -3   4  -4  127.39    6.83
  -3   4  -5   16.34    2.59
  -3   4  -6  187.93    8.86
  -3   4  -7    8.42    1.82
  -3   4  -7    6.11    2.13
  -3   4  -8   60.05    4.04
  -3   4  -8   67.78    7.92
  -3   4  -9  125.82   11.08
  -3   4 -10   32.26    5.93
  -3   4 -11   18.08    5.19
  -3   4 -12   23.92    6.35
   3  -3 -14    2.30    2.55
   3  -3 -13   14.32    3.66
  -3   3  12    0.65    1.57
   3  -3 -12   -1.22    2.15
   3  -3 -11    5.52    2.11
  -3   3  11    4.95    1.68
  -3   3  10   24.33    3.19
   3  -3 -10   22.22    3.75
  -3   3  10   26.01    2.14
  -3   3   9    7.10    1.23
   3  -3  -9    4.93    1.88
   3  -3  -8   23.70    3.30
   3  -3  -8   26.14    3.28
  -3   3   7    5.58    1.43
   3  -3  -7    5.52    1.59
   3  -3  -7    1.71    1.97
  -3   3   6   25.12    2.59
  -3   3   6   30.17    4.46
   3  -3  -6   26.16    3.06
   3  -3  -6   23.24    2.64
  -3   3   5    9.14    1.61
  -3   3   5    6.30    1.74
   3  -3  -5    7.49    1.52
  -3   3   4  141.01    8.97
  -3   3   4  152.93    5.69
   3  -3  -4  138.87    5.55
  -3   3   3   97.50    4.29
  -3   3   3  104.35    7.66
  -3   3   2    8.10    1.24
  -3   3   1    6.61    1.20
  -3   3   0  216.46    6.10
  -3   3  -1    9.56    1.31
   3  -3   1    7.98    1.17
   3  -3   2   81.74    3.63
  -3   3  -2   79.46    4.16
   3  -3   3   95.51    4.07
  -3   3  -3   87.78    4.81
   3  -3   4   52.57    3.23
  -3   3  -4   46.00    3.75
   3  -3   5  198.55    6.21
  -3   3  -5  206.26    7.89
  -3   3  -6   14.75    1.87
   3  -3   6   17.36    2.01
  -3   3  -6   14.31    3.10
  -3   3  -7    0.94    2.09
  -3   3  -7    1.01    0.63
   3  -3   7    1.21    0.82
  -3   3  -8   18.78    1.34
   3  -3   8   25.00    2.16
  -3   3  -8   18.52    3.71
   3  -3   9   54.49    2.87
  -3   3  -9   54.27    6.87
  -3   3  -9   49.61    3.53
  -3   3 -10   62.05    7.87
  -3   3 -11   55.42    8.23
  -3   3 -12    2.24    3.81
   3  -2 -14    0.55    1.96
  -3   2  13   11.72    2.62
   3  -2 -13    6.54    2.65
  -3   2  12    6.65    2.05
   3  -2 -12    3.61    2.07
  -3   2  11   60.96    4.98
   3  -2 -11   57.59    5.60
   3  -2 -10    4.48    1.99
  -3   2  10    4.38    1.64
  -3   2   9  168.17    5.04
  -3   2   9  149.19    6.89
   3  -2  -9  143.28    7.81
  -3   2   9  149.63    8.41
  -3   2   8   41.14    3.57
  -3   2   8   38.47    3.37
   3  -2  -8   37.80    3.82
  -3   2   8   37.85    4.18
  -3   2   8   39.12    2.43
  -3   2   7  139.50    6.13
  -3   2   7  132.21    4.38
   3  -2  -7  133.18    6.77
   3  -2  -7  129.96    6.26
  -3   2   6    0.71    0.80
   3  -2  -6    2.10    1.05
  -3   2   6    1.95    1.14
  -3   2   5   49.99    3.33
  -3   2   5   48.59    4.32
   3  -2  -5   47.40    3.25
  -3   2   4   52.17    3.19
  -3   2   4   46.91    4.50
   3  -2  -4   44.03    2.84
  -3   2   3  407.85    8.31
  -3   2   3  355.15   12.97
  -3   2   2  124.08    4.36
  -3   2   1   16.43    1.51
   3  -2   0  183.54    4.73
  -3   2   0  180.77    4.73
   3  -2   1    0.53    0.42
  -3   2  -1    0.78    0.51
   3  -2   2  115.96    3.47
  -3   2  -2  117.03    4.17
   3  -2   3  187.69    4.30
  -3   2  -3  183.59    5.99
  -3   2  -4   23.22    2.12
  -3   2  -4   25.59    3.31
   3  -2   4   22.76    1.49
  -3   2  -5    6.87    0.86
   3  -2   5    7.02    0.81
  -3   2  -5    6.43    2.19
   3  -2   6  105.03    2.88
  -3   2  -6  113.39    7.80
  -3   2  -6  110.65    4.89
   3  -2   7   62.67    1.99
  -3   2  -7   71.60    6.60
  -3   2  -7   64.80    3.66
  -3   2  -8   -1.43    2.53
  -3   2  -8    2.22    0.91
  -3   2  -9   17.97    4.45
  -3   2 -10    3.02    2.78
  -3   2 -11    3.72    3.80
  -3   2 -12   13.74    5.44
   3  -1 -14    9.03    3.01
  -3   1  13    2.81    1.89
   3  -1 -13    2.16    1.85
  -3   1  12   36.29    3.94
   3  -1 -12   32.37    4.35
  -3   1  11    1.29    1.03
   3  -1 -11    4.73    2.04
  -3   1  10    3.26    1.47
  -3   1  10    3.06    1.34
   3  -1 -10    4.75    1.79
  -3   1   9    6.40    1.68
  -3   1   9    4.13    1.34
  -3   1   9    4.74    1.48
   3  -1  -9    7.96    1.99
  -3   1   8   20.45    2.51
  -3   1   8   20.51    2.57
   3  -1  -8   18.23    2.54
  -3   1   8   20.85    2.55
   3  -1  -7  186.59    6.96
  -3   1   7  182.96    6.99
  -3   1   7  206.60    5.48
  -3   1   7  185.24    6.98
  -3   1   6  451.95   10.73
   3  -1  -6  439.79   10.30
  -3   1   6  468.20    7.99
  -3   1   6  453.89   10.34
  -3   1   5    6.41    1.32
  -3   1   5    6.18    1.05
   3  -1  -5    2.93    0.88
  -3   1   5    6.80    1.35
  -3   1   4    7.78    1.57
  -3   1   4    6.61    1.17
  -3   1   4    5.51    0.98
  -3   1   3   67.42    3.34
  -3   1   2   49.33    2.62
  -3   1   1  616.79    8.64
  -3   1   0  494.22    7.24
   3  -1   0  507.31    6.88
  -3   1  -1   33.62    1.75
   3  -1   1   34.11    1.66
  -3   1  -2  155.64    3.72
  -3   1  -2  148.59    6.34
  -3   1  -2  165.18    5.14
   3  -1   2  156.25    3.24
  -3   1  -3  205.79    3.43
  -3   1  -3  214.48    8.31
  -3   1  -3  202.71    4.86
  -3   1  -3  214.24    5.97
   3  -1   3  214.22    3.32
  -3   1  -4   -0.81    1.56
  -3   1  -4    0.26    0.56
  -3   1  -5  181.33    5.72
  -3   1  -5  195.00    9.20
  -3   1  -6   16.41    2.98
  -3   1  -7   98.82    7.74
  -3   1  -8   12.83    3.85
  -3   1  -9   22.18    4.85
  -3   1 -10   54.25    7.35
  -3   1 -11   15.99    4.58
  -3   1 -12   -3.34    4.19
  -3   0  14   15.62    2.95
   3   0 -14   15.42    3.67
  -3   0  13    0.53    1.30
   3   0 -13    4.44    2.32
  -3   0  12   -0.62    1.13
   3   0 -12    2.47    1.73
  -3   0  11   23.14    2.98
  -3   0  11   18.39    2.47
   3   0 -11   20.98    3.04
  -3   0  10   42.01    3.72
  -3   0  10   36.82    3.29
   3   0 -10   41.85    3.87
  -3   0   9   16.20    2.24
   3   0  -9   13.54    2.02
  -3   0   9   13.01    1.88
  -3   0   9   13.56    2.10
  -3   0   8   42.25    2.96
   3   0  -8   46.66    3.30
  -3   0   8   48.07    3.53
  -3   0   8   42.77    3.53
  -3   0   7   16.41    1.68
   3   0  -7   19.21    2.08
  -3   0   7   19.04    2.27
  -3   0   6   96.79    3.60
   3   0  -6  104.54    4.01
  -3   0   6  100.51    4.84
  -3   0   5    4.83    0.74
  -3   0   5    5.31    1.11
   3   0  -5    3.12    0.73
  -3   0   5    5.37    0.99
  -3   0   4  389.90    8.60
  -3   0   4  403.85    7.75
   3   0  -3   38.50    2.27
  -3   0   3   34.37    2.47
  -3   0   2  102.38    3.84
   3   0  -2  105.12    3.74
  -3   0   2  100.99    3.89
  -3   0   1    2.07    0.61
  -3   0   1    2.60    0.59
  -3   0   1    2.04    0.62
   3   0  -1    2.50    0.69
  -3   0   0  142.86    4.74
  -3   0   0  143.83    4.00
  -3   0   0  142.84    4.75
   3   0   0  144.69    4.42
  -3   0   0  139.73    3.83
  -3   0  -1    1.32    0.62
  -3   0  -1    1.37    0.49
  -3   0  -1    0.12    0.68
  -3   0  -1    1.12    0.42
  -3   0  -2  342.37    5.09
  -3   0  -2  336.61    4.06
  -3   0  -2  327.33    9.16
  -3   0  -2  340.89    7.59
  -3   0  -3    9.64    1.90
  -3   0  -4  330.43   11.22
  -3   0  -5   71.75    5.73
  -3   0  -6   14.79    3.15
  -3   0  -7    5.95    2.38
  -3   0  -8   43.19    5.70
  -3   0  -9   15.40    3.60
  -3   0 -10   73.44    8.47
  -3   0 -11   -2.50    3.45
  -3  -1  14    9.09    2.40
   3   1 -14    6.85    2.64
   3   1 -13    5.52    2.09
  -3  -1  13    3.05    1.48
  -3  -1  12   49.06    4.40
   3   1 -12   45.57    4.56
  -3  -1  11   57.31    4.58
   3   1 -11   54.46    4.45
  -3  -1  10   77.32    5.00
   3   1 -10   71.43    4.58
   3   1  -9    7.62    1.51
  -3  -1   9    8.18    1.81
  -3  -1   9    5.62    1.42
  -3  -1   8   48.35    3.70
   3   1  -8   44.57    2.88
  -3  -1   8   45.18    3.59
   3   1  -7    0.47    0.45
   3   1  -7    0.42    0.70
   3   1  -7    1.51    0.71
   3   1  -6   19.56    2.21
   3   1  -6   18.56    1.28
   3   1  -6   18.98    1.76
   3   1  -5   59.96    3.63
   3   1  -5   58.16    3.09
   3   1  -4   16.36    1.86
   3   1  -4   16.37    1.63
   3   1  -3  147.34    4.96
   3   1  -3  149.58    4.86
  -3  -1   2   34.32    2.37
   3   1  -2   32.80    2.20
   3   1  -2   33.27    1.53
  -3  -1   2   35.17    1.70
   3   1  -2   32.25    2.27
  -3  -1   1  245.03    6.00
   3   1  -1  236.31    5.50
  -3  -1   1  240.38    5.60
   3   1  -1  246.73    6.27
   3   1  -1  249.47    5.39
  -3  -1   0  175.89    4.91
   3   1   0  178.18    4.39
   3   1   0  182.40    5.33
   3   1   0  175.23    5.37
  -3  -1   0  174.27    5.62
  -3  -1  -1   92.64    3.73
   3   1   1   90.77    2.88
   3   1   1   98.26    3.97
  -3  -1  -1   94.67    4.70
   3   1   1   94.88    4.37
  -3  -1  -2   91.92    3.44
   3   1   2   99.99    2.76
   3   1   2  102.86    4.05
  -3  -1  -2  109.16    5.54
  -3  -1  -2   88.61    4.00
   3   1   3   57.45    1.82
  -3  -1  -3   60.08    4.58
   3   1   3   55.48    3.02
   3   1   4    0.06    0.70
  -3  -1  -4    1.18    1.38
   3   1   4   -0.05    0.47
  -3  -1  -5   39.75    4.42
  -3  -1  -6   81.93    6.84
  -3  -1  -7   43.60    5.49
  -3  -1  -8   25.50    4.33
  -3  -1  -9    1.16    2.09
  -3  -1 -10    1.47    2.32
  -3  -1 -11    4.40    3.03
  -3  -2  14    3.66    2.05
   3   2 -14   -0.34    1.42
  -3  -2  13   58.74    5.19
   3   2 -13   66.41    5.63
  -3  -2  12    4.48    1.58
   3   2 -12    6.43    1.95
  -3  -2  11   48.57    4.38
   3   2 -11   49.42    4.00
  -3  -2  10   46.80    4.13
   3   2 -10   44.63    3.48
   3   2 -10   41.11    2.86
  -3  -2   9   71.37    4.87
   3   2  -9   61.86    4.80
   3   2  -9   70.11    3.95
   3   2  -9   59.06    3.41
   3   2  -8   21.84    1.89
  -3  -2   8   21.51    2.65
   3   2  -8   21.46    2.66
   3   2  -8   18.49    1.98
   3   2  -7  416.14   10.96
   3   2  -7  428.24    6.52
   3   2  -6   37.55    3.19
   3   2  -6   41.10    1.58
   3   2  -5   35.75    2.89
   3   2  -4    6.78    1.33
  -3  -2   3    3.53    0.73
   3   2  -3    6.00    0.68
   3   2  -3    6.38    1.20
  -3  -2   2  198.02    6.34
   3   2  -2  183.39    5.69
   3   2  -2  185.65    4.69
  -3  -2   2  186.74    5.17
  -3  -2   1  436.70    9.50
   3   2  -1  414.09    8.08
   3   2  -1  425.31    8.16
  -3  -2   1  418.25    8.71
   3   2   0    9.70    1.21
   3   2   0    9.12    1.45
  -3  -2   0   11.39    1.71
  -3  -2   0    8.27    1.46
  -3  -2  -1   -0.93    1.20
  -3  -2  -1    0.29    0.80
   3   2   1    0.13    0.44
  -3  -2  -2    3.83    1.05
   3   2   2    3.29    0.70
  -3  -2  -2    2.55    1.15
   3   2   2    2.31    0.78
   3   2   3   37.25    2.05
  -3  -2  -3   38.80    2.05
   3   2   3   41.25    3.90
  -3  -2  -3   44.44    4.17
   3   2   3   39.31    2.82
   3   2   4   58.85    2.36
   3   2   4   66.43    3.66
  -3  -2  -4   64.58    5.35
  -3  -2  -4   59.95    1.75
   3   2   5   37.31    1.63
  -3  -2  -5   44.69    4.88
   3   2   5   40.94    2.79
  -3  -2  -6   16.58    3.33
  -3  -2  -7    1.26    1.94
  -3  -2  -8   -0.05    2.22
  -3  -2  -9   31.32    5.70
  -3  -2 -10    6.87    3.34
  -3  -3  15    3.99    2.20
   3   3 -14    7.24    2.48
  -3  -3  14    8.56    2.45
  -3  -3  13    1.13    1.53
   3   3 -13    0.90    1.37
  -3  -3  12    7.79    2.53
   3   3 -12    3.70    1.62
  -3  -3  11   72.92    5.54
   3   3 -11   66.44    4.61
   3   3 -11   56.62    3.80
  -3  -3  10  146.02    7.45
   3   3 -10  138.77    5.99
  -3  -3   9    4.20    1.60
   3   3  -9    3.09    1.04
  -3  -3   8  114.27    6.11
   3   3  -8  109.87    4.08
   3   3  -7    1.84    1.01
   3   3  -7    1.85    0.60
   3   3  -6    1.81    1.24
   3   3  -5  367.83   10.20
   3   3  -5  350.46    6.61
   3   3  -4  311.92    9.10
   3   3  -4  311.29    6.38
  -3  -3   3   36.62    3.29
   3   3  -3   37.85    3.12
   3   3  -3   38.33    2.48
  -3  -3   2   22.69    2.72
   3   3  -2   23.93    2.46
   3   3  -2   25.43    2.32
  -3  -3   2   24.36    2.52
   3   3  -1   67.38    4.06
  -3  -3   1   73.46    4.32
   3   3  -1   66.35    3.96
  -3  -3   1   66.38    4.63
  -3  -3   0   12.55    2.11
  -3  -3   0   15.49    2.48
  -3  -3   0   14.76    2.13
   3   3   0   15.03    1.87
   3   3   1  341.06    8.89
  -3  -3  -1  327.82   10.33
  -3  -3  -1  350.52   11.21
   3   3   2   92.10    4.57
  -3  -3  -2   92.31    5.96
  -3  -3  -2   97.69    5.49
   3   3   2   84.95    5.79
   3   3   3  204.71    6.65
  -3  -3  -3  194.82    6.37
  -3  -3  -3  209.24    9.64
  -3  -3  -4    0.24    0.46
   3   3   4    1.46    1.02
  -3  -3  -4   -0.34    1.53
   3   3   4   -0.42    0.83
   3   3   5   16.15    1.74
  -3  -3  -5   18.17    3.58
   3   3   5   16.46    2.12
  -3  -3  -5   16.39    1.36
   3   3   6    1.40    0.41
   3   3   6    2.45    1.00
  -3  -3  -7   43.40    5.64
  -3  -3  -8    1.92    2.08
  -3  -3  -9   50.23    6.90
  -3  -4  15    0.13    1.59
  -3  -4  14    2.11    1.71
  -3  -4  13    1.53    1.53
   3   4 -13    1.58    1.51
  -3  -4  12   25.95    3.78
   3   4 -12   27.40    3.42
  -3  -4  11   12.25    2.77
   3   4 -11   12.25    2.16
  -3  -4  10    7.13    2.14
   3   4 -10    4.94    1.30
  -3  -4   9    2.14    1.43
   3   4  -9    1.71    0.86
  -3  -4   8   66.92    5.19
  -3  -4   7    3.94    1.76
   3   4  -7    3.80    1.55
  -3  -4   6   36.05    3.73
   3   4  -6   33.10    3.59
   3   4  -6   33.75    2.66
   3   4  -5   24.46    3.11
   3   4  -5   27.49    2.43
  -3  -4   4  105.09    6.31
   3   4  -4  113.20    6.40
   3   4  -4  103.20    4.87
  -3  -4   3   30.73    3.43
   3   4  -3   42.08    3.87
   3   4  -3   41.30    3.31
   3   4  -2  155.65    7.33
  -3  -4   2  153.28    7.72
   3   4  -2  157.21    6.74
  -3  -4   2  141.19    7.57
   3   4  -1   20.04    2.91
  -3  -4   1   20.44    2.69
  -3  -4   1   22.97    3.28
  -3  -4   1   19.91    3.03
   3   4   0  176.66    8.04
  -3  -4   0  149.39    8.28
   3   4   0  178.12    8.30
  -3  -4   0  171.50    7.81
  -3  -4  -1   15.98    2.80
   3   4   1   14.40    2.62
  -3  -4  -1   16.58    2.91
   3   4   1   12.49    2.38
   3   4   2   45.97    4.20
  -3  -4  -2   48.60    4.43
  -3  -4  -2   49.16    4.85
   3   4   3   91.37    5.61
  -3  -4  -3  100.25    5.62
  -3  -4  -3   92.12    6.85
   3   4   4   65.95    4.65
  -3  -4  -4   59.29    3.89
  -3  -4  -4   65.31    6.04
  -3  -4  -5   12.90    1.82
   3   4   5   15.59    2.32
  -3  -4  -5   16.75    3.75
  -3  -4  -6   55.03    6.36
  -3  -4  -7    9.12    3.59
  -3  -4  -8    2.35    2.73
  -3  -5  15    9.38    2.37
  -3  -5  14   13.67    3.23
  -3  -5  13    3.49    1.69
   3   5 -13    3.12    1.89
  -3  -5  12   10.54    2.67
   3   5 -12   15.63    2.79
  -3  -5  11   14.70    3.06
   3   5 -11   16.42    2.53
  -3  -5  10   29.47    3.94
   3   5 -10   29.02    3.22
  -3  -5   9   21.38    3.42
  -3  -5   8  156.19    8.49
  -3  -5   7   -1.96    2.16
   3   5  -6   12.81    1.98
  -3  -5   6    7.52    1.93
  -3  -5   5   -1.52    1.83
   3   5  -5    1.23    0.96
   3   5  -4   26.36    2.91
   3   5  -4   21.62    3.15
  -3  -5   4   21.88    3.21
  -3  -5   3   -0.51    1.43
   3   5  -3    0.19    1.09
   3   5  -2   68.84    5.90
  -3  -5   2   75.88    6.20
   3   5  -1   52.23    5.12
   3   5  -1   51.49    4.86
  -3  -5   1   42.30    4.38
  -3  -5   1   49.82    5.30
  -3  -5   0    0.46    1.84
   3   5   0    2.71    1.59
  -3  -5   0    0.49    1.65
   3   5   1    7.10    2.01
  -3  -5  -1    6.26    1.37
  -3  -5  -1    7.64    2.37
   3   5   2   36.79    4.41
  -3  -5  -2   51.24    5.05
  -3  -5  -2   43.82    4.87
  -3  -5  -3    3.50    2.44
  -3  -5  -3    2.85    1.86
   3   5   3    1.16    1.22
   3   5   4   17.99    2.96
  -3  -5  -4   16.84    2.52
  -3  -5  -4   25.82    4.53
  -3  -5  -5   37.44    3.65
  -3  -5  -5   43.88    5.78
  -3  -5  -6    3.25    2.50
  -3  -5  -7    4.19    2.81
  -3  -6  15   13.68    3.32
  -3  -6  14   26.06    4.33
  -3  -6  13   17.21    3.52
  -3  -6  12    2.33    1.68
   3   6 -12    2.91    1.64
   3   6 -11  129.47    7.71
  -3  -6  11  101.70    7.81
  -3  -6  10    3.89    1.75
  -3  -6   9  108.91    7.68
  -3  -6   8   34.56    4.13
  -3  -6   7   -0.10    2.00
  -3  -6   6   79.17    6.62
  -3  -6   5  314.68   13.06
  -3  -6   5  316.45   13.04
  -3  -6   4   11.31    2.85
   3   6  -4   10.07    2.21
   3   6  -3   24.95    3.45
  -3  -6   3   30.16    4.28
   3   6  -2    0.24    1.00
  -3  -6   2    0.92    1.50
  -3  -6   1   -1.98    2.43
  -3  -6   1   -6.53    3.54
  -3  -6   0   55.08    6.24
  -3  -6   0   45.47    5.17
  -3  -6  -1    9.93    2.64
  -3  -6  -1   10.73    2.69
  -3  -6  -2   76.22    6.96
  -3  -6  -2   65.05    6.53
  -3  -6  -3    1.76    1.92
  -3  -6  -3    2.16    2.48
  -3  -6  -4   -0.43    1.46
  -3  -6  -4    1.74    2.55
  -3  -6  -5   -1.05    1.93
  -3  -6  -6   11.60    3.95
  -3  -7  15   -0.42    2.14
  -3  -7  14    3.00    2.23
  -3  -7  13   -1.89    2.34
  -3  -7  12   45.09    5.73
  -3  -7  11    1.08    2.19
  -3  -7  10   -0.92    2.16
   3   7  -9   78.04    5.72
  -3  -7   9   75.02    6.94
  -3  -7   8  124.25    8.87
   3   7  -8  117.20    6.86
  -3  -7   8  110.69    8.34
   3   7  -7   -0.51    0.96
  -3  -7   7   -0.95    1.42
  -3  -7   7   -1.81    1.88
   3   7  -6   83.52    5.98
  -3  -7   6   73.08    6.71
   3   7  -5   51.56    4.85
  -3  -7   5   48.62    5.49
  -3  -7   4   76.85    7.24
  -3  -7   3  238.25   12.95
  -3  -7   2   54.28    6.51
  -3  -7   1   63.04    7.20
  -3  -7   0   11.31    3.02
  -3  -7  -1   17.40    4.10
  -3  -7  -1    7.85    2.12
  -3  -7  -2   15.01    3.38
  -3  -7  -2   22.05    4.42
  -3  -7  -3   28.89    4.68
  -3  -7  -3   25.97    4.63
  -3  -7  -4    0.08    2.10
  -3  -7  -5   31.16    5.60
  -3  -8  13   -1.84    2.54
  -3  -8  12   -2.08    2.33
  -3  -8  11    6.53    2.40
  -3  -8  10    1.05    1.96
  -3  -8   9   37.05    5.10
  -3  -8   8    0.33    1.57
  -3  -8   7   38.02    5.31
  -3  -8   6   15.97    3.67
  -3  -8   5    8.99    3.39
  -3  -8   4    1.66    2.08
  -3  -8   3    5.10    2.60
  -3  -8   2   73.34    8.05
  -3  -8   1   22.55    4.70
  -3  -8   0    4.85    2.58
  -3  -8  -1    7.85    3.34
  -3  -8  -2   26.49    5.33
  -3  -8  -3    5.90    2.73
  -3  -9  12   23.34    4.73
  -3  -9  11   -0.46    1.85
  -3  -9  10    6.80    2.82
  -3  -9   9    6.22    2.82
  -3  -9   8    8.67    3.23
  -3  -9   7    3.89    2.42
  -3  -9   6   44.31    6.30
  -3  -9   5   18.25    4.24
  -3  -9   4    2.81    2.53
  -3  -9   3    2.41    2.38
  -3  -9   2   -1.94    2.34
  -3  -9   1   -1.14    2.35
  -3  -9   0    0.03    2.48
  -3  -9  -1   37.48    6.90
  -3  -9  -2    5.33    3.81
  -3 -10   9   52.88    7.06
  -3 -10   8    2.83    2.92
  -3 -10   7   39.23    6.29
  -3 -10   6   -0.15    2.16
  -3 -10   5   13.02    4.11
  -3 -10   4   29.71    5.77
  -3 -10   3   43.36    7.17
  -3 -10   2   11.02    4.23
  -3 -10   1   16.23    4.51
  -3 -10   0    5.32    3.85
  -3 -10  -1    7.86    4.21
   4 -10  -4    0.50    2.36
   4 -10  -3   -0.44    2.43
   4 -10  -2    1.04    2.40
   4 -10  -1    4.86    3.04
   4 -10   0   36.20    6.08
   4 -10   1   35.11    6.05
   4 -10   2    1.23    2.03
   4 -10   3    1.11    2.06
   4 -10   4    0.10    2.68
   4 -10   5   11.76    3.24
   4 -10   6    5.82    2.48
   4 -10   7   52.31    7.10
   4 -10   8    1.95    2.56
   4 -10   9   -0.49    2.65
   4 -10  10    6.49    3.02
   4  -9  -7   11.60    3.62
   4  -9  -6    0.68    1.82
   4  -9  -5    1.32    1.97
   4  -9  -4    0.12    2.00
   4  -9  -3   50.36    6.51
   4  -9  -2   -0.91    2.21
   4  -9  -1   25.85    4.70
   4  -9   0    3.85    2.26
   4  -9   1   11.78    3.33
   4  -9   2   15.59    3.71
   4  -9   3   56.10    6.71
   4  -9   4   29.20    5.12
   4  -9   5    5.01    2.51
   4  -9   6   -3.24    3.27
   4  -9   7   -0.71    2.75
   4  -9   8    2.99    2.36
   4  -9   9    3.27    2.40
   4  -9  10   30.49    5.07
   4  -8  -9    1.96    2.25
   4  -8  -8   10.57    3.61
   4  -8  -7    2.25    1.92
   4  -8  -6    4.86    2.31
   4  -8  -5    1.12    1.74
   4  -8  -4   44.15    5.70
   4  -8  -3   -0.21    1.39
   4  -8  -2   21.47    4.04
   4  -8  -1   16.28    3.39
   4  -8   0   74.91    6.92
   4  -8   1   19.25    3.68
   4  -8   2   27.92    4.23
   4  -8   3   53.41    6.03
   4  -8   4  152.51   10.44
   4  -8   5   25.25    4.51
   4  -8   6    5.05    2.31
   4  -8   7   71.63    7.33
   4  -8   8    1.05    2.00
   4  -8   9   44.51    5.77
   4  -8  10   19.87    3.92
   4  -7 -10    0.42    2.22
   4  -7  -9   -1.90    2.01
   4  -7  -8    3.37    2.25
   4  -7  -7   18.36    3.62
   4  -7  -6   11.38    2.68
   4  -7  -5   24.73    3.88
   4  -7  -4    2.22    2.08
   4  -7  -3    1.58    1.74
   4  -7  -2    6.92    2.28
   4  -7  -1   32.75    4.17
   4  -7   0   41.92    4.63
   4  -7   1  105.33    7.56
   4  -7   2   21.82    3.32
   4  -7   3   -2.13    2.39
   4  -7   4   19.47    3.79
   4  -7   5    4.41    2.40
   4  -7   6  210.01   11.54
   4  -7   7   38.21    5.02
   4  -7   8    2.74    2.02
   4  -7   9   15.23    3.15
  -4   7 -10   30.62    7.69
  -4   7 -11    3.84    4.53
   4  -6 -10    3.02    2.36
   4  -6  -9   10.59    2.98
   4  -6  -8    5.03    2.15
   4  -6  -7   15.78    3.07
   4  -6  -6   -0.97    1.66
   4  -6  -5    2.59    1.59
   4  -6  -4  111.78    6.99
   4  -6  -3   36.62    4.06
   4  -6  -2    8.61    2.33
   4  -6  -1   47.76    4.47
   4  -6   0    0.65    1.24
   4  -6   1   -0.95    1.68
   4  -6   2   59.38    5.10
   4  -6   3  143.10    7.87
   4  -6   4    3.07    1.73
   4  -6   5   17.26    3.31
  -4   6  -5   14.45    3.03
  -4   6  -6   -1.15    1.97
   4  -6   6    4.03    2.10
   4  -6   7   21.14    3.63
  -4   6  -7   21.91    4.00
   4  -6   8    9.13    2.56
   4  -6   9   92.25    6.64
  -4   6  -9   88.88   11.35
  -4   6 -10    1.86    4.25
  -4   6 -11   25.22    7.54
  -4   5  12    0.01    1.80
  -4   5  11   17.97    3.19
   4  -5 -10   38.46    5.29
   4  -5  -9    0.18    1.58
   4  -5  -8    1.66    1.60
   4  -5  -7   21.27    3.14
   4  -5  -6    3.07    1.52
   4  -5  -5  118.49    6.55
   4  -5  -4   38.34    3.66
   4  -5  -3   53.37    4.27
  -4   5   3   55.14    6.21
   4  -5  -2   42.49    3.76
   4  -5  -1  128.42    6.38
  -4   5   1  134.03    6.21
  -4   5   0    6.32    1.49
   4  -5   0    5.42    1.50
   4  -5   1   73.02    4.80
  -4   5  -1   64.10    4.67
   4  -5   2    0.93    0.93
  -4   5  -2    3.61    1.51
   4  -5   3  153.11    7.14
  -4   5  -3  162.92    8.18
  -4   5  -4   17.05    2.87
   4  -5   4   12.94    2.13
   4  -5   5    1.11    1.22
  -4   5  -5   -1.42    1.96
   4  -5   6   81.79    5.41
  -4   5  -6   81.24    6.65
  -4   5  -7    6.46    2.32
   4  -5   7    9.61    2.16
  -4   5  -8   -1.85    4.07
  -4   5  -9   37.23    7.32
  -4   5 -10    4.03    3.53
  -4   5 -11   -3.57    4.63
  -4   4  13   -0.10    1.63
  -4   4  12    5.86    2.34
  -4   4  11   -1.31    1.68
   4  -4  -9    1.06    1.55
   4  -4  -8   81.50    5.94
   4  -4  -7    0.25    1.05
   4  -4  -6  134.73    6.58
  -4   4   6  139.89   10.67
  -4   4   5   30.70    5.22
   4  -4  -5   23.89    2.78
  -4   4   4  135.75    5.88
   4  -4  -4  133.78    6.15
  -4   4   3   25.72    3.83
  -4   4   3   25.07    2.55
   4  -4  -3   22.26    2.45
  -4   4   2  144.62    6.01
  -4   4   1  104.73    5.03
  -4   4   0  351.14    9.29
  -4   4  -1  149.57    6.23
  -4   4  -2   58.93    4.18
  -4   4  -3   33.33    3.43
  -4   4  -4   55.05    4.61
  -4   4  -5  334.61   11.87
  -4   4  -6  126.06    7.42
  -4   4  -6  100.18    9.47
  -4   4  -7   24.05    2.90
   4  -4   7   18.81    2.07
  -4   4  -7   21.68    4.51
  -4   4  -8    4.26    2.98
   4  -4   8    6.56    1.29
  -4   4  -9   36.25    3.98
  -4   4  -9   41.52    6.80
  -4   4 -10    1.38    4.08
  -4   4 -11   29.69    6.90
   4  -3 -14   -3.76    3.47
  -4   3  13   -0.39    1.53
   4  -3 -13   -6.25    3.59
  -4   3  12   -0.07    1.45
   4  -3 -12   -5.04    3.22
  -4   3  11    4.56    1.85
   4  -3 -11    0.02    2.86
   4  -3 -10    1.94    2.28
  -4   3  10    5.48    1.87
  -4   3   9    9.23    2.07
  -4   3   8   14.76    3.49
   4  -3  -8    8.08    2.17
  -4   3   7    4.61    2.10
   4  -3  -7    4.79    1.60
  -4   3   6    3.26    1.36
   4  -3  -6    5.47    1.47
  -4   3   5   76.51    4.55
  -4   3   5   70.18    6.59
   4  -3  -5   72.33    4.36
  -4   3   4  153.51    6.11
  -4   3   4  166.39    9.96
  -4   3   3  240.51    7.37
  -4   3   2   15.60    1.85
  -4   3   1   58.20    3.35
  -4   3   0   12.17    1.65
   4  -3   1   23.46    2.06
  -4   3  -1   23.12    2.27
   4  -3   2  315.95    7.28
  -4   3  -2  318.59    8.48
   4  -3   3  137.35    4.71
  -4   3  -3  138.56    6.23
   4  -3   4   73.21    3.38
  -4   3  -4   67.86    4.67
  -4   3  -5   -0.58    1.15
   4  -3   5    0.10    0.47
  -4   3  -6   61.21    3.41
   4  -3   6   59.80    2.85
  -4   3  -6   62.43    7.06
   4  -3   7   25.86    1.75
  -4   3  -7   26.92    5.02
  -4   3  -7   24.90    3.00
   4  -3   8  125.43    3.19
  -4   3  -8  137.51   11.47
  -4   3  -8  129.02    6.76
  -4   3  -9   -2.30    3.66
  -4   3  -9    0.98    1.27
  -4   3 -10   48.10    7.68
  -4   3 -11   13.39    5.16
   4  -2 -14   -3.13    2.92
  -4   2  14    2.60    1.85
  -4   2  13    4.55    2.18
   4  -2 -13   -1.65    2.52
  -4   2  12   10.00    2.50
   4  -2 -12    9.38    2.48
  -4   2  11   46.26    4.50
   4  -2 -11   44.31    4.90
  -4   2  10    0.70    1.11
   4  -2 -10   -3.05    2.20
   4  -2  -9    4.00    1.66
  -4   2   9    5.21    1.45
  -4   2   8    8.01    2.22
  -4   2   8    5.45    1.45
  -4   2   7   23.64    2.78
  -4   2   7   24.47    2.75
  -4   2   7   29.81    3.65
  -4   2   6   63.79    4.22
  -4   2   6   66.93    5.21
   4  -2  -6   60.50    4.10
  -4   2   5   82.72    4.62
  -4   2   5   88.91    6.15
   4  -2  -5   77.47    4.34
  -4   2   4   22.13    2.30
  -4   2   4   16.53    2.72
  -4   2   3    8.59    1.39
  -4   2   2    1.40    0.74
  -4   2   1  274.49    6.91
   4  -2  -1  268.85    6.44
  -4   2   0   12.25    1.43
   4  -2   0   14.11    1.45
  -4   2  -1   42.24    2.60
   4  -2   1   42.84    2.39
  -4   2  -2   81.18    3.73
   4  -2   2   76.08    3.05
  -4   2  -3   21.89    2.19
  -4   2  -3   21.42    3.12
   4  -2   3   19.88    1.51
  -4   2  -4    5.61    1.15
  -4   2  -4    4.43    1.98
  -4   2  -4    7.64    1.60
   4  -2   4    5.97    0.82
  -4   2  -5   94.10    7.58
  -4   2  -5   90.71    5.04
   4  -2   5   87.96    2.64
   4  -2   6   18.55    0.92
  -4   2  -6   20.39    3.76
  -4   2  -6   21.01    2.58
  -4   2  -7   47.63    6.05
  -4   2  -7   46.45    3.75
  -4   2  -8    1.90    2.37
  -4   2  -9    9.72    3.89
  -4   2 -10    6.38    3.58
  -4   2 -11   29.46    7.00
  -4   1  14   21.60    3.64
   4  -1 -14   18.94    3.80
  -4   1  13    7.29    2.29
   4  -1 -13    5.82    2.35
  -4   1  12    5.74    2.08
   4  -1 -12    8.53    2.40
  -4   1  11    6.01    1.74
  -4   1  11    4.82    1.67
   4  -1 -11    2.69    1.42
  -4   1  10   11.39    2.12
  -4   1  10   11.77    2.28
   4  -1 -10    9.85    2.04
  -4   1   9  125.45    6.41
  -4   1   9  115.35    5.82
   4  -1  -9  117.99    6.53
  -4   1   8   51.40    4.02
  -4   1   8   46.91    3.58
   4  -1  -8   45.67    3.81
  -4   1   7  126.24    5.96
  -4   1   7  122.24    5.52
  -4   1   7  118.50    5.92
  -4   1   6    2.47    0.97
  -4   1   6    1.62    0.87
  -4   1   6    2.45    0.92
  -4   1   5  121.04    5.52
  -4   1   5  111.34    5.22
  -4   1   4   73.33    5.03
  -4   1   4   95.10    4.61
  -4   1   3  207.21    6.54
  -4   1   2    2.39    0.78
   4  -1  -2    1.39    0.67
  -4   1   2    2.20    0.81
  -4   1   1  269.65    6.66
   4  -1  -1  277.10    6.40
  -4   1   1  260.38    6.53
  -4   1   0    9.02    1.16
  -4   1   0    8.56    1.21
   4  -1   0    7.70    1.05
  -4   1   0    7.47    1.38
  -4   1  -1   29.15    1.95
  -4   1  -1   30.67    2.13
  -4   1  -1   28.25    2.82
   4  -1   1   30.44    1.94
  -4   1  -1   29.95    2.60
  -4   1  -2   16.69    1.50
  -4   1  -2   15.99    1.44
  -4   1  -2   15.05    2.43
   4  -1   2   15.75    1.31
  -4   1  -2   14.01    1.89
  -4   1  -3  113.51    3.18
  -4   1  -3  111.37    6.75
  -4   1  -3  105.60    3.66
  -4   1  -3  121.57    5.36
  -4   1  -4   10.28    2.11
  -4   1  -4   11.90    1.87
  -4   1  -5  120.09    5.64
  -4   1  -5  126.74    8.30
  -4   1  -6    6.48    2.59
  -4   1  -7    3.73    2.37
  -4   1  -8    7.40    3.40
  -4   1  -9   54.73    7.54
  -4   1 -10    3.85    3.05
  -4   1 -11    7.18    4.12
  -4   0  14    5.45    2.16
  -4   0  13    7.81    2.31
   4   0 -13    7.29    2.37
  -4   0  12   40.98    4.33
   4   0 -12   39.42    4.33
  -4   0  11   -0.01    0.65
   4   0 -11    1.35    1.23
  -4   0  11    2.10    1.58
  -4   0  10   22.86    2.89
  -4   0  10   19.91    2.25
   4   0 -10   25.55    2.96
  -4   0   9    4.72    1.05
  -4   0   9    5.53    1.67
   4   0  -9    4.63    1.22
  -4   0   8   56.37    4.11
  -4   0   8   48.97    2.79
   4   0  -8   50.15    3.37
  -4   0   8   50.49    4.04
  -4   0   7   59.84    4.04
  -4   0   7   52.56    2.56
  -4   0   7   52.46    4.03
  -4   0   6  324.18    9.48
  -4   0   6  322.00    5.66
  -4   0   5  150.99    3.69
  -4   0   5  147.95    6.15
  -4   0   4  373.45    9.35
  -4   0   3    6.89    1.31
  -4   0   3    9.61    1.50
  -4   0   2  256.86    6.96
  -4   0   2  246.39    6.90
  -4   0   1   31.89    2.32
  -4   0   1   28.43    2.25
  -4   0   1   29.57    2.26
  -4   0   0   35.80    2.36
  -4   0   0   35.45    2.88
  -4   0   0   38.02    2.91
  -4   0   0   36.22    2.26
  -4   0  -1  311.53    6.67
  -4   0  -1  306.08    9.08
  -4   0  -1  315.20    8.43
  -4   0  -1  326.28    6.19
  -4   0  -2  244.99    4.57
  -4   0  -2  245.60    5.47
  -4   0  -2  231.86    8.75
  -4   0  -3    5.38    0.78
  -4   0  -3    9.28    2.21
  -4   0  -4   35.15    4.22
  -4   0  -5    1.07    1.61
  -4   0  -6    3.28    2.46
  -4   0  -7  127.51    9.54
  -4   0  -8   34.84    5.53
  -4   0  -9   10.23    3.52
  -4   0 -10   -3.64    3.20
  -4  -1  15   -1.06    1.79
  -4  -1  14    2.68    1.71
  -4  -1  13    2.60    1.78
   4   1 -13    4.65    1.99
  -4  -1  12   25.68    3.52
   4   1 -12   27.07    3.32
  -4  -1  11   10.72    2.34
   4   1 -11    9.31    1.98
  -4  -1  10    3.43    1.54
   4   1 -10    4.12    1.34
  -4  -1   9    5.61    1.62
   4   1  -9    2.64    1.04
  -4  -1   8   59.24    4.25
   4   1  -8   54.55    2.80
  -4  -1   8   47.62    4.02
   4   1  -8   48.97    3.28
  -4  -1   7   20.29    2.62
   4   1  -7   21.08    2.71
   4   1  -7   19.20    2.09
   4   1  -6  226.36    7.82
   4   1  -6  207.37    6.62
   4   1  -5  221.44    7.31
   4   1  -5  202.17    6.46
   4   1  -4   -0.04    0.63
   4   1  -4    6.01    1.15
   4   1  -3   13.37    1.75
  -4  -1   3   15.34    1.95
   4   1  -3   16.26    1.82
  -4  -1   3   13.90    1.09
  -4  -1   2  342.23    8.25
   4   1  -2  338.88    7.88
  -4  -1   2  322.21    6.51
   4   1  -2  331.68    8.20
  -4  -1   1  291.87    7.45
   4   1  -1  301.88    6.95
   4   1  -1  287.78    6.66
  -4  -1   1  288.29    7.23
   4   1  -1  295.07    7.73
   4   1   0    1.32    0.76
  -4  -1   0    0.23    0.71
  -4  -1   0    1.54    0.96
   4   1   0    1.76    0.65
   4   1   0    1.80    0.87
  -4  -1  -1  150.61    5.34
   4   1   1  149.46    4.38
  -4  -1  -1  151.25    4.59
   4   1   1  144.62    5.49
  -4  -1  -1  147.21    6.57
   4   1   2   12.46    1.20
   4   1   2   13.16    2.05
  -4  -1  -2   12.39    2.26
  -4  -1  -2    9.19    1.29
   4   1   2   12.73    1.77
  -4  -1  -2   12.41    1.15
   4   1   3   20.24    2.73
  -4  -1  -3   24.98    3.47
   4   1   3   24.01    2.25
  -4  -1  -4  216.75   10.15
  -4  -1  -5   16.05    3.27
  -4  -1  -6   25.68    4.37
  -4  -1  -7   10.27    3.39
  -4  -1  -8    5.35    2.69
  -4  -1  -9    5.57    3.02
  -4  -1 -10   23.38    5.16
  -4  -2  15   15.71    3.40
  -4  -2  14    0.87    1.45
  -4  -2  13    5.24    1.84
   4   2 -13    6.14    1.88
  -4  -2  12    0.03    1.35
   4   2 -12    0.41    1.01
   4   2 -11    7.83    1.49
  -4  -2  11    8.43    2.12
  -4  -2  10   55.73    4.62
   4   2 -10   53.16    3.13
   4   2 -10   46.97    3.45
  -4  -2   9   94.80    5.78
   4   2  -9   89.86    3.38
   4   2  -8   14.09    1.03
  -4  -2   8   13.71    2.30
   4   2  -8   11.73    1.82
  -4  -2   7   12.94    2.13
   4   2  -7   11.17    2.08
   4   2  -7   11.88    1.76
   4   2  -6   -0.31    0.88
   4   2  -6    0.47    0.65
   4   2  -5   45.16    3.56
   4   2  -5   42.37    3.15
  -4  -2   4  165.99    6.58
   4   2  -4  160.52    6.19
   4   2  -4  162.12    6.13
  -4  -2   3   38.17    3.16
   4   2  -3   34.12    2.75
   4   2  -3   35.64    1.97
  -4  -2   3   37.32    2.32
   4   2  -3   31.55    2.75
  -4  -2   2   72.02    4.29
   4   2  -2   68.81    3.62
   4   2  -2   74.34    3.29
  -4  -2   2   77.08    3.72
   4   2  -2   73.87    4.11
  -4  -2   1   32.17    2.98
   4   2  -1   28.47    2.29
   4   2  -1   28.29    2.34
  -4  -2   1   28.26    2.59
   4   2  -1   28.70    2.61
  -4  -2   0    0.12    0.73
   4   2   0    0.54    0.62
  -4  -2   0    0.77    1.00
   4   2   0    0.05    0.57
   4   2   1   78.51    3.40
  -4  -2  -1   86.89    5.36
   4   2   1   83.78    4.51
  -4  -2  -1   74.08    4.82
  -4  -2  -2   21.84    2.44
  -4  -2  -2   22.53    3.04
   4   2   2   21.39    1.71
   4   2   2   23.47    2.85
   4   2   2   21.73    2.35
  -4  -2  -3    1.59    0.52
  -4  -2  -3    1.25    1.60
   4   2   3    2.20    0.59
   4   2   3    1.75    0.93
   4   2   4   37.95    1.85
  -4  -2  -4   40.92    4.62
   4   2   4   40.03    3.17
  -4  -2  -5   35.67    4.73
   4   2   5   34.78    2.92
  -4  -2  -6   17.85    3.78
  -4  -2  -7   20.29    4.28
  -4  -2  -8   19.48    4.57
  -4  -2  -9    4.83    3.20
  -4  -3  15    4.90    2.59
  -4  -3  14    5.97    2.49
  -4  -3  13   60.65    5.83
   4   3 -12   19.23    2.40
  -4  -3  12   21.45    3.50
   4   3 -12   16.79    2.38
   4   3 -11   16.77    1.96
  -4  -3  11   12.27    2.56
   4   3 -11   11.59    1.95
  -4  -3  10   10.63    2.37
   4   3 -10   12.22    1.40
   4   3 -10    9.93    1.87
  -4  -3   9  123.53    7.00
   4   3  -9  120.05    3.46
   4   3  -8  182.07    3.08
   4   3  -8  178.58    7.23
  -4  -3   7  287.88    9.96
   4   3  -6   39.69    3.53
   4   3  -5  173.72    7.14
   4   3  -5  170.10    3.60
  -4  -3   4   21.86    2.90
   4   3  -4   16.48    2.22
   4   3  -4   16.48    1.43
  -4  -3   3  131.29    6.51
   4   3  -3  134.23    5.88
   4   3  -3  133.27    4.63
  -4  -3   3  139.55    5.82
  -4  -3   2  103.52    5.91
   4   3  -2  101.19    5.06
   4   3  -2  102.74    4.56
  -4  -3   2  102.00    4.99
  -4  -3   1   43.05    4.02
   4   3  -1   42.09    3.12
  -4  -3   1   41.82    3.50
   4   3   0   32.43    2.69
  -4  -3   0   33.44    3.38
  -4  -3   0   30.27    3.46
   4   3   1  107.18    4.65
   4   3   1  116.31    6.25
  -4  -3  -1  125.59    6.93
  -4  -3  -1  104.17    6.36
   4   3   2   53.91    3.16
  -4  -3  -2   59.19    5.15
  -4  -3  -2   66.88    4.95
   4   3   2   56.23    4.01
   4   3   3   16.65    1.72
  -4  -3  -3   16.92    3.16
  -4  -3  -3   17.16    2.03
   4   3   3   15.11    2.12
  -4  -3  -4    1.14    0.51
   4   3   4    2.37    0.79
  -4  -3  -4    1.04    1.47
   4   3   4   -0.18    0.82
   4   3   5    6.79    0.96
  -4  -3  -5    7.64    2.72
   4   3   5    5.68    1.44
  -4  -3  -6   21.22    4.26
  -4  -3  -7   17.67    4.30
  -4  -3  -8   33.95    5.92
  -4  -4  16    2.93    2.26
  -4  -4  15    4.48    2.54
  -4  -4  14    1.12    1.72
  -4  -4  13   17.92    3.45
  -4  -4  12   30.78    4.25
   4   4 -12   34.53    3.22
  -4  -4  11   53.60    5.31
   4   4 -11   47.36    3.18
  -4  -4  10   34.66    4.30
   4   4 -10   35.88    2.44
  -4  -4   9   24.94    3.61
   4   4  -9   25.62    1.81
  -4  -4   8   88.55    6.19
   4   4  -8   89.05    3.12
   4   4  -8   88.62    3.45
  -4  -4   7   14.83    2.84
   4   4  -7   11.69    1.27
  -4  -4   6  360.08   11.93
   4   4  -6  374.48    7.37
  -4  -4   5  187.46    8.66
   4   4  -5  187.78    8.40
   4   4  -5  196.25    5.75
   4   4  -4   11.95    2.25
  -4  -4   4   11.54    2.34
   4   4  -4   13.09    1.82
  -4  -4   3  158.47    8.19
   4   4  -3  163.23    7.46
   4   4  -3  168.73    6.42
  -4  -4   3  176.20    8.20
   4   4  -2  230.89    8.79
  -4  -4   2  241.26    9.07
  -4  -4   2  223.56   10.10
  -4  -4   1    0.21    1.69
   4   4  -1    1.22    0.81
  -4  -4   1    2.97    1.67
   4   4   0  130.24    6.34
   4   4   0  124.26    6.92
  -4  -4   0  128.48    7.87
  -4  -4   0  125.86    7.05
  -4  -4  -1    4.56    1.92
   4   4   1    2.67    0.97
  -4  -4  -1    6.13    2.40
   4   4   2   18.30    2.30
  -4  -4  -2   24.47    3.32
  -4  -4  -2   18.85    3.24
   4   4   3   50.88    3.61
  -4  -4  -3   63.56    4.67
  -4  -4  -3   56.42    5.65
   4   4   4   23.06    2.35
  -4  -4  -4   23.61    2.31
  -4  -4  -4   26.39    4.37
   4   4   4   24.39    3.06
  -4  -4  -5   25.94    4.65
  -4  -4  -6   20.44    4.43
  -4  -4  -7    4.08    3.31
  -4  -5  16   12.23    3.40
  -4  -5  15    1.02    1.71
  -4  -5  14    2.73    2.19
  -4  -5  13    0.69    1.79
  -4  -5  12    2.29    2.01
   4   5 -11    0.66    0.73
  -4  -5  11    0.06    1.43
  -4  -5  10   10.01    2.56
   4   5 -10   11.52    1.64
  -4  -5   9   98.70    7.24
   4   5  -9   94.45    4.53
  -4  -5   8    0.76    1.44
   4   5  -8    1.33    0.83
  -4  -5   7    8.60    2.33
   4   5  -7    9.19    1.58
  -4  -5   6   34.46    4.16
   4   5  -6   35.14    2.93
  -4  -5   5   10.95    2.45
   4   5  -5   12.04    1.93
  -4  -5   4    9.42    2.07
  -4  -5   3  139.81    8.68
  -4  -5   2    5.78    2.03
  -4  -5   2    8.10    2.64
   4   5  -2    8.96    2.16
  -4  -5   2    1.07    1.67
   4   5  -1   26.52    3.46
  -4  -5   1   28.71    4.38
   4   5  -1   21.09    3.06
  -4  -5   1   24.54    3.37
   4   5   0  111.99    6.92
  -4  -5   0  113.26    7.24
  -4  -5   0  115.02    8.66
   4   5   1   13.04    2.31
  -4  -5  -1   16.10    3.30
  -4  -5  -1   16.88    3.73
   4   5   2   19.10    2.74
  -4  -5  -2   24.80    3.77
  -4  -5  -2   21.77    3.97
   4   5   3   19.17    2.69
  -4  -5  -3   24.10    3.50
  -4  -5  -3   25.56    4.41
  -4  -5  -4   23.51    4.54
  -4  -5  -4   17.43    2.53
  -4  -5  -5   29.97    5.41
  -4  -5  -6   13.59    4.03
  -4  -6  16   -2.08    2.54
  -4  -6  15    3.52    2.08
  -4  -6  14   14.22    3.46
  -4  -6  13   20.32    4.10
  -4  -6  12   -3.39    2.69
   4   6 -11   39.37    3.58
  -4  -6  11   33.29    4.75
  -4  -6  10    0.90    1.78
   4   6  -9   33.19    3.10
  -4  -6   9   24.42    4.07
  -4  -6   8   20.22    3.37
   4   6  -8   23.15    2.68
  -4  -6   7   14.20    2.78
   4   6  -7   17.00    2.41
  -4  -6   6   26.40    3.90
  -4  -6   5   35.00    4.73
  -4  -6   4   -0.84    1.68
  -4  -6   4   -2.36    2.52
   4   6  -4    0.35    1.01
  -4  -6   3    4.61    2.20
   4   6  -3    3.01    1.46
  -4  -6   2    3.57    2.21
  -4  -6   1    0.42    1.65
  -4  -6   1   -5.32    3.20
  -4  -6   0   22.37    3.70
  -4  -6   0   24.77    4.34
  -4  -6  -1   53.38    6.33
  -4  -6  -1   41.26    5.21
  -4  -6  -2   11.87    3.02
  -4  -6  -2    5.70    2.51
  -4  -6  -3    5.51    2.64
  -4  -6  -3    2.81    2.41
  -4  -6  -4    2.72    2.50
  -4  -6  -5    4.63    3.16
  -4  -7  15   -3.40    2.65
  -4  -7  14   11.65    3.30
  -4  -7  13    8.40    2.82
  -4  -7  12   43.30    5.77
  -4  -7  11   34.90    5.07
  -4  -7  10    7.43    2.12
  -4  -7   9    6.19    2.50
  -4  -7   8    7.01    2.28
   4   7  -7  141.40    7.51
  -4  -7   7  111.16    8.70
  -4  -7   6   53.35    6.11
   4   7  -6   70.15    5.59
  -4  -7   6   58.96    6.50
  -4  -7   5   21.18    4.03
   4   7  -5   21.53    3.33
  -4  -7   4    3.20    2.27
  -4  -7   3   78.70    7.76
  -4  -7   2   24.03    4.63
  -4  -7   1   68.38    7.69
  -4  -7   0   25.35    4.75
  -4  -7   0   19.67    3.51
  -4  -7  -1   -0.36    2.08
  -4  -7  -1   -5.27    3.26
  -4  -7  -2   -0.39    2.20
  -4  -7  -2    7.73    3.20
  -4  -7  -3    0.31    2.33
  -4  -7  -4    9.65    3.35
  -4  -8  13    8.30    3.22
  -4  -8  12    1.80    2.25
  -4  -8  11   -2.01    2.10
  -4  -8  11   -2.56    2.85
  -4  -8  10   82.19    8.09
  -4  -8  10   95.02    8.71
  -4  -8   9   46.42    6.04
  -4  -8   9   57.46    6.79
  -4  -8   8   -3.19    2.65
  -4  -8   7   -1.46    2.55
  -4  -8   6   34.97    5.40
  -4  -8   5    3.03    2.37
  -4  -8   4  118.20   10.00
  -4  -8   3   15.89    4.00
  -4  -8   2   11.12    3.54
  -4  -8   1   17.33    4.10
  -4  -8   0   14.61    3.99
  -4  -8  -1    2.81    2.81
  -4  -8  -1   -2.55    3.41
  -4  -8  -2   25.27    4.97
  -4  -9  11   -1.34    2.53
  -4  -9  10   -1.00    2.37
  -4  -9   9    2.29    2.12
  -4  -9   8    4.30    2.52
  -4  -9   7   48.64    6.51
  -4  -9   6    0.67    2.20
  -4  -9   5   12.13    3.84
  -4  -9   4    6.83    3.57
  -4  -9   3   14.70    4.34
  -4  -9   2    4.21    3.12
  -4  -9   1   19.23    4.70
  -4  -9   0    7.68    3.71
  -4 -10   8   12.96    4.25
  -4 -10   7   12.97    4.16
  -4 -10   6   -0.32    2.42
  -4 -10   5    4.89    3.46
  -4 -10   4   27.44    5.98
  -4 -10   3   17.15    5.12
  -4 -10   2    1.92    2.69
  -4 -10   1    3.01    2.87
   5 -10  -3    4.91    3.36
   5 -10  -2   -1.15    2.52
   5 -10  -1   54.41    7.46
   5 -10   0    1.76    2.68
   5 -10   1    6.80    3.35
   5 -10   2   -0.72    2.87
   5 -10   3   12.03    3.74
   5 -10   4    1.80    2.69
   5 -10   5   41.82    6.50
   5 -10   6   36.64    6.21
   5 -10   7   36.68    6.09
   5 -10   8   31.61    5.61
   5  -9  -6    2.12    2.20
   5  -9  -5    4.94    2.54
   5  -9  -4   11.33    3.54
   5  -9  -3   12.44    3.53
   5  -9  -2    1.37    2.19
   5  -9  -1   16.54    3.93
   5  -9   0   -2.32    2.56
   5  -9   1    4.54    2.41
   5  -9   2   35.02    5.63
   5  -9   3   32.72    5.42
   5  -9   4   -0.08    2.10
   5  -9   5   -0.80    2.52
   5  -9   6    1.97    2.26
   5  -9   7   -0.23    2.75
   5  -9   8    0.26    2.14
   5  -9   9   58.87    6.78
   5  -8  -8    6.02    2.75
   5  -8  -7    2.37    2.47
   5  -8  -6   -0.11    2.03
   5  -8  -5   23.96    4.18
   5  -8  -4   59.58    6.38
   5  -8  -3    2.34    2.10
   5  -8  -2    4.82    2.37
   5  -8  -1   21.69    3.87
   5  -8   0    3.22    2.07
   5  -8   1   69.53    6.85
   5  -8   2   45.40    5.70
   5  -8   3   12.43    3.23
   5  -8   4    1.72    1.72
   5  -8   5   44.44    5.82
   5  -8   6    6.87    2.63
   5  -8   7   14.24    3.24
   5  -8   8   -0.73    1.97
   5  -7 -10    2.67    2.55
   5  -7  -9    1.97    2.12
   5  -7  -8   22.61    4.25
   5  -7  -7   11.84    3.03
   5  -7  -6    1.99    1.70
   5  -7  -5   -0.35    1.81
   5  -7  -4    4.84    2.08
   5  -7  -3   55.69    5.55
   5  -7  -2  265.35   11.63
   5  -7  -1   19.99    3.45
   5  -7   0   13.15    2.80
   5  -7   1   10.39    2.52
   5  -7   2   93.95    7.16
   5  -7   3    3.07    1.64
   5  -7   4  157.01    9.61
   5  -7   5    3.03    1.86
   5  -7   6   76.88    6.67
   5  -7   7    3.64    1.70
   5  -7   8   25.48    3.85
  -5   7  -9   12.14    5.13
   5  -6 -10    7.60    2.80
   5  -6  -9    6.48    2.59
   5  -6  -8    5.90    2.50
   5  -6  -7    3.35    1.65
   5  -6  -6    1.60    1.49
   5  -6  -5   78.84    6.08
   5  -6  -4   12.17    2.37
   5  -6  -3   13.46    2.67
   5  -6  -2    9.31    2.36
   5  -6  -1  122.09    7.01
   5  -6   0   23.22    3.26
   5  -6   1  109.07    6.71
   5  -6   2   51.50    4.67
   5  -6   3  140.14    7.72
   5  -6   4    6.91    1.96
   5  -6   5   41.38    4.40
  -5   6  -6    0.94    1.34
   5  -6   6    1.07    1.22
   5  -6   7   10.76    2.26
   5  -6   8  112.61    6.64
  -5   6  -8  110.45   12.90
  -5   6  -9   36.59    8.03
  -5   6 -10   -0.01    4.82
  -5   5  12   -1.68    2.10
  -5   5  11   19.19    3.43
   5  -5 -10    1.97    2.12
  -5   5  10    0.41    0.95
   5  -5  -9   14.05    3.03
   5  -5  -8    3.42    1.91
   5  -5  -7   34.89    4.05
   5  -5  -6    3.29    1.61
   5  -5  -5   20.71    2.90
   5  -5  -4    5.88    1.64
   5  -5  -3    1.65    1.22
   5  -5  -2   21.65    2.87
   5  -5  -1  100.96    5.69
   5  -5   0    1.85    1.18
   5  -5   1   18.35    2.60
  -5   5  -1   16.56    2.58
   5  -5   2   50.08    4.09
  -5   5  -2   52.93    4.62
  -5   5  -3    0.51    1.26
   5  -5   3    0.23    0.95
   5  -5   4    9.91    1.94
  -5   5  -4   11.90    2.44
   5  -5   5   85.77    5.22
  -5   5  -5   84.72    6.76
  -5   5  -6    5.57    1.71
   5  -5   6    5.78    1.57
   5  -5   7    6.35    1.61
  -5   5  -7   -0.97    4.36
  -5   5  -8   17.71    5.16
  -5   5  -9    1.62    3.75
  -5   5 -10   -6.46    6.50
  -5   4  13    2.55    2.03
  -5   4  12    5.28    2.17
  -5   4  11    0.53    1.35
  -5   4  10    1.04    1.32
  -5   4  10    2.28    1.21
   5  -4  -9   36.52    4.49
  -5   4   9   37.19    3.23
   5  -4  -8   74.36    5.73
   5  -4  -7    1.60    1.50
  -5   4   6   71.19    7.54
   5  -4  -6   66.90    4.86
  -5   4   5    0.18    1.16
   5  -4  -5    0.05    0.81
  -5   4   4   -1.64    2.19
   5  -4  -4    0.00    0.93
   5  -4  -3  190.43    7.25
  -5   4   2   96.17    5.13
   5  -4  -2   91.43    4.94
   5  -4  -1   11.10    1.76
  -5   4   1   12.18    2.04
   5  -4   0   22.04    2.49
  -5   4   0   19.85    2.49
   5  -4   1   13.11    1.94
  -5   4  -1   15.27    2.20
  -5   4  -2   -0.61    1.11
  -5   4  -3  165.56    7.85
  -5   4  -4   21.10    3.08
  -5   4  -5    9.20    2.25
  -5   4  -6   -1.34    1.66
  -5   4  -6   -2.50    3.74
   5  -4   7    2.80    0.93
  -5   4  -7    2.07    3.22
  -5   4  -8   21.62    6.05
  -5   4  -8   18.12    3.16
  -5   4  -9   14.24    5.13
  -5   4 -10   -2.40    5.53
  -5   3  14    1.52    1.74
  -5   3  13    1.52    1.65
  -5   3  12   23.00    3.89
  -5   3  11    4.38    2.03
  -5   3  11    7.26    1.78
  -5   3  10   -1.95    1.74
  -5   3  10    0.19    1.09
  -5   3   9   28.13    3.53
  -5   3   9   29.39    2.87
  -5   3   8    3.54    2.26
  -5   3   8    2.49    1.12
  -5   3   7   27.62    4.08
   5  -3  -7   23.01    3.00
  -5   3   6  168.70    9.97
   5  -3  -6  169.97    7.25
  -5   3   5   30.20    4.30
   5  -3  -5   27.82    2.90
  -5   3   4   11.78    1.97
   5  -3  -4   10.85    1.87
  -5   3   3   96.22    5.08
   5  -3  -3   95.51    4.71
  -5   3   2  153.90    6.27
   5  -3  -2  150.81    5.77
  -5   3   1  121.34    5.37
  -5   3   0  242.65    7.50
  -5   3  -1    1.20    0.89
  -5   3  -2  152.85    6.33
   5  -3   3    0.21    0.56
  -5   3  -3   -0.05    0.70
  -5   3  -4   68.28    6.92
  -5   3  -4   70.69    5.06
   5  -3   4   68.05    3.32
  -5   3  -5   16.62    3.79
   5  -3   5   16.80    1.64
  -5   3  -5   15.03    2.54
  -5   3  -5   19.34    2.46
  -5   3  -6  100.64    3.66
  -5   3  -6  111.21    3.41
  -5   3  -6  119.39   10.61
  -5   3  -6  115.17    6.87
   5  -3   6  116.98    3.76
  -5   3  -7   34.85    5.69
  -5   3  -7   39.12    4.25
   5  -3   7   34.74    1.68
  -5   3  -8   58.73    8.32
  -5   3  -8   52.15    4.98
  -5   3  -9    4.51    3.87
  -5   3 -10    9.38    5.19
  -5   2  14   10.77    3.14
  -5   2  13    7.30    2.52
  -5   2  12   11.07    2.78
  -5   2  11    9.24    2.37
  -5   2  10   -0.37    1.02
  -5   2  10    0.76    1.19
  -5   2  10    0.80    1.00
  -5   2   9   12.16    2.34
  -5   2   9   10.95    2.24
  -5   2   9   12.44    1.97
  -5   2   8   12.20    2.45
  -5   2   8    8.26    1.90
  -5   2   8    8.96    1.62
  -5   2   7   20.50    3.08
  -5   2   7   15.82    2.35
  -5   2   7   18.93    2.23
  -5   2   6   23.33    2.70
  -5   2   6   28.46    3.68
   5  -2  -6   22.16    2.69
  -5   2   6   24.32    2.54
  -5   2   5   63.34    4.38
  -5   2   5   59.24    5.19
   5  -2  -5   63.76    4.14
  -5   2   5   63.05    3.93
  -5   2   4   39.49    3.34
  -5   2   3   77.42    4.45
  -5   2   2   23.53    2.43
  -5   2   1   66.09    3.85
  -5   2   0    2.23    0.86
  -5   2  -1  284.39    7.39
  -5   2  -1  304.31    9.16
   5  -2   1  311.55    7.13
  -5   2  -2  117.49    4.97
  -5   2  -2  111.62    7.52
  -5   2  -2  117.28    5.99
   5  -2   2  123.96    4.33
  -5   2  -3   55.82    3.17
  -5   2  -3   53.99    3.47
  -5   2  -3   56.33    5.74
  -5   2  -3   56.59    4.35
   5  -2   3   56.95    2.88
  -5   2  -4  138.12    4.43
  -5   2  -4  141.77    9.62
  -5   2  -4  138.72    6.09
   5  -2   4  145.72    4.28
  -5   2  -4  139.76    7.00
  -5   2  -5   49.26    6.03
  -5   2  -5   53.89    4.54
  -5   2  -6    5.89    2.48
  -5   2  -6   11.02    2.33
  -5   2  -7   56.50    7.34
  -5   2  -7   54.01    4.79
  -5   2  -8    6.46    3.39
  -5   2  -9    4.15    3.77
  -5   2 -10   50.03    8.73
  -5   1  15    5.54    2.47
  -5   1  14    9.80    2.62
  -5   1  13   10.87    2.86
   5  -1 -13    2.27    2.32
  -5   1  12   17.07    3.12
   5  -1 -12   14.09    2.46
  -5   1  11   15.12    2.83
  -5   1  10    0.31    0.84
  -5   1  10    0.25    1.06
  -5   1   9   46.51    4.25
  -5   1   9   46.59    3.43
  -5   1   8    0.87    0.73
  -5   1   8    1.22    1.07
  -5   1   7   51.99    4.13
  -5   1   7   53.09    3.48
  -5   1   6   13.80    1.87
  -5   1   6   14.53    2.20
  -5   1   6   13.23    2.15
  -5   1   5    9.45    1.65
  -5   1   5   13.86    2.16
  -5   1   4   51.77    3.66
  -5   1   4   49.69    3.72
  -5   1   3  137.18    5.83
  -5   1   3  137.79    5.95
  -5   1   2   26.80    2.56
  -5   1   2   27.22    2.58
  -5   1   1   11.60    1.63
  -5   1   1   12.67    1.80
  -5   1   1   12.04    1.89
  -5   1   0    0.44    0.56
  -5   1   0   -0.50    1.26
  -5   1   0    3.34    1.05
  -5   1   0    1.51    1.09
  -5   1  -1   58.93    3.19
  -5   1  -1   62.90    3.53
  -5   1  -1   57.13    4.71
  -5   1  -1   59.12    4.21
  -5   1  -2    1.95    1.26
  -5   1  -2    2.46    0.73
  -5   1  -2    3.26    0.92
  -5   1  -2    3.89    1.47
  -5   1  -3   -0.13    0.65
  -5   1  -3    0.92    0.64
  -5   1  -3    1.37    1.26
  -5   1  -4  137.87    8.94
  -5   1  -4  143.81    7.11
  -5   1  -5    5.57    2.69
  -5   1  -6    0.75    2.11
  -5   1  -7   79.15    8.35
  -5   1  -8    8.23    4.31
  -5   1  -9   11.70    5.21
  -5   1 -10   26.44    6.42
  -5   0  15   11.54    3.24
  -5   0  14    4.94    2.24
  -5   0  13   13.91    2.96
  -5   0  12   21.99    3.43
   5   0 -12   17.57    2.75
  -5   0  11    3.63    1.88
   5   0 -11   -0.59    1.91
  -5   0  10  162.02    7.83
  -5   0  10  132.89    4.78
  -5   0   9    7.87    1.11
  -5   0   9   11.33    2.26
  -5   0   8    4.83    0.81
  -5   0   8    5.45    1.62
  -5   0   7  135.15    6.58
  -5   0   7  120.57    3.21
  -5   0   6  102.66    2.90
  -5   0   6   97.16    5.62
  -5   0   5    3.34    0.72
  -5   0   5    4.50    1.26
  -5   0   4  195.55    7.22
  -5   0   4  196.64    7.37
  -5   0   3    6.76    1.05
  -5   0   3    6.46    1.44
  -5   0   3    7.12    1.58
  -5   0   2   92.08    4.60
  -5   0   2   83.70    3.96
  -5   0   2   85.21    4.53
  -5   0   1  308.87    8.19
  -5   0   1  290.39    8.22
  -5   0   1  318.18    9.40
  -5   0   1  301.69    8.04
  -5   0   0   15.82    1.91
  -5   0   0   15.25    2.13
  -5   0   0   17.84    2.40
  -5   0   0   16.88    1.86
  -5   0  -1   88.81    4.11
  -5   0  -1   90.86    5.64
  -5   0  -1   96.91    4.03
  -5   0  -2   11.70    1.46
  -5   0  -2   13.16    1.35
  -5   0  -2   12.95    2.47
  -5   0  -3    8.86    0.93
  -5   0  -3    8.83    2.39
  -5   0  -3    7.73    1.17
  -5   0  -4    5.30    2.12
  -5   0  -5   25.77    4.34
  -5   0  -6    5.99    2.73
  -5   0  -7   67.99    7.67
  -5   0  -8   21.15    5.29
  -5   0  -9   -3.90    3.99
  -5  -1  16    1.22    1.73
  -5  -1  15   -0.94    1.66
  -5  -1  14   -1.69    1.95
  -5  -1  13   42.88    4.78
  -5  -1  12   -0.34    1.34
   5   1 -12   -2.10    1.62
  -5  -1  11   15.09    2.81
   5   1 -11   11.32    1.59
  -5  -1  10   59.40    5.01
  -5  -1   9   61.15    4.83
  -5  -1   8    2.82    1.55
  -5  -1   7   73.29    4.88
   5   1  -7   68.99    4.21
  -5  -1   6  183.30    7.49
   5   1  -6  184.70    7.38
  -5  -1   6  174.29    7.61
   5   1  -6  178.38    6.71
  -5  -1   5  139.24    6.36
   5   1  -5  149.62    6.40
   5   1  -5  143.48    6.05
  -5  -1   4  349.67    9.82
   5   1  -4  345.78    9.42
  -5  -1   4  330.43    5.24
   5   1  -4  332.86    9.23
  -5  -1   3    2.40    1.12
  -5  -1   3    2.09    0.64
   5   1  -3    2.45    0.97
   5   1  -3    4.05    1.24
  -5  -1   2   64.00    4.12
   5   1  -2   63.33    3.72
   5   1  -2   63.57    4.03
  -5  -1   2   61.36    3.42
  -5  -1   1   52.42    3.58
   5   1  -1   50.74    3.15
  -5  -1   1   52.59    3.56
  -5  -1   1   49.10    3.41
   5   1  -1   51.97    3.72
  -5  -1   0  318.03    8.79
   5   1   0  325.39    7.58
  -5  -1   0  316.39    9.65
  -5  -1   0  323.99    8.17
   5   1   0  332.46    9.21
  -5  -1  -1  225.62    7.40
  -5  -1  -1  219.71    8.85
   5   1   1  237.08    7.81
  -5  -1  -1  225.76    6.37
  -5  -1  -2   60.48    4.15
  -5  -1  -2   67.52    5.41
  -5  -1  -2   71.04    3.16
  -5  -1  -3   39.62    4.55
  -5  -1  -4   49.94    5.56
  -5  -1  -5   28.24    4.45
  -5  -1  -6   34.01    5.25
  -5  -1  -7   14.03    3.94
  -5  -1  -8    0.08    2.48
  -5  -1  -9   12.44    4.04
  -5  -2  16    2.41    1.62
  -5  -2  15    5.36    2.04
  -5  -2  14   -1.74    1.75
  -5  -2  13    0.92    1.57
  -5  -2  12   -1.20    1.46
  -5  -2  11   -0.62    1.45
   5   2 -11   -1.91    0.93
  -5  -2  10   31.34    3.78
   5   2 -10   30.06    3.15
  -5  -2   9   18.47    2.90
   5   2  -9   17.23    2.42
  -5  -2   8   35.70    3.72
   5   2  -8   29.33    3.02
  -5  -2   7   30.57    3.33
   5   2  -7   29.36    2.90
  -5  -2   6    1.69    1.10
   5   2  -6    1.98    0.98
   5   2  -6    2.17    0.97
  -5  -2   5    3.20    1.18
   5   2  -5    2.91    1.04
   5   2  -5    2.91    1.12
   5   2  -4   14.03    2.01
  -5  -2   4   17.20    1.58
  -5  -2   4   13.54    2.25
   5   2  -4   13.72    1.99
  -5  -2   3  257.59    8.86
   5   2  -3  249.86    7.93
  -5  -2   3  259.13    6.61
   5   2  -3  251.79    8.28
  -5  -2   2   34.42    3.21
   5   2  -2   33.76    2.86
   5   2  -2   32.79    2.50
  -5  -2   2   37.02    2.88
   5   2  -2   34.32    3.16
  -5  -2   1    4.61    1.65
  -5  -2   1    2.60    1.03
   5   2  -1    2.58    0.94
   5   2  -1    2.73    1.03
  -5  -2   0   79.48    5.14
   5   2   0   78.93    3.93
  -5  -2   0   79.06    5.10
   5   2   0   80.63    4.77
   5   2   1   34.28    2.52
   5   2   1   34.52    3.34
  -5  -2  -1   38.10    4.00
   5   2   1   34.76    3.20
  -5  -2  -1   31.38    3.41
  -5  -2  -2    0.46    0.71
  -5  -2  -2    3.07    1.52
  -5  -2  -2    0.84    0.59
   5   2   2    1.49    0.70
   5   2   2    2.18    1.07
   5   2   3  158.51    4.59
  -5  -2  -3  164.91    4.58
  -5  -2  -3  160.84    9.23
   5   2   3  168.36    6.95
  -5  -2  -3  160.40    3.90
  -5  -2  -4    2.60    1.89
   5   2   4    5.15    1.47
  -5  -2  -5   18.07    3.74
  -5  -2  -6   45.61    6.08
  -5  -2  -7    2.26    2.73
  -5  -2  -8    2.40    3.07
  -5  -3  16   13.08    3.51
  -5  -3  15   12.35    3.41
  -5  -3  14    5.58    2.58
  -5  -3  13   -0.75    1.98
  -5  -3  12    2.80    1.64
  -5  -3  11   56.40    5.32
  -5  -3  10   19.48    3.13
  -5  -3   9   -1.61    1.85
  -5  -3   8   11.89    2.27
  -5  -3   7   50.84    4.49
  -5  -3   6   27.38    3.31
  -5  -3   5   62.09    4.77
   5   3  -5   53.98    4.16
   5   3  -5   54.69    2.17
  -5  -3   4    8.42    2.26
   5   3  -4    6.86    1.07
   5   3  -4    5.23    1.32
  -5  -3   4    5.80    1.13
  -5  -3   3    2.48    1.53
   5   3  -3    0.19    0.53
   5   3  -3   -0.98    0.98
  -5  -3   3    1.67    1.14
  -5  -3   2   12.43    2.37
   5   3  -2   10.98    1.73
  -5  -3   2    9.21    1.75
  -5  -3   1    0.50    1.31
   5   3  -1    2.17    1.01
  -5  -3   1    1.53    1.03
   5   3   0   88.09    4.43
   5   3   0   97.41    5.60
  -5  -3   0  102.78    6.12
  -5  -3   0   89.37    6.42
   5   3   1   47.09    3.12
  -5  -3  -1   53.04    4.89
  -5  -3  -1   42.44    4.27
  -5  -3  -2    5.39    1.70
   5   3   2    4.13    0.97
  -5  -3  -2    3.62    1.94
   5   3   3   23.69    2.05
  -5  -3  -3   27.96    2.50
  -5  -3  -3   24.66    4.00
  -5  -3  -4    2.77    2.52
  -5  -3  -5    3.27    2.25
  -5  -3  -6   39.16    5.77
  -5  -3  -7   20.41    4.85
  -5  -4  16    0.30    1.74
  -5  -4  15    4.38    2.62
  -5  -4  14   51.31    6.13
  -5  -4  13   18.22    3.78
  -5  -4  12    3.65    2.24
  -5  -4  11   15.00    3.46
  -5  -4  10   23.58    3.85
  -5  -4   9    9.69    2.71
  -5  -4   8  131.05    8.08
  -5  -4   7   25.50    3.62
  -5  -4   6   99.86    6.69
   5   4  -6   91.35    3.14
  -5  -4   5  100.11    6.74
   5   4  -5  102.59    4.02
  -5  -4   4  104.20    6.98
   5   4  -4  101.37    4.60
  -5  -4   3    6.71    2.09
  -5  -4   3    5.12    1.47
  -5  -4   2  141.18    8.46
   5   4  -2  135.00    6.72
  -5  -4   2  144.60    7.10
   5   4  -1   15.11    2.34
  -5  -4   1   11.33    2.53
   5   4  -1   15.00    2.35
  -5  -4   1   18.52    2.91
   5   4   0  133.69    6.29
  -5  -4   0  140.17    7.71
  -5  -4   0  146.98    8.73
   5   4   1   13.91    2.08
  -5  -4  -1   13.63    3.01
  -5  -4  -1   12.76    2.70
   5   4   2    0.56    0.77
  -5  -4  -2    2.77    1.95
  -5  -4  -3    7.63    2.66
  -5  -4  -3    7.19    1.74
  -5  -4  -4   43.14    5.56
  -5  -4  -5    4.38    2.69
  -5  -4  -6    2.25    2.78
  -5  -5  16   -0.92    2.12
  -5  -5  15    1.84    2.18
  -5  -5  14    4.37    2.43
  -5  -5  13   19.80    4.19
  -5  -5  12    4.33    2.35
  -5  -5  11   77.52    6.97
  -5  -5  10    8.86    2.73
  -5  -5   9   43.16    5.07
   5   5  -9   37.68    1.58
  -5  -5   8   42.47    4.95
   5   5  -8   43.80    2.34
   5   5  -7   20.45    1.90
  -5  -5   7   17.49    3.29
  -5  -5   6    1.23    1.36
   5   5  -6    2.18    0.92
  -5  -5   5    4.37    1.74
   5   5  -5    5.21    1.27
  -5  -5   4  157.57    9.44
   5   5  -3  121.85    6.55
  -5  -5   3  130.73    7.83
  -5  -5   3  109.49    8.11
   5   5  -2   37.81    3.85
  -5  -5   2   37.18    4.09
  -5  -5   2   33.35    4.65
  -5  -5   1    2.85    2.46
  -5  -5   1    1.17    1.54
  -5  -5   0    1.39    1.58
  -5  -5   0    5.81    2.31
   5   5   1    9.76    1.97
  -5  -5  -1   11.68    3.16
  -5  -5  -1   11.34    3.32
  -5  -5  -2  145.35    9.08
  -5  -5  -2  111.92    8.38
  -5  -5  -3   18.71    4.04
  -5  -5  -4    2.71    2.44
  -5  -5  -5    8.12    3.28
  -5  -6  15   -3.22    2.37
  -5  -6  14    5.52    2.73
  -5  -6  13    6.18    2.60
  -5  -6  12   -0.92    1.91
  -5  -6  11    2.28    1.72
  -5  -6  10    1.24    1.84
  -5  -6   9    0.98    1.85
  -5  -6   8    9.93    2.86
  -5  -6   7   72.48    6.96
   5   6  -7   93.51    5.27
  -5  -6   6    3.17    1.68
  -5  -6   5   -2.26    2.63
  -5  -6   4   -3.13    2.60
   5   6  -4   -0.03    1.26
  -5  -6   3    8.23    2.72
  -5  -6   3    6.46    2.36
  -5  -6   2   21.08    4.40
  -5  -6   2   13.76    2.80
  -5  -6   1  128.30    8.57
  -5  -6   1  158.72   11.17
  -5  -6   0    6.19    2.37
  -5  -6   0    1.91    1.79
  -5  -6  -1   -1.70    2.76
  -5  -6  -1    0.67    1.65
  -5  -6  -2    0.35    1.64
  -5  -6  -2    4.04    2.81
  -5  -6  -3    3.06    2.60
  -5  -6  -4    0.15    1.77
  -5  -7  13   -3.24    3.17
  -5  -7  12   -4.78    3.22
  -5  -7  11   10.18    2.88
  -5  -7  10   -7.24    3.69
  -5  -7   9   58.69    6.61
  -5  -7   8   -1.44    2.87
  -5  -7   7    5.22    2.33
  -5  -7   6    1.49    1.90
  -5  -7   5    6.92    2.68
  -5  -7   5    6.35    2.68
  -5  -7   4   19.97    4.04
  -5  -7   3   39.22    5.91
  -5  -7   2    0.84    2.10
  -5  -7   1    1.59    2.18
  -5  -7   1    0.32    2.95
  -5  -7   0    0.05    2.68
  -5  -7   0   -1.46    2.99
  -5  -7  -1    5.58    2.92
  -5  -7  -1    1.21    2.04
  -5  -7  -2    8.13    3.13
  -5  -7  -3    9.08    3.07
  -5  -8  12   47.90    6.68
  -5  -8  11    1.60    2.19
  -5  -8  10   24.14    4.77
  -5  -8   9    7.75    2.82
  -5  -8   9    5.31    2.53
  -5  -8   8   54.14    6.66
  -5  -8   8   56.25    7.02
  -5  -8   7   16.91    4.04
  -5  -8   6   39.00    5.55
  -5  -8   5   24.65    4.75
  -5  -8   4   41.15    6.29
  -5  -8   3    1.53    2.56
  -5  -8   2   -1.50    2.52
  -5  -8   1   -0.05    2.82
  -5  -8   0   18.72    4.69
  -5  -8  -1   14.23    3.10
  -5  -9   9    3.57    2.21
  -5  -9   8   28.44    5.24
  -5  -9   7   29.53    5.55
  -5  -9   6   12.50    3.97
  -5  -9   5   20.79    4.95
  -5  -9   4    0.52    2.09
  -5  -9   3    2.53    2.79
  -5  -9   2   62.60    8.46
  -5  -9   1    3.29    2.81
  -5 -10   5   38.26    6.86
  -5 -10   4    4.84    3.75
  -5 -10   3    1.47    3.42
  -5 -10   2    5.57    3.73
   6 -10  -1   28.95    5.64
   6 -10   0   18.07    4.40
   6 -10   1   23.04    5.09
   6 -10   2    5.74    3.55
   6 -10   3    1.52    2.26
   6 -10   4   75.98    8.89
   6 -10   5    7.60    3.06
   6 -10   6    2.24    2.21
   6 -10   7   -1.08    2.21
   6  -9  -5   13.77    3.78
   6  -9  -4   -0.02    2.51
   6  -9  -3    3.23    2.33
   6  -9  -2   17.17    4.16
   6  -9  -1    7.01    2.89
   6  -9   0    5.54    2.87
   6  -9   1  106.31    9.41
   6  -9   2    9.66    3.63
   6  -9   3    2.31    2.47
   6  -9   4    0.24    2.22
   6  -9   5   20.50    4.46
   6  -9   6   12.46    3.32
   6  -9   7   46.11    6.25
   6  -8  -7    9.40    3.24
   6  -8  -6    0.92    1.78
   6  -8  -5    2.15    1.67
   6  -8  -4    1.38    1.78
   6  -8  -3    5.43    2.27
   6  -8  -2   16.06    3.77
   6  -8  -1   27.17    4.59
   6  -8   0    0.51    1.68
   6  -8   1   22.73    4.20
   6  -8   2   25.39    4.35
   6  -8   3    0.92    1.92
   6  -8   4   44.12    5.69
   6  -8   5   29.41    4.56
   6  -8   6   -0.82    1.78
   6  -8   7    2.30    1.67
   6  -7  -9    1.59    2.10
   6  -7  -8    7.05    2.71
   6  -7  -7   -1.06    1.41
   6  -7  -6   16.64    3.28
   6  -7  -5    3.32    1.61
   6  -7  -4   19.89    3.45
   6  -7  -3   -0.83    1.61
   6  -7  -2   58.22    5.65
   6  -7  -1    8.23    2.64
   6  -7   0   52.56    5.45
   6  -7   1   14.79    3.17
   6  -7   2   22.43    3.72
   6  -7   3   49.74    5.26
   6  -7   4   28.27    4.16
   6  -7   5    9.45    2.58
   6  -7   6    7.28    2.38
   6  -7   7    1.63    1.73
  -6   7  -8    7.73    4.22
   6  -6 -10    3.65    2.77
   6  -6  -9   21.86    4.13
   6  -6  -8    1.77    1.83
   6  -6  -7   13.51    3.02
   6  -6  -6   40.69    4.55
   6  -6  -5   11.86    2.51
   6  -6  -4   -0.50    1.33
   6  -6  -3   59.49    5.17
   6  -6  -2    0.39    1.20
   6  -6  -1    2.64    1.83
   6  -6   0  189.52    8.89
   6  -6   1   55.88    4.93
   6  -6   2    6.34    2.02
   6  -6   3   68.99    5.45
   6  -6   4   16.02    2.76
   6  -6   5   13.38    2.55
   6  -6   6  134.92    7.25
   6  -6   7    3.62    1.52
  -6   6  -7   -5.97    5.09
  -6   6  -8    7.60    4.04
  -6   5  12    2.88    1.84
  -6   5  11   -2.58    2.13
  -6   5  10   -0.65    1.13
   6  -5  -9    3.53    2.03
   6  -5  -8    4.46    2.00
   6  -5  -7   13.88    2.66
   6  -5  -6   29.93    3.69
   6  -5  -5    8.53    2.14
   6  -5  -4    8.17    1.87
   6  -5  -3   99.21    5.92
   6  -5  -2    0.34    0.88
   6  -5  -1   -0.27    1.14
   6  -5   0   80.67    5.22
   6  -5   1   74.39    4.98
   6  -5   2   86.75    5.24
   6  -5   3  141.43    6.80
   6  -5   4    5.21    1.71
  -6   5  -4    6.30    2.27
   6  -5   5    7.17    1.69
  -6   5  -5    5.09    1.92
   6  -5   6   16.86    2.31
  -6   5  -6    5.61    3.87
  -6   5  -7   41.87    8.21
  -6   5  -8   33.79    8.07
  -6   5  -8   18.00    3.32
  -6   5  -9    9.77    3.84
  -6   4  13   -0.79    1.72
  -6   4  12   -2.17    1.87
  -6   4  11    6.18    2.18
  -6   4  10    2.51    1.61
  -6   4  10    4.55    1.58
  -6   4   9    8.25    2.18
  -6   4   9    8.59    1.88
   6  -4  -8    6.76    2.39
  -6   4   8    3.58    1.27
   6  -4  -7   25.65    3.43
  -6   4   6   23.26    4.14
   6  -4  -6   19.06    2.92
  -6   4   5   75.60    6.93
   6  -4  -5   75.69    5.19
   6  -4  -4   11.42    2.13
   6  -4  -3   18.78    2.46
   6  -4  -2    9.04    1.79
   6  -4  -1    1.96    1.06
  -6   4   0    4.71    1.58
   6  -4   0    2.56    1.00
  -6   4  -1   62.21    4.66
   6  -4   1   53.15    3.79
  -6   4  -2   34.43    3.58
   6  -4   2   31.18    2.92
   6  -4   3    2.77    0.98
  -6   4  -3    5.67    1.96
  -6   4  -4  136.90    8.14
  -6   4  -5   15.37    2.99
  -6   4  -5    2.76    3.14
  -6   4  -6    9.50    4.08
  -6   4  -6    8.14    2.28
  -6   4  -7   32.71    6.88
  -6   4  -7   24.99    3.84
  -6   4  -8  -12.86    6.77
  -6   4  -8   -0.28    1.83
  -6   4  -9   -0.05    3.82
  -6   3  14    4.11    2.47
  -6   3  13    0.47    1.97
  -6   3  12    0.56    1.61
  -6   3  11    8.99    2.47
  -6   3  11   11.14    2.19
  -6   3  10   25.87    3.77
  -6   3  10   28.85    3.17
  -6   3   9   41.11    4.37
  -6   3   9   47.75    4.03
  -6   3   8   41.33    4.23
  -6   3   8   53.07    5.62
  -6   3   8   43.33    3.72
  -6   3   7   -0.52    1.36
   6  -3  -7    2.84    1.38
  -6   3   7    0.39    1.09
  -6   3   6   47.58    5.24
   6  -3  -6   43.80    4.00
  -6   3   6   48.70    3.99
   6  -3  -5    0.49    0.93
  -6   3   5   -1.74    2.07
   6  -3  -4  241.14    8.36
   6  -3  -3   67.88    4.34
  -6   3   2   54.64    4.13
   6  -3  -2   51.43    3.61
  -6   3   1   51.92    3.92
   6  -3  -1   47.17    3.46
  -6   3   0   76.63    4.65
   6  -3   0   73.14    4.11
  -6   3  -1   20.96    2.60
  -6   3  -2  138.45    6.58
  -6   3  -3    0.74    3.17
  -6   3  -3    2.74    0.94
  -6   3  -3    3.65    1.58
  -6   3  -4   14.41    1.91
  -6   3  -4   13.21    2.43
  -6   3  -4   10.65    3.08
   6  -3   4   15.32    1.78
  -6   3  -4   15.49    2.85
  -6   3  -5   43.79    3.01
  -6   3  -5   41.69    6.72
   6  -3   5   46.02    2.79
  -6   3  -5   39.85    4.60
  -6   3  -6   -2.21    2.92
  -6   3  -6    0.68    1.59
  -6   3  -7   27.41    5.90
  -6   3  -7   36.48    4.93
  -6   3  -8    0.98    3.32
  -6   3  -9    2.29    4.14
  -6   2  15    1.15    1.84
  -6   2  14    7.56    2.74
  -6   2  13   14.66    3.32
  -6   2  12    3.05    1.96
  -6   2  11    2.21    1.75
  -6   2  10   13.58    2.77
  -6   2  10   18.37    2.73
  -6   2   9    3.79    1.63
  -6   2   9    2.36    1.51
  -6   2   9    2.21    1.41
  -6   2   8    6.02    1.68
  -6   2   8    4.85    1.75
  -6   2   8    5.38    1.53
  -6   2   7  232.00    9.31
  -6   2   7  237.55    9.73
  -6   2   7  237.76    8.39
  -6   2   6   19.70    2.81
  -6   2   6   21.27    3.06
  -6   2   6   21.12    2.61
  -6   2   5   12.17    2.20
  -6   2   5   15.79    2.39
  -6   2   5   19.14    2.48
  -6   2   4  187.93    7.75
   6  -2  -4  193.78    7.37
  -6   2   4  203.12    7.89
  -6   2   3  108.42    5.87
  -6   2   3  108.40    5.68
   6  -2  -3  107.46    5.36
  -6   2   3  118.68    6.05
  -6   2   2   41.47    3.50
  -6   2   2   40.39    3.48
   6  -2  -2   37.40    3.14
  -6   2   2   39.31    3.70
  -6   2   1  330.33    9.55
  -6   2   1  331.74    9.67
  -6   2   1  341.68   10.59
  -6   2   0    6.98    1.49
  -6   2   0    6.42    1.45
  -6   2   0    7.10    1.84
  -6   2  -1   61.60    3.83
  -6   2  -1   69.17    4.28
  -6   2  -1   59.81    5.77
  -6   2  -1   62.57    4.87
  -6   2  -2  139.69    6.02
  -6   2  -2  136.18    5.93
  -6   2  -2  128.99    8.80
  -6   2  -2  133.06    7.26
  -6   2  -3   24.29    2.42
  -6   2  -3   22.19    2.45
  -6   2  -3   21.73    3.93
  -6   2  -3   25.81    3.33
  -6   2  -4    0.03    0.77
  -6   2  -4   -1.95    2.46
  -6   2  -4    1.04    0.78
  -6   2  -4   -0.27    1.38
  -6   2  -5   35.38    5.75
  -6   2  -5   41.88    4.69
  -6   2  -6   26.81    4.04
  -6   2  -6   28.58    5.33
  -6   2  -7   18.72    4.78
  -6   2  -8   23.38    6.04
  -6   2  -9   12.17    5.50
  -6   1  15    3.30    2.33
  -6   1  14    2.92    2.04
  -6   1  13    1.40    1.56
  -6   1  12    2.89    2.02
  -6   1  11    2.70    1.60
  -6   1  10   38.26    4.21
  -6   1  10   36.93    2.88
  -6   1   9    8.48    1.35
  -6   1   9    8.29    2.02
  -6   1   8    9.67    1.56
  -6   1   8    7.42    2.02
  -6   1   8    7.66    1.69
  -6   1   7   14.53    1.82
  -6   1   7   15.13    2.54
  -6   1   7   13.41    2.20
  -6   1   6    6.42    1.58
  -6   1   6    5.99    1.80
  -6   1   6    4.87    1.38
  -6   1   5   16.51    2.44
  -6   1   5   14.61    2.27
  -6   1   4  133.96    6.57
  -6   1   4  141.73    6.58
  -6   1   4  133.00    6.66
  -6   1   3  100.74    5.60
  -6   1   3  111.66    5.95
  -6   1   3  100.36    5.52
  -6   1   2  104.62    5.55
  -6   1   2  105.97    5.84
  -6   1   2  102.07    5.50
  -6   1   1   65.78    4.32
  -6   1   1   69.40    4.44
  -6   1   1   64.75    4.73
  -6   1   1   69.47    4.93
  -6   1   0    2.44    0.96
  -6   1   0    1.88    1.23
  -6   1   0    2.40    1.16
  -6   1   0    1.71    1.21
  -6   1  -1   -0.33    0.68
  -6   1  -1    0.31    1.22
  -6   1  -1   -0.35    0.94
  -6   1  -1    0.36    1.19
  -6   1  -2   28.62    2.69
  -6   1  -2   29.38    2.47
  -6   1  -2   26.13    3.68
  -6   1  -2   31.16    3.67
  -6   1  -3  184.94    6.01
  -6   1  -3  197.23   10.84
  -6   1  -3  183.89    5.97
  -6   1  -4   54.75    2.65
  -6   1  -4   64.74    6.75
  -6   1  -5   23.57    4.68
  -6   1  -6   17.64    4.84
  -6   1  -7    3.44    3.66
  -6   1  -8   10.65    4.78
  -6   0  15    5.82    2.53
  -6   0  14    7.08    2.67
  -6   0  13    2.12    1.86
  -6   0  12   28.86    4.04
  -6   0  11    7.88    2.23
  -6   0  10   20.43    3.10
  -6   0  10   17.44    1.36
  -6   0   9   46.57    4.29
  -6   0   9   36.08    1.68
  -6   0   8    3.26    0.46
  -6   0   8    3.29    1.60
  -6   0   7    3.42    0.45
  -6   0   7    5.93    1.74
  -6   0   6   52.35    4.37
  -6   0   6   43.91    1.73
  -6   0   6   52.56    2.40
  -6   0   5   10.42    1.10
  -6   0   5   11.63    2.16
  -6   0   5   14.41    2.36
  -6   0   5   11.97    2.18
  -6   0   4    4.58    0.92
  -6   0   4    4.85    1.31
  -6   0   4    3.48    1.27
  -6   0   4    3.46    1.19
  -6   0   3    2.51    0.88
  -6   0   3    1.03    0.89
  -6   0   3    2.12    1.04
  -6   0   3    2.77    1.41
  -6   0   2    7.94    1.50
  -6   0   2    8.98    1.87
  -6   0   2    9.46    1.93
  -6   0   2    8.78    1.74
  -6   0   1   -0.26    0.94
  -6   0   1    1.56    1.22
  -6   0   1    0.54    1.29
  -6   0   1    1.18    0.85
  -6   0   0  120.58    5.76
  -6   0   0  117.75    6.49
  -6   0   0  122.56    5.57
  -6   0  -1    3.56    1.07
  -6   0  -1    4.04    1.25
  -6   0  -1    3.15    1.59
  -6   0  -2    0.84    0.65
  -6   0  -2    2.04    1.01
  -6   0  -2    0.23    1.55
  -6   0  -3    1.35    0.55
  -6   0  -3    0.13    0.85
  -6   0  -3    0.90    1.84
  -6   0  -4    2.12    2.22
  -6   0  -5    3.19    3.07
  -6   0  -6   97.00    9.37
  -6   0  -7    4.39    3.60
  -6   0  -8   -0.08    3.06
  -6  -1  16    1.78    2.02
  -6  -1  15    5.24    2.42
  -6  -1  14   18.60    3.66
  -6  -1  13   17.37    3.39
  -6  -1  12   15.56    3.11
  -6  -1  11    4.87    2.05
  -6  -1  10    1.76    1.52
  -6  -1   9   23.29    3.37
  -6  -1   8  350.81   11.66
  -6  -1   7   69.95    5.17
  -6  -1   6   11.91    2.43
  -6  -1   5    3.10    1.46
  -6  -1   5    2.08    0.43
  -6  -1   4   68.68    4.85
   6   1  -4   68.32    4.46
  -6  -1   4   61.36    2.84
  -6  -1   4   59.95    4.43
  -6  -1   3    1.68    1.23
  -6  -1   3    1.47    0.89
  -6  -1   3    1.05    0.84
   6   1  -3    2.59    1.28
  -6  -1   2  294.28    9.59
  -6  -1   2  287.76    8.34
  -6  -1   2  282.22    9.16
  -6  -1   1   10.52    1.92
  -6  -1   1    9.82    1.94
  -6  -1   1   10.25    1.74
  -6  -1   0    5.57    1.38
  -6  -1   0    6.98    1.91
  -6  -1   0    6.59    1.34
  -6  -1  -1   14.30    2.43
  -6  -1  -1   15.76    2.75
  -6  -1  -1   14.83    1.94
  -6  -1  -2    3.45    0.96
  -6  -1  -2    1.76    1.10
  -6  -1  -2    3.29    1.87
  -6  -1  -3    1.81    0.53
  -6  -1  -3    4.05    2.36
  -6  -1  -3    1.90    0.44
  -6  -1  -4   69.56    7.12
  -6  -1  -5   -2.91    2.84
  -6  -1  -6   -0.41    2.97
  -6  -1  -7   -1.45    3.01
  -6  -2  16    1.03    2.07
  -6  -2  15    0.94    1.80
  -6  -2  14    2.64    1.76
  -6  -2  13    1.43    1.54
  -6  -2  12    3.99    1.95
  -6  -2  11  102.25    7.15
  -6  -2  10   16.65    2.94
  -6  -2   9    8.46    2.25
  -6  -2   8    0.82    1.20
  -6  -2   7   12.21    2.31
  -6  -2   6   71.04    5.33
  -6  -2   5  263.31   10.01
  -6  -2   5  260.14    5.52
  -6  -2   4   -0.46    1.10
  -6  -2   4    0.46    0.62
   6   2  -4   -0.21    0.81
   6   2  -3   16.45    2.27
  -6  -2   3   19.54    2.05
  -6  -2   3   16.45    2.53
  -6  -2   2   74.86    5.25
   6   2  -2   66.01    4.24
  -6  -2   2   69.18    4.24
  -6  -2   1   28.61    3.42
   6   2  -1   24.27    2.45
  -6  -2   1   28.42    3.10
  -6  -2   0   20.58    3.05
   6   2   0   21.29    2.25
   6   2   0   20.67    2.61
  -6  -2   0   20.09    2.94
  -6  -2   0   16.97    2.07
  -6  -2  -1  109.48    7.09
   6   2   1  107.73    4.75
  -6  -2  -1  112.14    7.14
  -6  -2  -1   98.53    4.82
  -6  -2  -2   50.58    5.31
  -6  -2  -2   49.66    4.17
  -6  -2  -2   49.35    3.07
  -6  -2  -3   52.55    2.08
  -6  -2  -3   53.45    2.39
  -6  -2  -3   59.18    5.98
  -6  -2  -4    9.52    3.01
  -6  -2  -5   -1.93    2.48
  -6  -2  -6   -0.50    2.07
  -6  -2  -7   13.64    4.42
  -6  -3  15    4.09    2.62
  -6  -3  14   -2.63    2.30
  -6  -3  13    9.98    2.62
  -6  -3  12    0.72    1.47
  -6  -3  11   -1.47    2.17
  -6  -3  10    1.61    1.31
  -6  -3   9    0.88    1.41
  -6  -3   8   43.60    4.57
  -6  -3   7   42.38    4.46
  -6  -3   6    5.31    1.70
  -6  -3   5    3.75    1.82
  -6  -3   4   42.28    4.51
  -6  -3   4   45.86    3.29
  -6  -3   3   37.53    4.16
  -6  -3   3   40.31    3.30
  -6  -3   2   43.22    4.62
   6   3  -2   39.29    3.38
  -6  -3   2   42.54    3.66
  -6  -3   1  109.50    7.34
   6   3  -1   97.98    5.20
   6   3  -1  102.23    5.67
  -6  -3   1  105.55    6.30
  -6  -3   0    6.03    1.78
  -6  -3   0   11.72    2.49
   6   3   0    8.94    1.63
  -6  -3  -1   12.64    2.59
   6   3   1   14.02    1.86
  -6  -3  -1   14.20    2.98
  -6  -3  -1   13.09    2.74
  -6  -3  -2    3.61    1.63
  -6  -3  -2    5.71    2.18
  -6  -3  -2    1.82    0.78
   6   3   2    2.68    1.00
  -6  -3  -3   10.73    3.12
  -6  -3  -4    4.36    2.66
  -6  -3  -5   81.27    8.35
  -6  -3  -6    1.01    2.78
  -6  -4  15    4.76    2.87
  -6  -4  14   13.49    3.72
  -6  -4  13   10.28    3.17
  -6  -4  12   16.64    3.89
  -6  -4  11    9.79    2.93
  -6  -4  10   26.65    4.23
  -6  -4   9   43.69    5.24
  -6  -4   8   27.58    4.03
  -6  -4   7    4.54    2.51
   6   4  -6    0.25    0.33
  -6  -4   6    1.35    1.50
   6   4  -5   12.41    1.58
  -6  -4   5   13.47    2.86
   6   4  -4   15.75    1.96
  -6  -4   4   20.03    3.48
  -6  -4   4   20.21    2.61
  -6  -4   3   35.17    4.51
  -6  -4   3   37.31    3.76
   6   4  -2    1.75    0.88
  -6  -4   2    3.65    1.82
  -6  -4   1   22.57    3.84
  -6  -4   1   25.87    3.58
  -6  -4   0    2.76    1.82
   6   4   0    1.67    0.87
  -6  -4   0    1.94    1.64
  -6  -4  -1    1.37    1.60
   6   4   1    0.62    0.69
  -6  -4  -1    1.07    1.59
  -6  -4  -2   42.34    4.58
  -6  -4  -2   33.30    4.65
  -6  -4  -3    8.02    2.80
  -6  -4  -4    0.15    2.01
  -6  -4  -5    3.51    3.29
  -6  -5  14    4.46    2.50
  -6  -5  13    1.76    2.13
  -6  -5  12   93.48    8.08
  -6  -5  11   51.83    6.10
  -6  -5  10   23.73    4.34
  -6  -5   9   27.05    4.50
  -6  -5   8    2.04    1.90
   6   5  -7   19.95    1.61
  -6  -5   7   18.26    3.68
  -6  -5   6  147.34    9.61
   6   5  -6  155.53    5.54
  -6  -5   5    3.29    2.17
  -6  -5   4    4.09    1.82
  -6  -5   3    6.07    2.01
   6   5  -3   12.10    2.22
  -6  -5   3    8.90    2.18
  -6  -5   2   14.84    3.31
  -6  -5   2   20.42    3.29
  -6  -5   1    1.29    1.92
  -6  -5   1    2.87    2.30
  -6  -5   0   45.52    5.19
  -6  -5   0   49.38    6.24
  -6  -5  -1   12.99    3.30
  -6  -5  -1    7.08    2.49
  -6  -5  -2   21.29    4.08
  -6  -5  -3    3.96    2.87
  -6  -5  -4    5.27    3.25
  -6  -6  14    3.53    2.07
  -6  -6  13    5.75    2.85
  -6  -6  12    4.93    2.89
  -6  -6  11   13.28    3.56
  -6  -6  10   21.84    4.31
  -6  -6   9  110.25    9.11
  -6  -6   8    0.50    1.91
  -6  -6   7   -2.36    2.53
  -6  -6   6   -2.11    2.37
  -6  -6   5   27.35    4.36
  -6  -6   4   27.18    4.60
  -6  -6   3   43.24    5.00
  -6  -6   3   50.81    6.27
  -6  -6   3   51.98    6.51
  -6  -6   2   43.18    5.86
  -6  -6   2   26.69    3.97
  -6  -6   1   32.28    4.46
  -6  -6   1   47.85    6.56
  -6  -6   0    6.55    2.49
  -6  -6   0    7.19    3.24
  -6  -6  -1    8.61    2.93
  -6  -6  -2   10.75    3.42
  -6  -6  -3    9.45    3.14
  -6  -7  12    6.28    2.63
  -6  -7  11   -0.91    3.12
  -6  -7  10    3.89    2.09
  -6  -7   9   -4.66    3.05
  -6  -7   8   10.27    3.18
  -6  -7   7    1.49    2.39
  -6  -7   6   12.27    3.18
  -6  -7   5   23.99    4.48
  -6  -7   5   24.22    4.71
  -6  -7   4    2.76    2.19
  -6  -7   3    1.08    2.41
  -6  -7   2   20.06    4.73
  -6  -7   2    8.74    2.21
  -6  -7   1   -3.88    2.91
  -6  -7   1   -6.32    3.61
  -6  -7   0   -1.64    2.64
  -6  -7  -1   24.09    4.53
  -6  -7  -2   -2.29    2.80
  -6  -8  10    5.39    2.62
  -6  -8   9    0.22    1.97
  -6  -8   8   -2.88    2.62
  -6  -8   8   -4.43    3.32
  -6  -8   7   11.56    3.35
  -6  -8   7   21.31    4.80
  -6  -8   6    1.31    1.85
  -6  -8   5    6.54    2.82
  -6  -8   4    1.09    2.38
  -6  -8   3    0.60    2.44
  -6  -8   2    7.74    4.10
  -6  -8   0  -11.17    3.82
  -6  -9   8   -1.89    2.57
  -6  -9   7   -1.33    2.46
  -6  -9   6    5.31    3.11
  -6  -9   5   12.91    4.56
  -6  -9   4   32.98    6.40
  -6  -9   3    2.34    2.81
   7  -9  -3   26.25    4.70
   7  -9  -2    4.23    2.13
   7  -9  -1   29.96    5.10
   7  -9   0    6.11    2.99
   7  -9   1   10.14    3.78
   7  -9   2    4.26    2.76
   7  -9   3   73.83    8.07
   7  -9   4   15.27    4.03
   7  -9   5   23.10    4.74
   7  -9   6   26.33    4.86
   7  -8  -6   16.16    3.64
   7  -8  -5    1.17    1.70
   7  -8  -4    2.53    1.60
   7  -8  -3   11.96    3.02
   7  -8  -2    0.02    1.83
   7  -8  -1   -0.83    1.93
   7  -8   0   88.27    7.76
   7  -8   1    1.94    2.20
   7  -8   2    6.18    2.85
   7  -8   3   45.31    5.82
   7  -8   4   13.84    3.67
   7  -8   5   18.49    3.80
   7  -8   6   49.08    5.67
   7  -7  -8   11.68    3.28
   7  -7  -7    2.39    2.16
   7  -7  -6   -0.05    1.47
   7  -7  -5   13.81    3.09
   7  -7  -4    5.03    1.72
   7  -7  -3    3.19    1.73
   7  -7  -2   10.09    2.52
   7  -7  -1   -1.74    1.74
   7  -7   0    2.89    1.39
   7  -7   1   16.85    3.42
   7  -7   2    1.64    1.85
   7  -7   3   27.41    4.20
   7  -7   4   25.30    4.08
   7  -7   5    2.45    1.96
   7  -7   6   40.94    4.58
   7  -6 -10    2.07    2.52
  -7   6  10   -0.72    1.33
   7  -6  -9   -0.22    1.78
   7  -6  -8   23.24    4.07
   7  -6  -7    4.33    2.17
   7  -6  -6   12.43    2.76
   7  -6  -5   41.96    4.53
   7  -6  -4   32.42    3.97
   7  -6  -3   20.30    3.21
   7  -6  -2   60.62    5.23
   7  -6  -1    0.81    1.37
   7  -6   0   17.15    2.91
   7  -6   1    6.44    1.99
   7  -6   2   42.55    4.29
   7  -6   3   15.09    2.53
   7  -6   4   13.16    2.48
   7  -6   5   14.33    2.46
  -7   6  -6    4.99    2.68
  -7   6  -7    3.26    3.25
  -7   5  11    3.73    2.06
  -7   5  10   -1.06    1.87
  -7   5  10   -0.61    1.34
   7  -5  -9    2.16    1.96
  -7   5   9   -0.76    1.43
   7  -5  -8   13.35    3.12
   7  -5  -7   49.85    5.13
   7  -5  -6   20.78    3.21
   7  -5  -5   38.24    4.17
   7  -5  -4    3.85    1.72
   7  -5  -3    0.80    1.30
   7  -5  -2    1.06    1.02
   7  -5  -1  222.14    8.85
   7  -5   0   54.00    4.40
   7  -5   1   14.17    2.35
   7  -5   2   27.37    3.12
   7  -5   3   23.44    2.82
   7  -5   4    3.77    1.25
  -7   5  -5   95.96   11.01
   7  -5   5  120.03    5.86
  -7   5  -6   -5.28    4.72
  -7   5  -6   -0.10    1.64
  -7   5  -7    1.38    4.35
  -7   5  -7    1.20    1.51
  -7   4  12    1.19    1.81
  -7   4  11    0.22    1.61
  -7   4  11    0.92    1.38
  -7   4  10   23.79    3.87
  -7   4  10   26.89    3.37
  -7   4   9    0.11    1.71
  -7   4   9    0.19    1.20
  -7   4   8   -1.45    1.79
   7  -4  -8    2.49    1.56
  -7   4   8    1.81    1.42
   7  -4  -7    0.06    1.17
  -7   4   7   -1.88    1.61
   7  -4  -6    4.88    1.60
  -7   4   6    4.55    1.87
   7  -4  -5    0.69    1.10
  -7   4   5   -2.73    2.18
   7  -4  -4  106.29    6.24
   7  -4  -3    1.37    1.34
   7  -4  -2    1.69    1.02
   7  -4  -1   27.94    2.98
   7  -4   0    5.64    1.60
   7  -4   1   23.98    2.75
  -7   4  -2  100.40    6.60
   7  -4   2   94.83    5.14
  -7   4  -3   10.35    2.65
   7  -4   3    8.18    1.67
  -7   4  -3    5.65    1.72
  -7   4  -4   21.21    2.54
  -7   4  -4   18.18    4.17
   7  -4   4   28.59    2.79
  -7   4  -4   20.46    3.30
  -7   4  -5   52.46    8.47
  -7   4  -5   41.39    4.92
  -7   4  -6    3.61    4.73
  -7   4  -6    3.48    2.06
  -7   4  -7   15.09    5.18
  -7   4  -7   22.09    4.24
  -7   3  13    0.25    1.62
  -7   3  12   22.42    4.02
  -7   3  11    3.54    2.02
  -7   3  11    4.90    1.80
  -7   3  10    0.12    1.57
  -7   3  10    0.61    1.34
  -7   3   9    1.26    1.26
  -7   3   9    0.72    1.28
  -7   3   8   -2.54    1.74
  -7   3   8    0.09    1.29
  -7   3   8   -0.83    1.43
  -7   3   7    6.87    2.10
  -7   3   7    5.33    1.74
  -7   3   7    5.33    1.57
  -7   3   6   53.68    4.76
  -7   3   6   45.62    4.90
   7  -3  -6   51.69    4.58
  -7   3   6   55.91    4.60
   7  -3  -5    8.16    1.87
  -7   3   5    6.35    1.90
  -7   3   5    9.69    2.09
   7  -3  -4    4.04    1.51
  -7   3   4    2.92    1.28
   7  -3  -3    9.03    1.90
  -7   3   3    7.45    1.84
   7  -3  -2    0.46    0.88
  -7   3   2   -0.40    1.08
   7  -3  -1   28.81    2.98
  -7   3   1   26.85    3.41
  -7   3   0   87.79    5.51
  -7   3   0   73.39    4.87
   7  -3   0   81.00    4.81
  -7   3   0   79.20    5.85
   7  -3   1    1.78    0.98
  -7   3  -1    2.75    1.23
  -7   3  -1    3.25    1.32
  -7   3  -1    1.20    1.38
  -7   3  -2   11.42    2.22
  -7   3  -2    5.76    2.22
  -7   3  -2   11.86    2.06
  -7   3  -2    8.87    2.24
  -7   3  -3    7.35    3.12
  -7   3  -3    9.72    1.97
  -7   3  -3   11.85    2.10
  -7   3  -3    9.03    2.33
  -7   3  -4   10.94    4.03
  -7   3  -4   12.14    2.02
  -7   3  -4    9.48    2.64
  -7   3  -5    6.16    3.24
  -7   3  -5   14.46    3.46
  -7   3  -6   74.49    9.81
  -7   3  -6   75.72    7.62
  -7   3  -7   -4.05    4.60
  -7   3  -7    2.66    2.35
  -7   2  14    4.62    2.74
  -7   2  13    2.62    1.87
  -7   2  12    6.68    2.81
  -7   2  11    7.81    2.34
  -7   2  10   13.48    2.91
  -7   2  10   17.11    2.99
  -7   2   9   48.73    4.94
  -7   2   9   54.47    4.58
  -7   2   8   20.14    2.70
  -7   2   8   19.38    3.19
  -7   2   8   19.74    2.84
  -7   2   7   20.93    3.11
  -7   2   7   19.01    2.86
  -7   2   7   19.31    2.83
  -7   2   6   21.48    3.13
  -7   2   6   18.28    2.69
  -7   2   6   25.17    3.10
  -7   2   5   49.39    4.48
  -7   2   5   52.34    4.40
  -7   2   4    2.10    1.24
  -7   2   4    1.34    1.28
  -7   2   3   21.53    2.89
  -7   2   3   21.75    3.05
  -7   2   2  187.76    8.17
  -7   2   2  185.90    8.62
  -7   2   1  124.96    6.51
  -7   2   1  127.95    6.63
  -7   2   1  120.93    7.04
  -7   2   0   45.48    3.92
  -7   2   0   45.29    4.14
  -7   2   0   38.61    4.67
  -7   2   0   41.75    4.34
  -7   2  -1   -2.45    2.35
  -7   2  -1    1.27    0.94
  -7   2  -1    1.65    1.23
  -7   2  -1   -0.46    1.63
  -7   2  -2    1.03    2.17
  -7   2  -2    1.59    1.06
  -7   2  -2    3.17    1.90
  -7   2  -2    1.95    1.27
  -7   2  -3   60.39    4.26
  -7   2  -3   55.43    6.82
  -7   2  -3   60.10    4.40
  -7   2  -3   64.39    5.97
  -7   2  -4   50.54    3.39
  -7   2  -4   47.48    6.81
  -7   2  -4   58.59    6.06
  -7   2  -5    2.18    2.98
  -7   2  -5    6.41    2.81
  -7   2  -6    1.52    3.05
  -7   2  -7    1.20    3.78
  -7   1  14    8.14    2.82
  -7   1  13    4.74    2.28
  -7   1  12   15.15    3.11
  -7   1  11   19.15    3.42
  -7   1  10    9.56    2.58
  -7   1   9    9.07    2.24
  -7   1   8   19.08    1.89
  -7   1   8   20.79    3.28
  -7   1   8   20.12    3.00
  -7   1   7   21.34    2.26
  -7   1   7   17.70    2.85
  -7   1   7   21.23    3.01
  -7   1   6    0.39    0.99
  -7   1   6   -2.08    1.43
  -7   1   6    0.94    1.12
  -7   1   5  200.12    8.76
  -7   1   5  207.11    8.75
  -7   1   4   44.60    4.17
  -7   1   4   48.03    4.39
  -7   1   3   21.03    2.93
  -7   1   3   18.94    2.41
  -7   1   3   22.56    3.15
  -7   1   2    2.00    1.07
  -7   1   2    1.86    1.19
  -7   1   2    3.22    1.50
  -7   1   2    1.50    1.37
  -7   1   1    3.39    1.29
  -7   1   1    2.77    1.42
  -7   1   1    4.12    1.43
  -7   1   1    3.01    1.55
  -7   1   0   36.64    3.48
  -7   1   0   38.83    3.69
  -7   1   0   39.53    4.49
  -7   1   0   39.40    4.37
  -7   1  -1  368.97   10.44
  -7   1  -1  366.70   10.88
  -7   1  -1  359.07   14.08
  -7   1  -1  398.93   13.84
  -7   1  -2    7.75    2.63
  -7   1  -2    9.97    1.90
  -7   1  -2   11.31    1.89
  -7   1  -2   12.68    3.08
  -7   1  -3   -1.04    0.96
  -7   1  -3   -1.03    1.06
  -7   1  -3   -0.99    2.05
  -7   1  -4    4.01    2.64
  -7   1  -5    3.86    3.57
  -7   1  -6    6.95    3.71
  -7   1  -7   72.60    9.89
  -7   0  14    8.52    2.96
  -7   0  13    4.61    2.37
  -7   0  12    2.40    2.04
  -7   0  11    1.97    1.84
  -7   0  10    1.49    1.46
  -7   0   9    0.71    1.09
  -7   0   8   44.60    4.46
  -7   0   7    5.90    1.89
  -7   0   6    1.16    0.43
  -7   0   6    1.35    1.16
  -7   0   6   -1.09    0.88
  -7   0   5    0.67    0.53
  -7   0   5    2.49    1.41
  -7   0   4    2.53    0.86
  -7   0   4    3.19    1.57
  -7   0   3   60.15    4.83
  -7   0   3   52.56    3.63
  -7   0   3   58.85    4.59
  -7   0   2  195.27    8.38
  -7   0   2  178.12    7.44
  -7   0   2  186.57    8.13
  -7   0   1    1.89    1.19
  -7   0   1    0.75    1.18
  -7   0   1    3.00    1.58
  -7   0   0   -0.09    1.05
  -7   0   0    0.05    1.04
  -7   0   0   -0.14    1.28
  -7   0  -1    2.72    1.09
  -7   0  -1    1.05    1.12
  -7   0  -1    3.11    1.65
  -7   0  -2   25.19    3.14
  -7   0  -2   24.30    2.40
  -7   0  -2   23.80    4.05
  -7   0  -3   32.74    3.28
  -7   0  -3   39.22    5.44
  -7   0  -4  105.08    9.27
  -7   0  -5   29.44    5.68
  -7   0  -6   15.46    5.20
  -7   0  -7   -0.18    3.03
  -7  -1  15    2.81    2.25
  -7  -1  14    1.42    1.75
  -7  -1  13    0.08    1.65
  -7  -1  12   11.27    2.98
  -7  -1  11    8.40    2.60
  -7  -1  10   61.15    5.59
  -7  -1   9    6.39    2.27
  -7  -1   8    2.00    1.83
  -7  -1   7    5.98    2.03
  -7  -1   6   14.39    2.86
  -7  -1   5    2.92    1.58
  -7  -1   5    0.64    0.51
  -7  -1   4  114.37    6.83
  -7  -1   4  112.30    4.46
  -7  -1   3   16.67    2.07
  -7  -1   3   17.99    2.74
  -7  -1   3   15.38    2.43
  -7  -1   2   14.80    2.52
  -7  -1   2   12.75    2.08
  -7  -1   2   12.68    2.20
  -7  -1   1    6.36    1.82
  -7  -1   1    5.94    1.70
  -7  -1   1    6.17    1.50
  -7  -1   0   11.59    2.40
  -7  -1   0   11.53    2.46
  -7  -1   0   11.60    2.05
  -7  -1  -1    6.75    1.67
  -7  -1  -1    6.42    2.14
  -7  -1  -1    9.26    2.82
  -7  -1  -2   43.09    4.41
  -7  -1  -2   52.80    3.44
  -7  -1  -2   51.28    5.63
  -7  -1  -3    3.06    2.56
  -7  -1  -4   -0.18    2.56
  -7  -1  -5   11.22    3.14
  -7  -1  -6    2.91    2.59
  -7  -2  15   12.34    3.42
  -7  -2  14   20.87    4.02
  -7  -2  13   40.18    5.17
  -7  -2  12    0.75    1.89
  -7  -2  11   16.84    3.31
  -7  -2  10   19.82    3.45
  -7  -2   9  100.03    7.13
  -7  -2   8   44.00    4.72
  -7  -2   7   40.89    4.41
  -7  -2   6   97.67    6.65
  -7  -2   5   40.12    4.26
  -7  -2   5   38.57    2.41
  -7  -2   4    7.69    2.12
  -7  -2   4    6.99    1.35
  -7  -2   3   35.48    3.94
  -7  -2   3   32.81    3.00
  -7  -2   2    4.65    1.44
  -7  -2   2    2.04    1.08
   7   2  -2    3.72    1.25
  -7  -2   1    3.17    1.77
  -7  -2   1    2.09    1.45
  -7  -2   1    1.02    0.79
   7   2  -1    2.93    1.22
  -7  -2   0  117.89    7.64
  -7  -2   0  112.02    7.15
  -7  -2   0   94.16    5.34
  -7  -2  -1   -0.98    2.23
  -7  -2  -1   -0.14    1.63
  -7  -2  -1    2.86    1.15
  -7  -2  -2   14.80    2.44
  -7  -2  -2   13.63    3.15
  -7  -2  -3   -0.49    1.99
  -7  -2  -4    2.19    2.25
  -7  -2  -5   -1.32    2.66
  -7  -2  -6   15.94    4.47
  -7  -3  14   -1.66    2.40
  -7  -3  13    4.60    2.20
  -7  -3  12   27.24    4.25
  -7  -3  11   13.28    3.14
  -7  -3  10    2.38    1.37
  -7  -3   9   85.35    6.84
  -7  -3   8   34.83    4.47
  -7  -3   7   27.42    3.88
  -7  -3   6   59.67    5.55
  -7  -3   5    3.41    2.32
  -7  -3   5   -1.08    0.92
  -7  -3   4   46.75    5.07
  -7  -3   4   46.45    3.53
  -7  -3   3  219.88   10.55
  -7  -3   3  210.96    7.94
  -7  -3   2    7.40    2.49
  -7  -3   2    6.25    1.74
  -7  -3   1    6.53    2.06
  -7  -3   1    4.09    1.75
  -7  -3   0   -1.94    2.82
  -7  -3   0    1.13    1.58
  -7  -3   0    0.03    0.93
   7   3   0    1.24    0.90
  -7  -3  -1    2.51    2.06
  -7  -3  -1    0.62    1.46
  -7  -3  -1   -0.63    2.18
  -7  -3  -2   20.13    3.75
  -7  -3  -3   50.52    6.27
  -7  -3  -4   17.58    4.26
  -7  -3  -5    3.68    3.06
  -7  -4  14    6.69    3.15
  -7  -4  13    1.46    2.48
  -7  -4  12   14.73    3.87
  -7  -4  11    5.51    2.94
  -7  -4  10    9.94    3.17
  -7  -4   9    9.22    2.78
  -7  -4   8   10.73    3.20
  -7  -4   7    5.25    2.36
  -7  -4   6   73.16    6.66
  -7  -4   5    9.01    2.81
  -7  -4   4    4.83    2.38
  -7  -4   4    2.97    1.40
   7   4  -3   14.99    2.21
  -7  -4   3   18.26    3.60
  -7  -4   3   18.30    2.76
  -7  -4   2   49.78    6.05
  -7  -4   2   52.64    4.82
  -7  -4   1   20.73    3.92
  -7  -4   1   22.59    3.49
  -7  -4   0   38.30    4.59
  -7  -4   0   39.01    5.18
  -7  -4  -1   12.04    3.12
  -7  -4  -2    0.28    1.91
  -7  -4  -3    1.82    2.33
  -7  -4  -4   13.78    3.78
  -7  -5  13    3.01    2.63
  -7  -5  12    4.66    2.76
  -7  -5  11    3.57    2.60
  -7  -5  10   11.19    3.20
  -7  -5   9    9.04    3.13
  -7  -5   8   17.18    3.69
  -7  -5   7    0.12    1.87
  -7  -5   6   -1.01    1.93
  -7  -5   5    9.42    2.84
  -7  -5   4   -4.16    2.87
  -7  -5   4   -3.03    2.20
  -7  -5   3   -2.41    3.00
  -7  -5   3    1.68    1.42
  -7  -5   2    6.66    2.35
  -7  -5   2    9.03    2.57
  -7  -5   1   22.40    4.27
  -7  -5   1   16.48    3.14
  -7  -5   0    0.58    1.65
  -7  -5   0    5.95    2.70
  -7  -5  -1   20.42    4.21
  -7  -5  -2    1.70    2.72
  -7  -5  -3    1.63    2.29
  -7  -6  12   22.79    4.95
  -7  -6  11   20.59    4.68
  -7  -6  10   16.13    4.06
  -7  -6   9    7.92    2.91
  -7  -6   8    9.57    3.09
  -7  -6   7   60.61    7.03
  -7  -6   6    6.20    2.32
  -7  -6   5   -3.33    3.05
  -7  -6   4   26.50    4.82
  -7  -6   3   -0.35    1.70
  -7  -6   3   -2.64    2.61
  -7  -6   3   -0.27    2.07
  -7  -6   2    2.10    2.51
  -7  -6   2   -1.24    1.87
  -7  -6   1   14.66    4.08
  -7  -6   1   10.38    2.76
  -7  -6   0   -0.49    1.72
  -7  -6  -1    4.28    2.79
  -7  -6  -2   26.20    5.00
  -7  -7  11   17.71    4.37
  -7  -7  10   40.26    6.17
  -7  -7   9   -3.87    3.36
  -7  -7   8   -1.86    2.87
  -7  -7   7   37.63    5.90
  -7  -7   6    6.98    3.14
  -7  -7   5   20.99    4.73
  -7  -7   5   18.09    4.18
  -7  -7   4   32.04    5.53
  -7  -7   3    6.88    3.38
  -7  -7   2    6.07    3.33
  -7  -7   2    0.71    2.65
  -7  -7   1   -1.62    2.93
  -7  -7   0    1.35    1.96
  -7  -7  -1   -2.75    2.85
  -7  -8   8   10.93    3.69
  -7  -8   7    3.41    2.44
  -7  -8   7    4.83    3.17
  -7  -8   6   14.80    4.20
  -7  -8   5    2.05    2.37
  -7  -8   4   14.39    4.41
  -7  -8   3    0.14    2.48
  -7  -9   5    9.17    3.72
  -7  -9   4   -1.17    2.54
   8  -9  -1   16.33    3.99
   8  -9   0   -1.91    2.58
   8  -9   1   26.29    4.84
   8  -9   2   -1.06    2.32
   8  -9   3    0.93    2.70
   8  -9   4   14.57    3.90
   8  -9   5    0.76    2.26
   8  -8  -4   11.95    2.95
   8  -8  -3   23.37    4.20
   8  -8  -2   53.07    6.06
   8  -8  -1   19.25    3.82
   8  -8   0    9.19    2.98
   8  -8   1   60.14    6.35
   8  -8   2    2.67    2.08
   8  -8   3    0.07    1.83
   8  -8   4    3.72    2.00
   8  -7  -7    2.44    2.18
   8  -7  -6    2.82    2.14
   8  -7  -5    5.01    2.13
   8  -7  -4   24.21    3.98
   8  -7  -3    3.30    1.70
   8  -7  -2    4.24    2.01
   8  -7  -1    4.51    1.93
   8  -7   0    6.68    2.25
   8  -7   1   -0.55    1.69
   8  -7   2  110.29    7.67
   8  -7   3    5.31    1.96
   8  -7   4    5.90    1.95
  -8   7  -7   -0.48    1.59
  -8   6  10    2.80    1.51
  -8   6   9   -1.93    1.77
   8  -6  -8    1.75    2.09
   8  -6  -7    8.51    2.76
   8  -6  -6    5.61    2.40
   8  -6  -5    2.69    2.09
   8  -6  -4    3.00    1.90
   8  -6  -3    0.15    1.26
   8  -6  -2    0.04    1.30
   8  -6  -1   18.15    3.16
   8  -6   0   18.27    3.09
   8  -6   1    2.74    1.38
   8  -6   2   -1.00    1.37
   8  -6   3    1.97    1.28
   8  -6   4    8.01    2.08
  -8   6  -5    8.38    3.80
  -8   6  -6    9.02    2.34
  -8   6  -7   -1.50    1.74
  -8   5  10   -0.95    1.88
  -8   5  10   -1.17    1.25
  -8   5   9   45.16    5.28
  -8   5   9   45.95    4.79
   8  -5  -8    2.57    1.71
  -8   5   8    3.17    1.89
   8  -5  -7    4.33    2.23
  -8   5   7    0.80    1.41
   8  -5  -6    1.90    1.73
   8  -5  -5    6.16    1.99
   8  -5  -4   12.51    2.51
   8  -5  -3  115.30    7.08
   8  -5  -2    2.28    1.43
   8  -5  -1   -0.38    1.23
   8  -5   0    6.04    1.70
   8  -5   1   13.01    2.44
   8  -5   2    1.29    1.30
  -8   5  -3   29.06    3.85
   8  -5   3   57.32    4.50
   8  -5   4   11.35    2.14
  -8   5  -4    6.44    2.04
  -8   5  -5    2.20    3.59
  -8   5  -5    0.99    1.66
  -8   5  -6   -0.15    3.58
  -8   5  -6   -0.08    1.82
  -8   4  11   -1.83    2.22
  -8   4  11    1.53    1.68
  -8   4  10   -1.09    2.08
  -8   4  10    1.56    1.57
  -8   4   9   -2.04    1.96
  -8   4   9   -0.73    1.59
  -8   4   8    5.94    1.91
  -8   4   8    8.63    2.48
  -8   4   7   29.91    4.10
  -8   4   7   32.20    4.01
  -8   4   6   58.06    5.41
   8  -4  -6   57.34    5.23
  -8   4   6   62.71    5.48
   8  -4  -5    6.15    2.00
  -8   4   5    7.13    2.29
   8  -4  -4    5.08    1.79
  -8   4   4    1.58    1.23
   8  -4  -3   18.59    2.78
  -8   4   3   16.72    2.84
   8  -4  -2   32.86    3.64
  -8   4   2   31.31    3.85
   8  -4  -1   77.33    5.38
  -8   4   1   66.48    5.59
   8  -4   0   12.51    2.30
  -8   4   0   11.25    2.53
  -8   4  -1   70.48    5.22
  -8   4  -1   74.31    6.20
  -8   4  -2   20.32    2.81
  -8   4  -2   14.47    3.51
  -8   4  -2   21.46    3.51
  -8   4  -3    7.71    3.28
  -8   4  -3   13.72    2.35
   8  -4   3   17.19    2.46
  -8   4  -3   10.28    2.44
  -8   4  -4   -0.96    2.80
  -8   4  -4   -1.15    2.10
  -8   4  -5    8.95    5.01
  -8   4  -5    0.81    1.80
  -8   4  -6   -5.63    5.22
  -8   4  -6    3.26    2.94
  -8   3  12    0.19    1.71
  -8   3  11    0.85    1.78
  -8   3  11    2.27    1.79
  -8   3  10   -2.57    2.01
  -8   3  10    0.34    1.24
  -8   3   9    1.87    1.66
  -8   3   9    1.89    1.62
  -8   3   8   38.11    4.66
  -8   3   8   43.85    4.52
  -8   3   7    0.72    1.45
  -8   3   7    0.80    1.63
  -8   3   6    4.04    1.62
  -8   3   6    3.20    1.16
  -8   3   6    5.65    2.02
  -8   3   5   12.64    2.58
  -8   3   5   12.63    2.64
  -8   3   4   18.85    3.09
  -8   3   4   25.84    3.50
  -8   3   3    1.95    1.34
  -8   3   3    3.18    1.51
  -8   3   2   97.22    6.52
  -8   3   2  103.13    7.07
  -8   3   1    3.46    1.46
  -8   3   1    3.80    1.85
  -8   3   0   39.86    4.07
  -8   3   0   33.27    4.86
  -8   3   0   38.37    4.55
  -8   3  -1   50.79    4.63
  -8   3  -1   43.26    5.88
  -8   3  -1   41.46    4.80
  -8   3  -2    4.35    3.03
  -8   3  -2    3.79    1.48
  -8   3  -2    2.67    1.90
  -8   3  -3    8.67    3.06
  -8   3  -3   14.71    2.64
  -8   3  -3   13.33    3.20
  -8   3  -4  105.11   11.05
  -8   3  -4  113.55    9.05
  -8   3  -5   -4.33    4.64
  -8   3  -5    3.90    2.89
  -8   3  -6    0.98    3.78
  -8   3  -6    7.18    3.68
  -8   2  12    5.15    2.40
  -8   2  11    4.87    2.41
  -8   2  10   32.69    4.40
  -8   2  10   37.93    4.43
  -8   2   9   11.38    2.90
  -8   2   9   10.31    2.48
  -8   2   8    1.00    1.44
  -8   2   8    3.11    1.92
  -8   2   7    9.73    2.58
  -8   2   7   12.32    2.64
  -8   2   6   -0.90    1.58
  -8   2   6   -2.50    1.70
  -8   2   6   -0.24    1.31
  -8   2   5   15.25    2.91
  -8   2   5   16.70    2.96
  -8   2   4   58.67    5.13
  -8   2   4   58.99    5.31
  -8   2   3    0.26    1.29
  -8   2   3    0.82    1.56
  -8   2   2    9.69    2.22
  -8   2   2   13.19    2.59
  -8   2   2   11.38    2.65
  -8   2   1   -0.02    1.97
  -8   2   1    2.01    1.75
  -8   2   1    2.09    1.89
  -8   2   0   -0.10    1.70
  -8   2   0    1.09    1.01
  -8   2   0   -0.03    1.14
  -8   2   0    1.37    1.88
  -8   2  -1    3.34    2.39
  -8   2  -1    4.92    1.90
  -8   2  -1    4.84    1.75
  -8   2  -1    3.86    2.08
  -8   2  -2   20.98    3.14
  -8   2  -2   14.83    3.58
  -8   2  -2   20.56    4.04
  -8   2  -3    4.52    2.53
  -8   2  -3    9.64    3.36
  -8   2  -4    0.61    3.53
  -8   2  -5    4.53    3.47
  -8   2  -6   32.18    7.45
  -8   1  13   34.27    4.93
  -8   1  12    8.44    2.88
  -8   1  11   15.48    3.33
  -8   1  10   16.79    3.40
  -8   1   9    6.57    2.36
  -8   1   8   49.26    5.09
  -8   1   7  133.45    8.08
  -8   1   7  112.94    5.12
  -8   1   6    0.16    0.69
  -8   1   6    1.41    1.60
  -8   1   6    2.75    1.91
  -8   1   5    1.05    0.85
  -8   1   5    2.94    1.71
  -8   1   5    3.02    1.85
  -8   1   4    1.83    1.17
  -8   1   4    0.47    1.44
  -8   1   4    1.20    1.88
  -8   1   3   27.07    3.62
  -8   1   3   25.16    3.11
  -8   1   3   30.79    4.05
  -8   1   2   13.21    2.55
  -8   1   2   11.69    2.57
  -8   1   2   14.59    3.09
  -8   1   1   51.07    4.82
  -8   1   1   41.17    4.56
  -8   1   1   49.10    5.26
  -8   1   0   59.93    4.92
  -8   1   0   63.27    5.28
  -8   1   0   52.60    5.39
  -8   1   0   61.01    6.09
  -8   1  -1   14.67    3.62
  -8   1  -1   15.59    2.44
  -8   1  -1   15.98    2.78
  -8   1  -2    4.22    1.64
  -8   1  -2    3.09    2.32
  -8   1  -3    7.40    3.37
  -8   1  -4    6.94    3.66
  -8   1  -5   14.20    4.73
  -8   1  -6   26.82    7.08
  -8   0  13    3.00    2.02
  -8   0  12   11.17    2.89
  -8   0  11   31.46    4.43
  -8   0  10   57.45    5.68
  -8   0   9    1.04    1.49
  -8   0   8    3.88    2.18
  -8   0   7    9.24    2.47
  -8   0   6  129.02    7.75
  -8   0   6  107.56    3.66
  -8   0   5  112.20    7.21
  -8   0   5   93.45    4.16
  -8   0   4   20.66    3.29
  -8   0   4   15.74    2.07
  -8   0   3   61.47    5.38
  -8   0   3   50.99    3.95
  -8   0   2    8.32    2.07
  -8   0   2   11.94    2.67
  -8   0   1   17.52    2.73
  -8   0   1   19.15    3.08
  -8   0   1   18.03    2.97
  -8   0   0   62.49    5.04
  -8   0   0   60.22    5.21
  -8   0   0   61.75    5.83
  -8   0  -1    6.36    1.78
  -8   0  -1    4.46    2.27
  -8   0  -2    3.59    1.77
  -8   0  -2    6.21    2.98
  -8   0  -3  112.51    9.79
  -8   0  -4    7.41    3.84
  -8   0  -5   11.02    4.95
  -8  -1  13    0.04    1.55
  -8  -1  12   18.88    3.73
  -8  -1  11   11.80    3.07
  -8  -1  10    6.20    2.39
  -8  -1   9   23.37    3.87
  -8  -1   8    8.38    2.50
  -8  -1   7    9.57    2.62
  -8  -1   6   38.46    4.59
  -8  -1   6   26.96    1.54
  -8  -1   5    3.48    1.92
  -8  -1   5    2.85    0.91
  -8  -1   4   27.33    3.81
  -8  -1   4   22.14    2.32
  -8  -1   3   44.39    4.68
  -8  -1   3   44.34    3.70
  -8  -1   2    1.95    1.29
  -8  -1   2    1.88    1.25
  -8  -1   1   16.20    2.84
  -8  -1   1   16.84    2.89
  -8  -1   1   18.48    2.80
  -8  -1   0   59.58    5.57
  -8  -1   0   53.60    5.36
  -8  -1   0   49.83    4.47
  -8  -1  -1    1.85    1.83
  -8  -1  -1    4.38    2.59
  -8  -1  -2    8.73    3.15
  -8  -1  -3    6.40    2.46
  -8  -1  -4    6.25    3.43
  -8  -1  -5   19.52    4.85
  -8  -2  13    6.35    2.60
  -8  -2  12    1.88    1.98
  -8  -2  11   52.69    5.77
  -8  -2  10    1.86    1.61
  -8  -2   9    0.68    1.33
  -8  -2   8   22.76    3.73
  -8  -2   7   -0.35    1.69
  -8  -2   6   -0.05    1.52
  -8  -2   5    3.79    1.45
  -8  -2   5    5.44    1.09
  -8  -2   4   -2.36    2.11
  -8  -2   4    0.73    0.92
  -8  -2   3   -1.61    1.75
  -8  -2   3   -0.06    0.85
  -8  -2   2   24.61    4.25
  -8  -2   2   18.46    2.80
  -8  -2   1   11.48    2.96
  -8  -2   1    9.01    2.25
  -8  -2   0   -0.51    1.51
  -8  -2   0    0.73    1.52
  -8  -2  -1    7.73    1.80
  -8  -2  -1   15.72    3.28
  -8  -2  -2    1.68    1.87
  -8  -2  -3    0.38    1.95
  -8  -2  -4    2.25    1.91
  -8  -3  13    0.95    1.93
  -8  -3  12   16.24    3.73
  -8  -3  11   44.21    5.54
  -8  -3  10    3.72    2.09
  -8  -3   9   10.73    2.63
  -8  -3   8    4.19    2.00
  -8  -3   7   40.26    4.80
  -8  -3   6   48.73    5.50
  -8  -3   5   61.32    6.16
  -8  -3   5   51.57    3.59
  -8  -3   4    5.18    2.60
  -8  -3   4    4.59    1.54
  -8  -3   3    3.33    2.19
  -8  -3   3    3.12    1.32
  -8  -3   2    0.45    1.45
  -8  -3   2    0.43    1.13
  -8  -3   1   21.97    4.09
  -8  -3   1   20.63    3.30
  -8  -3   0   16.58    3.59
  -8  -3   0   17.81    3.34
  -8  -3  -1    9.10    2.92
  -8  -3  -2   20.53    4.25
  -8  -3  -3    5.40    2.66
  -8  -3  -4    2.99    3.24
  -8  -4  13    4.10    2.67
  -8  -4  12    8.78    3.43
  -8  -4  11    8.68    3.40
  -8  -4  10   63.94    7.03
  -8  -4   9   35.35    5.19
  -8  -4   8   38.14    5.34
  -8  -4   7    4.54    2.57
  -8  -4   6    3.52    2.35
  -8  -4   5   16.58    3.76
  -8  -4   5   10.08    1.85
  -8  -4   4  105.91    8.69
  -8  -4   4  110.15    6.35
  -8  -4   3    2.41    2.16
  -8  -4   3    5.29    1.91
  -8  -4   2   -0.54    2.44
  -8  -4   2    6.59    2.35
  -8  -4   1   17.49    3.88
  -8  -4   1   20.47    3.49
  -8  -4   0    2.52    1.97
  -8  -4  -1    6.72    2.76
  -8  -4  -2   33.57    5.26
  -8  -4  -3    3.61    2.71
  -8  -5  12    5.33    3.14
  -8  -5  11    3.74    2.57
  -8  -5  10    1.59    2.14
  -8  -5   9    0.88    1.61
  -8  -5   8   12.28    3.54
  -8  -5   7   24.11    4.53
  -8  -5   6   -0.15    2.21
  -8  -5   5    0.81    1.78
  -8  -5   4   11.34    3.28
  -8  -5   4    8.56    2.14
  -8  -5   3    0.27    2.29
  -8  -5   3    3.39    1.64
  -8  -5   2   17.99    4.26
  -8  -5   2   20.72    3.53
  -8  -5   2   24.13    4.72
  -8  -5   1   23.70    3.97
  -8  -5   0    8.20    2.86
  -8  -5  -1    8.62    3.01
  -8  -5  -2    7.55    2.92
  -8  -6  10    8.45    2.99
  -8  -6   9   12.98    3.91
  -8  -6   8    0.40    2.27
  -8  -6   7    0.14    2.76
  -8  -6   6    2.30    1.99
  -8  -6   5   -0.69    2.71
  -8  -6   4   -1.38    2.99
  -8  -6   3    5.80    2.86
  -8  -6   3   -2.29    2.56
  -8  -6   3    2.87    2.61
  -8  -6   2   -1.66    2.12
  -8  -6   1   -0.53    1.85
  -8  -6   0    0.34    1.85
  -8  -6  -1   11.52    3.57
  -8  -7   8   -2.92    3.13
  -8  -7   7    6.13    2.73
  -8  -7   6   -5.64    3.46
  -8  -7   5   25.93    5.46
  -8  -7   5   26.33    5.32
  -8  -7   4    6.55    2.94
  -8  -8   6    1.26    2.10
  -8  -8   5   -0.66    2.44
   9  -8  -2    2.78    2.22
   9  -8  -1    8.47    3.02
   9  -8   0   -0.12    1.98
   9  -8   1   -0.24    1.91
   9  -8   2   -1.86    2.00
   9  -8   3   38.89    5.03
   9  -7  -5    2.26    1.77
   9  -7  -4    4.83    2.26
   9  -7  -3    0.24    1.60
   9  -7  -2    4.92    2.25
   9  -7  -1   20.35    3.59
   9  -7   0   70.52    6.41
   9  -7   1    0.55    1.41
   9  -7   2    4.09    1.85
   9  -7   3    8.31    2.28
  -9   6  10    0.66    1.45
  -9   6   9   -1.64    1.72
  -9   6   8    3.69    1.97
   9  -6  -7    5.08    2.30
  -9   6   7    2.73    1.60
   9  -6  -6    1.55    1.47
  -9   6   6   -2.37    2.33
   9  -6  -5    4.90    2.26
   9  -6  -4   13.72    3.08
   9  -6  -3   27.56    4.11
   9  -6  -2    7.55    2.31
   9  -6  -1    1.08    1.33
   9  -6   0    3.92    1.76
   9  -6   1   27.82    3.86
   9  -6   2   34.62    4.15
  -9   6  -2   14.52    2.70
   9  -6   3   22.36    3.29
  -9   6  -3   12.41    2.64
  -9   6  -4   -0.64    3.67
  -9   6  -4    6.79    2.01
  -9   6  -5   -2.50    2.10
  -9   6  -6    4.44    1.96
  -9   5  11   13.33    3.12
  -9   5  10    1.30    1.71
  -9   5   9   -0.61    1.65
  -9   5   8   -2.43    2.46
  -9   5   8    1.85    1.49
  -9   5   7    6.77    2.15
  -9   5   7    8.76    2.49
   9  -5  -6    5.42    2.15
  -9   5   6    4.33    1.75
   9  -5  -5   18.43    3.39
  -9   5   5   15.98    3.07
   9  -5  -4   11.96    2.70
  -9   5   4   11.50    2.70
   9  -5  -3    2.16    1.64
  -9   5   3    0.08    1.65
   9  -5  -2    0.91    1.39
  -9   5   2   -0.97    1.96
   9  -5  -1    1.11    1.50
  -9   5   1   -1.45    1.82
   9  -5   0    1.46    1.46
  -9   5   0   -0.75    2.04
   9  -5   1   18.81    2.97
  -9   5  -1   11.40    2.22
  -9   5  -1   10.73    2.70
  -9   5  -2    1.00    2.86
  -9   5  -2    6.01    1.70
  -9   5  -2    5.30    1.79
  -9   5  -3    3.58    2.53
  -9   5  -3    3.16    1.75
  -9   5  -4    9.44    4.62
  -9   5  -4    9.71    2.82
  -9   5  -5   -1.23    1.85
  -9   5  -6    2.33    2.60
  -9   4  11    7.42    2.59
  -9   4  10   26.78    4.70
  -9   4  10   31.60    4.25
  -9   4   9   10.28    2.95
  -9   4   9   12.73    2.90
  -9   4   8    2.03    1.63
  -9   4   8    1.72    1.77
  -9   4   7   23.90    3.97
  -9   4   7   25.10    3.80
  -9   4   6    3.26    1.74
  -9   4   6    4.09    1.80
  -9   4   5   21.52    3.73
  -9   4   5   21.89    3.78
  -9   4   4   24.69    3.72
  -9   4   4   23.89    3.79
  -9   4   3    0.20    1.50
   9  -4  -3    2.47    1.80
  -9   4   3   -2.68    2.39
  -9   4   2    1.90    1.28
   9  -4  -2    1.95    1.55
  -9   4   2    1.94    1.73
  -9   4   1   47.74    4.82
   9  -4  -1   56.58    4.96
  -9   4   1   49.29    5.34
  -9   4   0    0.25    1.25
  -9   4   0    0.16    1.41
  -9   4  -1   -0.19    1.53
  -9   4  -1    1.59    1.56
  -9   4  -2   -1.90    2.50
  -9   4  -2    0.62    1.13
  -9   4  -2   -1.62    2.29
  -9   4  -3   -1.65    3.12
  -9   4  -3   -0.05    1.88
  -9   4  -4   10.01    4.84
  -9   4  -4    4.15    2.30
  -9   4  -5   20.24    4.64
  -9   3  11    3.63    2.13
  -9   3  10   24.09    4.19
  -9   3  10   31.31    4.34
  -9   3   9    4.29    2.49
  -9   3   9    4.58    2.14
  -9   3   8   36.57    4.81
  -9   3   8   39.88    4.75
  -9   3   7   21.38    3.78
  -9   3   7   21.22    3.68
  -9   3   6    7.26    2.43
  -9   3   6    8.68    2.52
  -9   3   5   44.82    4.96
  -9   3   5   48.98    5.31
  -9   3   4  102.90    7.40
  -9   3   4  117.70    8.03
  -9   3   3    3.93    1.77
  -9   3   3    2.20    1.91
  -9   3   2   16.79    3.12
  -9   3   2   16.91    3.43
  -9   3   1   -0.07    1.72
  -9   3   1   -1.23    1.66
  -9   3   1   -0.42    1.71
  -9   3   0   12.91    3.35
  -9   3   0   16.99    3.13
  -9   3   0   13.21    3.36
  -9   3  -1   51.08    5.15
  -9   3  -1   43.30    6.43
  -9   3  -1   47.59    5.89
  -9   3  -2   43.19    7.07
  -9   3  -2   44.63    5.87
  -9   3  -3    7.45    3.29
  -9   3  -3   16.54    4.19
  -9   3  -4   -4.24    4.83
  -9   3  -4    9.32    3.64
  -9   3  -5    2.14    3.35
  -9   2  11    1.13    1.56
  -9   2  10   -0.52    1.68
  -9   2   9   10.68    2.97
  -9   2   9   13.64    3.16
  -9   2   8    1.12    1.55
  -9   2   8    1.56    1.60
  -9   2   7   15.43    3.23
  -9   2   7   17.56    3.44
  -9   2   6    2.41    1.94
  -9   2   6    3.00    1.99
  -9   2   5    9.31    2.58
  -9   2   5   10.06    2.79
  -9   2   4   -1.08    1.24
  -9   2   4    0.94    1.51
  -9   2   4    3.39    2.45
  -9   2   3   74.60    6.29
  -9   2   3   63.33    5.44
  -9   2   3   82.81    7.01
  -9   2   2   43.75    4.81
  -9   2   2   36.53    4.55
  -9   2   2   45.43    5.42
  -9   2   1   13.63    3.27
  -9   2   1   16.32    3.23
  -9   2   1   18.29    3.77
  -9   2   0   36.32    4.45
  -9   2   0   31.42    4.99
  -9   2   0   36.59    5.26
  -9   2  -1   -0.64    2.54
  -9   2  -1    6.12    2.66
  -9   2  -1    6.46    2.79
  -9   2  -2    8.17    3.28
  -9   2  -2   16.45    4.30
  -9   2  -3   50.69    7.62
  -9   2  -4    0.78    3.33
  -9   1  12    3.04    2.12
  -9   1  11   13.61    3.34
  -9   1  10   13.22    3.34
  -9   1   9   15.94    3.40
  -9   1   8    0.15    1.52
  -9   1   7    2.15    1.89
  -9   1   6   -0.19    0.70
  -9   1   6    0.75    1.54
  -9   1   5   12.50    2.04
  -9   1   5   17.67    3.35
  -9   1   5   16.60    3.58
  -9   1   4    3.66    1.28
  -9   1   4    5.86    2.26
  -9   1   4    5.21    2.57
  -9   1   3    7.75    1.98
  -9   1   3   15.31    3.17
  -9   1   3   13.57    3.36
  -9   1   2   17.72    3.17
  -9   1   2   21.10    3.66
  -9   1   1   19.61    3.50
  -9   1   1   23.65    3.66
  -9   1   0   26.90    4.10
  -9   1   0   23.93    4.25
  -9   1  -1    0.92    1.62
  -9   1  -1    0.95    2.19
  -9   1  -2   -0.88    2.31
  -9   1  -3    5.40    3.81
  -9   1  -4   10.80    4.65
  -9   0  12    7.21    2.83
  -9   0  11    6.66    2.69
  -9   0  10    4.56    2.35
  -9   0   9   27.19    4.17
  -9   0   8   69.54    6.35
  -9   0   7    7.08    2.60
  -9   0   6    2.58    0.80
  -9   0   6    1.76    1.83
  -9   0   5   44.81    5.16
  -9   0   5   38.89    3.02
  -9   0   4    9.59    1.83
  -9   0   4   12.90    3.05
  -9   0   3   40.23    4.85
  -9   0   3   36.68    3.76
  -9   0   2   47.44    5.18
  -9   0   2   43.78    4.53
  -9   0   1    1.07    1.69
  -9   0   1   -0.66    1.47
  -9   0   0   -1.15    2.07
  -9   0   0    1.97    2.09
  -9   0  -1   26.90    4.97
  -9   0  -2   17.01    4.21
  -9   0  -3    4.55    3.43
  -9   0  -4    8.69    4.40
  -9  -1  12   28.96    4.66
  -9  -1  11   10.20    3.02
  -9  -1  10    5.16    2.61
  -9  -1   9    9.89    2.84
  -9  -1   8   51.92    5.65
  -9  -1   7    7.82    2.51
  -9  -1   6   69.56    6.39
  -9  -1   5   21.34    2.19
  -9  -1   5   24.71    3.91
  -9  -1   4   35.17    4.75
  -9  -1   4   35.88    3.37
  -9  -1   3   39.12    4.94
  -9  -1   3   36.95    3.79
  -9  -1   2   31.33    4.41
  -9  -1   2   29.56    3.77
  -9  -1   1    4.49    2.79
  -9  -1   1    0.03    1.60
  -9  -1   0   15.02    3.54
  -9  -1   0   12.66    3.10
  -9  -1  -1    2.26    1.87
  -9  -1  -2   29.25    5.17
  -9  -1  -3    6.47    3.21
  -9  -2  12    0.27    1.48
  -9  -2  11    1.10    1.78
  -9  -2  10    2.36    2.03
  -9  -2   9    4.81    2.44
  -9  -2   8    1.42    1.55
  -9  -2   7   43.10    5.31
  -9  -2   6    7.11    2.43
  -9  -2   5   12.68    3.02
  -9  -2   4   -1.70    2.27
  -9  -2   4    1.39    1.14
  -9  -2   3   23.68    4.32
  -9  -2   3   19.02    2.77
  -9  -2   2   12.36    3.41
  -9  -2   2    8.23    2.20
  -9  -2   1   63.23    6.91
  -9  -2   1   53.78    5.36
  -9  -2   0    0.69    1.66
  -9  -2  -1    1.19    1.84
  -9  -2  -2   -1.25    2.27
  -9  -2  -3   -1.85    2.57
  -9  -3  11   -0.80    2.18
  -9  -3  10   -1.34    2.66
  -9  -3   9   27.74    4.43
  -9  -3   8    2.94    2.06
  -9  -3   7   -1.58    1.64
  -9  -3   6    4.35    2.62
  -9  -3   5    7.84    3.30
  -9  -3   4    1.48    2.30
  -9  -3   3    6.12    2.75
  -9  -3   3    2.60    1.43
  -9  -3   2   -0.97    2.27
  -9  -3   2    0.62    1.39
  -9  -3   1   -2.42    3.01
  -9  -3   1    1.89    1.76
  -9  -3   0    3.54    2.27
  -9  -3  -1   18.35    4.01
  -9  -3  -2    3.04    2.39
  -9  -4  11    9.84    3.75
  -9  -4  10    7.30    3.39
  -9  -4   9   14.26    4.06
  -9  -4   8    5.06    2.95
  -9  -4   7   34.92    5.46
  -9  -4   6   50.02    6.50
  -9  -4   5    9.15    3.31
  -9  -4   4    1.90    2.05
  -9  -4   3   10.55    3.39
  -9  -4   2   -2.82    3.62
  -9  -4   2    1.33    1.76
  -9  -4   1    7.60    2.81
  -9  -4   0    5.38    2.47
  -9  -4  -1   12.89    3.41
  -9  -5  10   22.70    4.85
  -9  -5   9    9.51    3.49
  -9  -5   8   17.71    4.31
  -9  -5   7   12.35    3.71
  -9  -5   6    8.22    3.28
  -9  -5   5   12.23    4.01
  -9  -5   4    7.20    2.78
  -9  -5   3   -5.44    3.63
  -9  -5   0    5.84    2.67
  -9  -6   8   -1.62    2.76
  -9  -6   7   -7.80    4.21
  -9  -6   6    9.15    3.17
  -9  -6   5    7.10    2.89
  -9  -6   4    1.82    2.85
  -9  -7   5   -3.39    3.33
  -9  -7   5    0.74    3.25
  10  -7  -2    9.57    3.00
  10  -7  -1   19.04    3.88
  10  -7   0    1.59    1.87
  10  -7   1    0.94    1.69
  10  -6  -5    3.01    2.22
 -10   6   5   -0.79    2.01
 -10   6   4    0.39    1.50
 -10   6   4    3.10    1.71
  10  -6  -3    1.30    1.70
 -10   6   3   -3.96    2.34
  10  -6  -2   26.57    4.06
 -10   6   2   18.95    3.52
 -10   6   1   15.09    2.76
 -10   6   1   14.80    2.89
  10  -6   0    2.85    2.02
 -10   6   0   -0.93    1.40
 -10   6   0   -1.01    1.80
  10  -6   1    7.02    2.41
 -10   6  -1    2.26    1.18
 -10   5   8    1.09    1.50
 -10   5   7    4.95    2.29
 -10   5   7    8.75    2.80
 -10   5   6   -0.22    1.72
 -10   5   6    1.64    2.02
 -10   5   5   16.35    3.30
 -10   5   5   22.22    3.97
 -10   5   4    3.12    1.62
 -10   5   4    6.41    2.27
 -10   5   3    3.04    1.38
  10  -5  -3    7.37    2.29
 -10   5   3    2.23    1.99
 -10   5   2    1.59    1.38
  10  -5  -2    4.45    1.94
 -10   5   2    2.76    1.72
 -10   5   1   11.06    2.50
 -10   5   1   11.32    2.87
 -10   5   0   -2.01    1.70
 -10   5   0   -0.19    1.52
 -10   5  -1    4.39    2.27
 -10   5  -1   12.03    3.04
 -10   5  -2   -5.85    3.84
 -10   5  -2   -1.24    2.15
 -10   5  -3   20.73    3.96
 -10   4  11    2.18    2.06
 -10   4  10    4.76    2.41
 -10   4   9   11.64    3.17
 -10   4   8   -0.03    1.79
 -10   4   8    5.39    2.64
 -10   4   7    1.88    1.89
 -10   4   7    6.29    2.66
 -10   4   6    6.62    2.36
 -10   4   6    9.14    2.81
 -10   4   5   -1.53    1.87
 -10   4   5    0.76    1.98
 -10   4   4    0.78    1.47
 -10   4   4   -0.28    1.71
 -10   4   3    0.48    1.56
 -10   4   3    3.72    2.14
 -10   4   2    5.02    2.12
 -10   4   2    2.89    2.15
 -10   4   1   -0.52    2.29
 -10   4   1   -2.04    1.86
 -10   4   1   -1.73    1.97
 -10   4   0    8.28    2.95
 -10   4   0    9.97    2.51
 -10   4   0   10.15    2.87
 -10   4  -1    0.79    2.08
 -10   4  -1    0.70    1.83
 -10   4  -2   -0.79    2.32
 -10   4  -2    1.27    2.04
 -10   4  -3   -4.17    4.03
 -10   4  -3    2.84    2.49
 -10   4  -4    9.26    3.86
 -10   3  10    7.83    2.89
 -10   3   9    2.36    2.17
 -10   3   9    5.38    2.52
 -10   3   8   25.17    4.38
 -10   3   8   29.34    4.42
 -10   3   7   27.54    4.52
 -10   3   7   32.51    4.89
 -10   3   6   25.60    4.30
 -10   3   6   30.61    4.77
 -10   3   5    0.65    1.72
 -10   3   5    0.70    1.65
 -10   3   4    7.51    2.03
 -10   3   4   10.43    3.10
 -10   3   4   11.97    3.43
 -10   3   3   10.04    2.46
 -10   3   3   21.24    3.74
 -10   3   3   21.69    4.10
 -10   3   2   52.23    5.55
 -10   3   2   46.22    5.48
 -10   3   2   58.87    6.58
 -10   3   1    9.52    3.34
 -10   3   1   14.59    3.37
 -10   3   1   12.14    3.55
 -10   3   0    4.80    2.62
 -10   3   0    2.87    1.93
 -10   3   0    3.93    2.57
 -10   3  -1    6.70    2.60
 -10   3  -1   15.16    4.30
 -10   3  -2   -0.50    2.95
 -10   3  -2   10.08    3.85
 -10   3  -3   -1.18    3.10
 -10   3  -3    9.54    4.33
 -10   2  10    4.79    2.56
 -10   2   9    5.32    2.76
 -10   2   8    9.62    3.09
 -10   2   8    6.65    2.83
 -10   2   7    0.75    2.04
 -10   2   7    6.30    2.91
 -10   2   6   42.60    5.35
 -10   2   6   52.10    6.02
 -10   2   5   77.23    7.00
 -10   2   5   70.61    5.26
 -10   2   4    0.94    1.37
 -10   2   4    0.74    1.70
 -10   2   4    2.65    2.29
 -10   2   3    2.99    1.79
 -10   2   3    6.07    2.52
 -10   2   3    7.57    3.20
 -10   2   2    4.90    2.00
 -10   2   2    9.03    2.94
 -10   2   2    8.83    2.95
 -10   2   1    7.35    2.54
 -10   2   1   14.72    3.50
 -10   2   1   11.14    3.59
 -10   2   0   62.17    6.48
 -10   2   0   48.00    6.41
 -10   2  -1   30.51    5.59
 -10   2  -2   -2.68    3.25
 -10   2  -3    8.86    4.08
 -10   1  10   -0.44    1.75
 -10   1   9    9.38    2.93
 -10   1   8    2.07    1.61
 -10   1   7    5.87    2.42
 -10   1   6    4.14    2.42
 -10   1   5   18.55    3.71
 -10   1   4    5.77    1.82
 -10   1   4    8.59    2.89
 -10   1   3   48.98    5.86
 -10   1   3   41.88    4.58
 -10   1   2    5.16    2.19
 -10   1   2    9.58    3.06
 -10   1   1   12.58    3.37
 -10   1   1   10.76    3.13
 -10   1   0    4.15    2.50
 -10   1  -1   11.96    3.98
 -10   1  -2    7.66    3.72
 -10   1  -3   28.21    6.49
 -10   0  10    9.77    2.90
 -10   0   9    6.37    2.82
 -10   0   8    3.70    2.06
 -10   0   7    4.14    2.25
 -10   0   6    1.26    1.95
 -10   0   5    3.61    2.33
 -10   0   4    4.05    2.25
 -10   0   3    6.52    2.91
 -10   0   3    7.56    2.17
 -10   0   2   -1.85    2.14
 -10   0   2    1.87    1.60
 -10   0   1   -3.87    2.67
 -10   0   1    3.01    2.05
 -10   0   0    8.05    3.00
 -10   0  -1   21.09    4.64
 -10   0  -2   18.60    4.73
 -10  -1  10   36.09    5.18
 -10  -1   9    9.41    3.07
 -10  -1   8    8.36    2.71
 -10  -1   7   13.29    3.56
 -10  -1   6   61.32    6.64
 -10  -1   5    6.33    2.71
 -10  -1   4    3.13    2.05
 -10  -1   3   -2.34    2.38
 -10  -1   3   -0.33    1.26
 -10  -1   2    5.11    2.93
 -10  -1   2   -2.52    1.87
 -10  -1   1    9.93    2.85
 -10  -1   0   22.54    4.28
 -10  -1  -1   -2.49    2.48
 -10  -1  -2   -0.52    2.49
 -10  -2  10   16.47    3.84
 -10  -2   9   38.03    5.56
 -10  -2   8    5.44    2.83
 -10  -2   7    0.63    1.99
 -10  -2   6    1.70    1.69
 -10  -2   5    8.89    2.82
 -10  -2   4   59.27    7.17
 -10  -2   3   31.78    5.35
 -10  -2   2    0.36    2.10
 -10  -2   1   -1.56    1.51
 -10  -2   0    1.70    1.61
 -10  -2  -1    2.05    2.32
 -10  -3  10   -0.67    2.01
 -10  -3   9   -1.93    2.82
 -10  -3   8    6.32    2.83
 -10  -3   7   18.65    4.47
 -10  -3   6    3.76    3.09
 -10  -3   5    9.78    3.68
 -10  -3   4    2.72    2.61
 -10  -3   3    9.22    3.61
 -10  -3   0    3.97    2.36
 -10  -4   9    8.57    3.45
 -10  -4   8    3.86    2.72
 -10  -4   7    9.01    3.49
 -10  -4   6    1.00    2.04
 -10  -4   5    0.25    2.20
 -10  -4   4   -1.14    2.19
 -10  -5   7    1.30    2.58
 -10  -5   6    1.89    2.33
 -10  -5   5    2.44    2.55
 -10  -5   4   13.33    4.30
 -11   6   3    4.30    1.83
 -11   6   2   -1.12    1.63
 -11   6   1    0.67    1.18
 -11   5   4    9.07    2.58
 -11   5   3   15.48    3.26
 -11   5   2    3.98    2.06
 -11   5   1    1.34    1.74
 -11   5   1    8.69    2.47
 -11   5   0   -0.53    1.87
 -11   4   6    1.34    2.01
 -11   4   5    0.91    2.00
 -11   4   4    0.85    1.60
 -11   4   3    8.46    2.25
 -11   4   3   17.48    3.45
 -11   4   2   18.64    3.58
 -11   4   2   22.19    3.91
 -11   4   1   -0.24    1.80
 -11   4   1    1.86    1.78
 -11   4   0    6.44    2.97
 -11   4  -1    3.07    2.86
 -11   3   7    2.64    2.22
 -11   3   6    2.19    2.33
 -11   3   5    6.58    2.69
 -11   3   5    7.73    3.17
 -11   3   4    5.56    2.60
 -11   3   4    6.36    3.20
 -11   3   3    1.88    1.74
 -11   3   3    4.89    2.51
 -11   3   3    2.45    2.20
 -11   3   2    2.39    2.03
 -11   3   2    0.57    1.88
 -11   3   1   -0.65    2.62
 -11   3   0    6.29    2.79
 -11   3  -1   -3.32    3.23
 -11   2   8   27.12    4.78
 -11   2   7   14.23    3.70
 -11   2   6   15.57    3.77
 -11   2   5    4.31    2.46
 -11   2   4   19.91    4.11
 -11   2   3    2.46    2.23
 -11   2   2   10.62    2.93
 -11   2   2   17.49    3.92
 -11   2   1   -2.59    2.24
 -11   2   0   12.73    4.01
 -11   2  -1    1.18    2.81
 -11   1   8    4.52    2.75
 -11   1   7   19.14    4.13
 -11   1   6   16.52    3.98
 -11   1   5   12.77    3.60
 -11   1   4   20.17    4.22
 -11   1   3   62.11    6.99
 -11   1   2    7.23    2.96
 -11   1   1   14.40    3.58
 -11   1   0    3.22    2.65
 -11   1  -1    4.74    3.42
 -11   0   8   -0.64    1.97
 -11   0   7    8.09    3.07
 -11   0   6    7.47    2.90
 -11   0   5    0.78    2.62
 -11   0   4    4.75    2.95
 -11   0   3    0.93    1.98
 -11   0   0    8.99    3.40
 -11   0  -1   -2.05    2.96
 -11  -1   8   12.71    3.68
 -11  -1   7    0.25    2.05
 -11  -1   6    2.99    2.42
 -11  -1   5    3.82    2.46
 -11  -1   4   -1.13    2.52
 -11  -1   3    9.10    3.75
 -11  -2   8   12.27    3.63
 -11  -2   7   28.81    5.07
 -11  -2   6   28.56    5.32
 -11  -2   5   10.64    4.28
 -11  -2   4    7.09    3.54
 -11  -3   7   16.09    4.84
 -11  -3   6   11.39    4.36
 -11  -3   5   24.13    5.36
 -11  -4   6    1.09    2.87
 -12   3   4    9.27    3.17
 -12   3   3    7.99    3.03
 -12   2   5    3.09    2.62
 -12   2   4   -0.49    1.90
 -12   1   6    8.29    3.33
 -12   1   5   10.83    3.49
 -12   1   4    2.32    2.48
 -12   0   6    5.20    3.17
 -12   0   5    8.30    3.53
 -12  -1   5   -3.85    3.11
   0   0   0    0.00    0.00
;
_shelx_hkl_checksum              67521
_olex2_submission_special_instructions 'No special instructions were received'
#END Tags that were not found in dictionaries
loop_
_space_group_symop_operation_xyz
'x, y, z'
'-x, -y, -z'
loop_
_atom_site_label
_atom_site_type_symbol
_atom_site_fract_x
_atom_site_fract_y
_atom_site_fract_z
_atom_site_U_iso_or_equiv
_atom_site_adp_type
_atom_site_occupancy
_atom_site_site_symmetry_order
_atom_site_calc_flag
_atom_site_refinement_flags_posn
Br2 Br 0.83775(10) 0.78289(10) -0.07903(7) 0.0331(3) Uani 1 1 d .
Br4 Br 0.66426(10) 0.40755(11) -0.24702(7) 0.0333(3) Uani 1 1 d .
O3 O 1.2426(8) 0.9103(7) 0.1330(6) 0.0451(17) Uani 1 1 d .
O4 O 1.0780(7) 0.8676(7) 0.2322(5) 0.0361(15) Uani 1 1 d .
H4 H 1.1236 0.9577 0.2782 0.054 Uiso 1 1 calc GR
C7 C 0.8579(8) 0.4631(9) -0.1046(6) 0.0200(16) Uani 1 1 d .
C9 C 0.9283(9) 0.6194(9) -0.0331(6) 0.0188(15) Uani 1 1 d .
C12 C 1.0690(9) 0.6548(10) 0.0711(6) 0.0247(18) Uani 1 1 d .
C24 C 1.1439(10) 0.8269(10) 0.1499(7) 0.0267(18) Uani 1 1 d .
Br1 Br 0.54928(10) 0.28414(10) 0.38520(8) 0.0328(3) Uani 1 1 d .
Br3 Br 0.80609(9) 0.04071(11) 0.41055(8) 0.0331(3) Uani 1 1 d .
O1 O 0.1442(6) 0.1503(7) 0.3717(5) 0.0282(13) Uani 1 1 d .
O2 O 0.3016(6) 0.3351(7) 0.5509(5) 0.0321(14) Uani 1 1 d .
C3 C 0.3920(8) 0.1019(8) 0.4888(6) 0.0161(15) Uani 1 1 d .
C5 C 0.6276(8) 0.0186(9) 0.4613(6) 0.0181(15) Uani 1 1 d .
C6 C 0.5214(8) 0.1180(8) 0.4485(6) 0.0150(14) Uani 1 1 d .
C8 C 0.2738(8) 0.2096(9) 0.4727(6) 0.0155(15) Uani 1 1 d .
N1 N 0.9632(8) 0.3347(9) 0.2972(6) 0.0312(16) Uani 1 1 d .
N2 N 0.6138(11) 0.7043(13) 0.1042(8) 0.063(3) Uani 1 1 d .
C13 C 0.7821(10) 0.5235(12) 0.2011(8) 0.033(2) Uani 1 1 d .
C21 C 1.0102(10) 0.4888(11) 0.3531(7) 0.0313(19) Uani 1 1 d .
H21 H 1.1045 0.5301 0.4244 0.038 Uiso 1 1 calc R
C27 C 0.6850(12) 0.6207(13) 0.1455(9) 0.045(2) Uani 1 1 d .
C30 C 0.9212(10) 0.5870(11) 0.3068(7) 0.033(2) Uani 1 1 d .
H30 H 0.9538 0.6953 0.3460 0.039 Uiso 1 1 calc R
C31 C 0.8279(11) 0.2743(12) 0.1955(8) 0.042(2) Uani 1 1 d .
H31 H 0.7982 0.1657 0.1579 0.050 Uiso 1 1 calc R
C32 C 0.7315(10) 0.3636(12) 0.1443(8) 0.041(2) Uani 1 1 d .
H32 H 0.6360 0.3190 0.0743 0.050 Uiso 1 1 calc R
H1 H 1.064(10) 0.272(11) 0.342(7) 0.04(2) Uiso 1 1 d .
loop_
_atom_site_aniso_label
_atom_site_aniso_U_11
_atom_site_aniso_U_22
_atom_site_aniso_U_33
_atom_site_aniso_U_23
_atom_site_aniso_U_13
_atom_site_aniso_U_12
Br2 0.0437(5) 0.0211(5) 0.0322(5) 0.0143(4) 0.0051(4) 0.0120(4)
Br4 0.0310(4) 0.0298(5) 0.0238(4) 0.0061(3) -0.0054(3) 0.0016(4)
O3 0.051(4) 0.022(4) 0.056(4) 0.008(3) 0.022(3) -0.006(3)
O4 0.054(4) 0.016(3) 0.030(3) -0.003(2) 0.015(3) -0.001(3)
C7 0.022(3) 0.018(4) 0.017(3) 0.007(3) 0.005(3) -0.003(3)
C9 0.030(4) 0.015(4) 0.016(3) 0.010(3) 0.009(3) 0.008(3)
C12 0.031(4) 0.018(4) 0.019(4) 0.004(3) 0.007(3) -0.004(3)
C24 0.031(4) 0.018(5) 0.028(4) 0.011(3) 0.005(4) 0.005(3)
Br1 0.0336(4) 0.0308(5) 0.0500(5) 0.0329(4) 0.0181(4) 0.0131(4)
Br3 0.0283(4) 0.0393(6) 0.0510(5) 0.0290(4) 0.0246(4) 0.0159(4)
O1 0.027(3) 0.023(3) 0.022(3) 0.002(2) -0.004(2) 0.013(2)
O2 0.037(3) 0.017(3) 0.032(3) -0.001(3) 0.006(3) 0.010(3)
C3 0.014(3) 0.012(4) 0.019(3) 0.005(3) -0.001(3) 0.009(3)
C5 0.014(3) 0.018(4) 0.025(4) 0.011(3) 0.008(3) 0.005(3)
C6 0.014(3) 0.011(4) 0.017(3) 0.009(3) 0.000(3) 0.001(3)
C8 0.015(3) 0.015(4) 0.025(4) 0.013(3) 0.011(3) 0.008(3)
N1 0.034(4) 0.032(5) 0.034(4) 0.021(3) 0.011(3) 0.013(3)
N2 0.059(5) 0.079(8) 0.070(6) 0.048(6) 0.019(5) 0.041(5)
C13 0.034(4) 0.048(6) 0.037(5) 0.031(4) 0.019(4) 0.024(4)
C21 0.034(4) 0.034(6) 0.030(4) 0.016(4) 0.010(4) 0.016(4)
C27 0.047(5) 0.058(7) 0.048(6) 0.035(5) 0.022(5) 0.028(5)
C30 0.040(5) 0.026(5) 0.031(4) 0.013(4) 0.009(4) 0.013(4)
C31 0.044(5) 0.034(6) 0.041(5) 0.014(4) 0.006(5) 0.007(4)
C32 0.031(5) 0.047(7) 0.037(5) 0.023(5) -0.005(4) 0.010(4)
loop_
_atom_type_symbol
_atom_type_description
_atom_type_scat_dispersion_real
_atom_type_scat_dispersion_imag
_atom_type_scat_source
C C 0.0030 0.0020 'International Tables Vol C Tables 4.2.6.8 and 6.1.1.4'
H H 0.0000 0.0000 'International Tables Vol C Tables 4.2.6.8 and 6.1.1.4'
Br Br -0.2900 2.4600 'International Tables Vol C Tables 4.2.6.8 and 6.1.1.4'
N N 0.0060 0.0030 'International Tables Vol C Tables 4.2.6.8 and 6.1.1.4'
O O 0.0110 0.0060 'International Tables Vol C Tables 4.2.6.8 and 6.1.1.4'
loop_
_geom_angle_atom_site_label_1
_geom_angle_atom_site_label_2
_geom_angle_atom_site_label_3
_geom_angle
_geom_angle_site_symmetry_1
_geom_angle_site_symmetry_3
C24 O4 H4 109.5 . .
C9 C7 Br4 121.2(6) . .
C12 C7 Br4 119.2(5) 2_765 .
C12 C7 C9 119.6(7) 2_765 .
C7 C9 Br2 120.9(5) . .
C12 C9 Br2 119.8(6) . .
C12 C9 C7 119.3(7) . .
C7 C12 C24 120.1(7) 2_765 .
C9 C12 C7 121.1(7) . 2_765
C9 C12 C24 118.8(7) . .
O3 C24 O4 126.6(8) . .
O3 C24 C12 123.7(7) . .
O4 C24 C12 109.6(7) . .
C5 C3 C6 118.3(6) 2_656 .
C5 C3 C8 121.8(6) 2_656 .
C6 C3 C8 119.8(6) . .
C3 C5 Br3 117.5(5) 2_656 .
C6 C5 Br3 120.7(6) . .
C6 C5 C3 121.8(6) . 2_656
C3 C6 Br1 117.7(5) . .
C5 C6 Br1 122.2(5) . .
C5 C6 C3 119.9(7) . .
O1 C8 C3 113.4(6) . .
O2 C8 O1 126.0(7) . .
O2 C8 C3 120.6(6) . .
C21 N1 C31 120.3(8) . .
C21 N1 H1 110(4) . .
C31 N1 H1 129(4) . .
C30 C13 C27 121.8(9) . .
C32 C13 C27 117.4(8) . .
C32 C13 C30 120.9(8) . .
N1 C21 H21 119.8 . .
N1 C21 C30 120.3(8) . .
C30 C21 H21 119.8 . .
N2 C27 C13 176.7(13) . .
C13 C30 H30 120.5 . .
C21 C30 C13 118.9(9) . .
C21 C30 H30 120.5 . .
N1 C31 H31 118.5 . .
N1 C31 C32 123.1(10) . .
C32 C31 H31 118.5 . .
C13 C32 H32 121.8 . .
C31 C32 C13 116.5(8) . .
C31 C32 H32 121.8 . .
loop_
_geom_bond_atom_site_label_1
_geom_bond_atom_site_label_2
_geom_bond_distance
_geom_bond_site_symmetry_2
Br2 C9 1.880(7) .
Br4 C7 1.887(7) .
O3 C24 1.194(10) .
O4 H4 0.8200 .
O4 C24 1.306(9) .
C7 C9 1.389(10) .
C7 C12 1.389(11) 2_765
C9 C12 1.381(10) .
C12 C7 1.389(11) 2_765
C12 C24 1.526(11) .
Br1 C6 1.879(7) .
Br3 C5 1.890(7) .
O1 C8 1.299(8) .
O2 C8 1.206(8) .
C3 C5 1.393(10) 2_656
C3 C6 1.396(10) .
C3 C8 1.512(9) .
C5 C3 1.393(10) 2_656
C5 C6 1.375(10) .
N1 C21 1.323(11) .
N1 C31 1.331(11) .
N1 H1 1.17(9) .
N2 C27 1.147(12) .
C13 C27 1.437(13) .
C13 C30 1.377(12) .
C13 C32 1.372(14) .
C21 H21 0.9300 .
C21 C30 1.361(12) .
C30 H30 0.9300 .
C31 H31 0.9300 .
C31 C32 1.355(13) .
C32 H32 0.9300 .
