#------------------------------------------------------------------------------
#$Date: 2016-03-26 23:00:42 +0200 (Sat, 26 Mar 2016) $
#$Revision: 180526 $
#$URL: svn://www.crystallography.net/cod/cif/7/21/95/7219509.cif $
#------------------------------------------------------------------------------
#
# This file is available in the Crystallography Open Database (COD),
# http://www.crystallography.net/
#
# All data on this site have been placed in the public domain by the
# contributors.
#
data_7219509
loop_
_publ_author_name
'\/Dor\/devi\'c, Tamara'
'Wittwer, Astrid'
'Jaglicic, Zvonko'
'Djerdj, Igor'
_publ_section_title
;
 Hydrothermal synthesis of single crystal CoAs2O4 and NiAs2O4 compounds
 and their magnetic properties
;
_journal_name_full               'RSC Adv.'
_journal_paper_doi               10.1039/C4RA16122J
_journal_year                    2015
_chemical_formula_sum            'As2 Co O4'
_chemical_formula_weight         272.77
_chemical_name_systematic
;
 ?
;
_space_group_crystal_system      tetragonal
_space_group_IT_number           135
_space_group_name_Hall           '-P 4c 2ab'
_space_group_name_H-M_alt        'P 42/m b c'
_symmetry_space_group_name_Hall  '-P 4c 2ab'
_symmetry_space_group_name_H-M   'P 42/m b c'
_audit_creation_method           SHELXL-2013
_cell_angle_alpha                90
_cell_angle_beta                 90
_cell_angle_gamma                90
_cell_formula_units_Z            4
_cell_length_a                   8.34530(10)
_cell_length_b                   8.34530(10)
_cell_length_c                   5.62010(10)
_cell_measurement_temperature    293(2)
_cell_volume                     391.406(10)
_computing_structure_refinement  'SHELXL-2013 (Sheldrick, 2013)'
_diffrn_ambient_temperature      293(2)
_diffrn_measured_fraction_theta_full 1.000
_diffrn_measured_fraction_theta_max 0.998
_diffrn_radiation_type           MoK\a
_diffrn_radiation_wavelength     0.71073
_diffrn_reflns_av_R_equivalents  0.0418
_diffrn_reflns_av_unetI/netI     0.0260
_diffrn_reflns_Laue_measured_fraction_full 1.000
_diffrn_reflns_Laue_measured_fraction_max 0.998
_diffrn_reflns_limit_h_max       16
_diffrn_reflns_limit_h_min       -15
_diffrn_reflns_limit_k_max       16
_diffrn_reflns_limit_k_min       -16
_diffrn_reflns_limit_l_max       9
_diffrn_reflns_limit_l_min       -10
_diffrn_reflns_number            11599
_diffrn_reflns_point_group_measured_fraction_full 1.000
_diffrn_reflns_point_group_measured_fraction_max 0.998
_diffrn_reflns_theta_full        25.242
_diffrn_reflns_theta_max         44.387
_diffrn_reflns_theta_min         3.452
_exptl_absorpt_coefficient_mu    21.032
_exptl_absorpt_correction_type   multi-scan
_exptl_absorpt_process_details   'Bruker-Nonius, 2000'
_exptl_crystal_colour            'dark pink'
_exptl_crystal_density_diffrn    4.629
_exptl_crystal_description       'elongated prismatic'
_exptl_crystal_F_000             500
_exptl_crystal_size_max          0.170
_exptl_crystal_size_mid          0.020
_exptl_crystal_size_min          0.020
_exptl_transmission_factor_max   0.749
_exptl_transmission_factor_min   0.397
_refine_diff_density_max         1.088
_refine_diff_density_min         -1.022
_refine_diff_density_rms         0.248
_refine_ls_extinction_coef       0.0159(8)
_refine_ls_extinction_expression Fc^*^=kFc[1+0.001xFc^2^\l^3^/sin(2\q)]^-1/4^
_refine_ls_extinction_method     SHELXL
_refine_ls_goodness_of_fit_ref   1.079
_refine_ls_hydrogen_treatment    undef
_refine_ls_matrix_type           full
_refine_ls_number_parameters     22
_refine_ls_number_reflns         838
_refine_ls_number_restraints     0
_refine_ls_restrained_S_all      1.079
_refine_ls_R_factor_all          0.0306
_refine_ls_R_factor_gt           0.0229
_refine_ls_shift/su_max          0.001
_refine_ls_shift/su_mean         0.000
_refine_ls_structure_factor_coef Fsqd
_refine_ls_weighting_details
'w=1/[\s^2^(Fo^2^)+(0.0197P)^2^+0.1338P] where P=(Fo^2^+2Fc^2^)/3'
_refine_ls_weighting_scheme      calc
_refine_ls_wR_factor_gt          0.0440
_refine_ls_wR_factor_ref         0.0455
_reflns_Friedel_coverage         0.000
_reflns_number_gt                719
_reflns_number_total             838
_reflns_threshold_expression     'I > 2\s(I)'
_cod_data_source_file            c4ra16122j1.cif
_cod_data_source_block           shelxl
_cod_original_cell_volume        391.406(12)
_cod_database_code               7219509
#BEGIN Tags that were not found in dictionaries:
_shelx_space_group_comment
;
The symmetry employed for this shelxl refinement is uniquely defined
by the following loop, which should always be used as a source of
symmetry information in preference to the above space-group names.
They are only intended as comments.
;
_shelx_estimated_absorpt_t_min   0.124
_shelx_estimated_absorpt_t_max   0.678
_shelxl_version_number           2013-4
_shelx_res_file
;
TITL Co_trip in P4(2)/mbc
CELL  0.71073   8.3453   8.3453   5.6201   90.000   90.000   90.000
ZERR     4.00   0.0001   0.0001   0.0001    0.000    0.000    0.000
LATT   1
SYMM  - X, - Y,   Z
SYMM  - Y,   X, 1/2 + Z
SYMM    Y, - X, 1/2 + Z
SYMM  1/2 - X, 1/2 + Y, - Z
SYMM  1/2 + X, 1/2 - Y, - Z
SYMM  1/2 + Y, 1/2 + X, 1/2 - Z
SYMM  1/2 - Y, 1/2 - X, 1/2 - Z
SFAC  O    CO   AS
UNIT  16   4    8
MERG   2
FMAP   2
PLAN   20
CONN 15 O1 3.5
CONN 15 O2 3.5

size 0.02 0.02 0.17
temp 20

ACTA
BOND
L.S.  15
WGHT    0.019700    0.133800
EXTI    0.015871
FVAR       0.46747
CO    2    0.000000    0.500000    0.250000    10.25000    0.00765    0.00765 =
         0.00487    0.00000    0.00000   -0.00130
AS    3    0.187565    0.171822    0.000000    10.50000    0.00789    0.00768 =
         0.00763    0.00000    0.00000    0.00115
O1    1    0.184499    0.315501    0.250000    10.50000    0.01513    0.01513 =
         0.00776   -0.00265   -0.00265    0.00836
O2    1    0.107904    0.638608    0.000000    10.50000    0.00840    0.01142 =
         0.00710    0.00000    0.00000   -0.00379
HKLF    4

REM  Co_trip in P4(2)/mbc
REM R1 =  0.0229 for     719 Fo > 4sig(Fo)  and  0.0306 for all     838 data
REM     22 parameters refined using      0 restraints

END

WGHT      0.0197      0.1339

REM Highest difference peak  1.088,  deepest hole -1.022,  1-sigma level  0.248
Q1    1   0.1878  0.2055  0.1285  11.00000  0.05    1.09
Q2    1   0.0000  0.5000  0.1303  10.50000  0.05    0.89
Q3    1   0.1916  0.1346  0.1257  11.00000  0.05    0.87
Q4    1   0.1968  0.4416  0.1259  11.00000  0.05    0.73
Q5    1   0.2967  0.4617  0.1190  11.00000  0.05    0.64
Q6    1   0.1902  0.3553  0.1155  11.00000  0.05    0.64
Q7    1   0.1360  0.2216  0.0000  10.50000  0.05    0.61
Q8    1   0.1208  0.0901  0.0810  11.00000  0.05    0.61
Q9    1   0.2575  0.3950  0.1663  11.00000  0.05    0.61
Q10   1   0.1393  0.1177  0.0000  10.50000  0.05    0.60
Q11   1   0.2374  0.1263  0.0000  10.50000  0.05    0.59
Q12   1   0.0092  0.3529  0.3761  11.00000  0.05    0.58
Q13   1   0.2359  0.2343  0.0000  10.50000  0.05    0.58
Q14   1   0.0064  0.7892 -0.1057  11.00000  0.05    0.58
Q15   1   0.2392  0.2434  0.3761  11.00000  0.05    0.58
Q16   1   0.1661  0.6790  0.0000  10.50000  0.05    0.54
Q17   1   0.2141  0.3428  0.3580  11.00000  0.05    0.54
Q18   1   0.1340  0.5862 -0.1172  11.00000  0.05    0.53
Q19   1   0.1015  0.7611 -0.1373  11.00000  0.05    0.53
Q20   1   0.1251  0.6803 -0.1030  11.00000  0.05    0.52
;
_shelx_res_checksum              67851
_shelx_hkl_file
;
   0   1   0 -0.0984  0.5016   5
   1   0   0 -0.5364  0.4204   4
   1   0   0 -0.1403  0.5429   5
   0   1   0 0.06945 0.43514   4
   0  -1   0 -0.2015  0.3128   4
   0  -1   0 -0.0950  0.5520   5
   0   1   0 0.26653 0.41872   4
   0  -1   0 -0.1684  0.2757   4
  -1   0   0 0.36382 0.47053   4
  -1   0   0 0.05355 0.33781   5
   0  -1   0 0.29548 0.55624   3
  -1  -1   0 1854.23   78.70   5
   1   1   0 2006.70   63.49   4
   1   1   0 1834.38   78.05   5
  -1  -1   0 1851.13   62.91   4
   1   1   0 1947.55   63.61   4
   1  -1   0 1487.53   81.83   3
   1  -1   0 1725.82   63.06   4
   1  -1   0 1683.56   78.11   5
  -1   1   0 1698.30   78.12   5
  -1   1   0 1739.26   63.06   4
  -1   1   0 1567.80   78.02   5
  -1  -1   0 1739.07   78.77   5
  -1   1   0 1640.97   67.68   1
  -1  -1   0 1926.19   63.59   4
  -1   2   0 70.5738  3.3226   4
  -1   2   0 69.5335  3.5891   4
  -1   2   0 65.2753  3.7286   1
   2   1   0 74.7026  3.2952   4
   2   1   0 73.1588  4.2840   5
  -2  -1   0 70.9739  4.2163   5
  -2  -1   0 64.9577  5.3655   6
   1  -2   0 73.2397  4.3672   5
  -2  -1   0 68.1368  4.2699   5
  -2  -1   0 73.9648  3.4304   4
   1  -2   0 67.0157  5.7446   3
  -1   2   0 67.0437  4.0783   5
  -1   2   0 67.4388  4.2525   5
  -1   2   0 66.3551  5.5215   6
   1  -2   0 73.0101  3.4029   4
   0  -2   0 1666.83   57.92   4
   0   2   0 1702.89   57.92   4
   0  -2   0 1632.22   76.32   3
   0   2   0 1577.92   72.63   5
   2   0   0 1687.87   57.94   4
   2   0   0 1571.01   72.68   5
   0   2   0 1582.16   63.02   1
   0   2   0 1670.99   57.92   4
  -2   0   0 1632.40   82.37   6
   0  -2   0 1659.19   57.93   4
  -2   0   0 1581.22   63.01   1
  -2   0   0 1682.49   57.92   4
  -2   0   0 1618.53   72.57   5
  -2   0   0 1643.57   72.70   5
   0   2   0 1607.54   72.69   5
   0  -2   0 1629.61   72.68   5
   0  -2   0 1611.50   72.66   5
  -2   1   0 66.5033  3.5875   1
   1   2   0 71.1631  3.4482   4
  -1  -2   0 75.0479  4.6137   3
  -2   1   0 69.8793  4.3455   5
  -1  -2   0 72.3488  3.3887   4
  -1  -2   0 68.7629  4.0125   5
  -1  -2   0 70.3437  4.1650   5
  -1  -2   0 68.3677  4.7037   6
   1   2   0 74.8724  3.4201   4
  -1  -2   0 67.6539  3.3828   4
   1   2   0 68.6512  4.0319   5
  -2   1   0 75.0407  3.4299   4
  -2   1   0 72.0856  4.2916   5
  -2   1   0 64.6503  4.9506   6
   2  -1   0 67.0284  4.2598   5
   2  -1   0 71.5027  3.6635   4
   1   2   0 72.9954  4.2109   5
   2  -2   0 6181.19  201.31   4
  -2   2   0 5102.67  250.09   5
   2   2   0 6009.90  201.54   4
  -2  -2   0 5132.64  251.07   5
  -2  -2   0 5294.44  283.51   6
   2  -2   0 6132.35  250.72   5
   2  -2   0 5565.19  253.29   5
   2   2   0 4718.87  283.03   6
  -2   2   0 5421.04  251.90   5
   2  -2   0 5722.50  283.62   6
   2   2   0 5183.41  249.91   5
  -2  -2   0 5710.28  251.65   5
  -2  -2   0 6577.94  202.83   4
   2   2   0 6356.71  201.08   4
  -2   2   0 4768.71  282.82   6
  -2   2   0 5675.87  217.31   1
  -2   2   0 5720.87  200.12   4
  -2  -2   0 6209.12  202.51   4
  -2   3   0 54.6636  5.7140   6
  -2   3   0 52.7876  4.7642   5
  -3  -2   0 53.2338  3.8478   5
   3   2   0 53.3472  3.4774   4
   3   2   0 55.7696  4.2849   5
   3   2   0 51.3226  4.7793   6
  -2   3   0 54.9575  4.0095   1
  -2   3   0 48.0620  3.5132   4
  -2   3   0 53.4688  4.2519   5
   3   2   0 56.2152  3.8462   4
   3   2   0 50.5962  4.0736   5
   2  -3   0 47.3829  4.3220   6
  -3  -2   0 56.6869  3.4038   4
   2  -3   0 53.2650  4.2333   5
   2  -3   0 48.0784  4.5603   5
  -2   3   0 58.7667  3.7598   4
  -3  -2   0 54.4789  5.5751   6
   2  -3   0 45.1057  5.5579   3
   2  -3   0 54.6572  3.3302   4
  -3  -2   0 59.0563  4.2322   5
  -1   3   0 3528.36  117.39   4
   1  -3   0 3396.43  147.30   5
  -3  -1   0 3124.38  166.45   6
  -1   3   0 3392.68  127.70   1
   1  -3   0 3550.46  117.41   4
  -1   3   0 3217.58  147.24   5
   1  -3   0 3231.88  154.66   3
   1  -3   0 3295.22  147.23   5
  -1   3   0 3456.74  117.35   4
   3   1   0 3420.00  117.32   4
   3   1   0 3461.22  147.52   5
  -1   3   0 3387.14  147.25   5
  -3  -1   0 3264.50  146.99   5
   3   1   0 3265.67  147.19   5
   3   1   0 3062.49  166.37   6
  -3  -1   0 3131.84  147.11   5
  -3  -1   0 3528.05  117.32   4
   1  -3   0 3176.40  166.45   6
  -1   3   0 3104.90  166.65   6
  -3   0   0 -0.8011  2.4633   6
   0   3   0 2.21017 1.58328   4
  -3   0   0 -0.2568  1.4922   5
  -3   0   0 1.35401 1.43244   5
   0  -3   0 0.94332 1.53782   5
  -3   0   0 -1.0634  1.4489   4
   3   0   0 0.58172 1.92148   5
   0  -3   0 2.47805 1.02075   4
  -3   0   0 -0.9943  1.6297   1
   0  -3   0 -1.4208  2.2647   5
   0  -3   0 3.33504 2.53117   6
   3   0   0 1.87797 1.06288   4
   0   3   0 0.86602 1.13885   1
   0   3   0 -3.1436  1.2682   4
   3   0   0 -0.7970  1.3564   6
   0   3   0 -1.0596  1.1077   5
   0   3   0 0.77686 1.77801   6
   0  -3   0 0.31340 1.18106   4
   0   3   0 2.47822 2.13284   5
   0  -3   0 -0.3885  2.8877   3
  -3   1   0 3567.75  119.55   4
  -1  -3   0 3350.21  149.81   5
   1   3   0 3369.27  149.85   5
  -3   1   0 3231.44  149.73   5
  -3   1   0 3183.58  169.63   6
   3  -1   0 3384.64  150.00   5
  -1  -3   0 3510.36  119.46   4
  -1  -3   0 3248.61  149.78   5
  -1  -3   0 3536.52  157.14   3
  -1  -3   0 3455.92  119.42   4
   1   3   0 3519.05  119.44   4
   1   3   0 3406.73  119.43   4
   1   3   0 3272.39  149.86   5
  -3   1   0 3440.25  130.05   1
  -1  -3   0 3235.16  169.52   6
   1   3   0 3362.71  130.09   1
   1   3   0 3097.46  169.53   6
   3  -1   0 3629.93  119.59   4
  -3   1   0 3350.19  150.02   5
  -3   2   0 57.7982  3.4168   4
   2   3   0 57.8132  3.2114   4
  -2  -3   0 51.7035  3.3886   4
  -3   2   0 51.7068  4.6877   5
  -3   2   0 60.4063  5.4336   6
  -2  -3   0 63.4902  5.1439   3
  -2  -3   0 50.0676  4.0557   5
  -2  -3   0 57.0080  4.8012   6
  -3   2   0 53.5120  4.1113   1
   2   3   0 60.7722  3.8846   4
   2   3   0 58.9045  5.1539   6
   2   3   0 51.4971  4.2268   5
  -3   2   0 55.0921  4.3092   5
   3  -2   0 56.6288  4.4018   5
  -2  -3   0 48.3823  3.2470   4
   2   3   0 45.3090  4.3034   5
   3  -2   0 54.3421  4.9452   5
   3  -2   0 58.0520  5.2327   6
  -2  -3   0 51.3374  4.6385   5
   3  -2   0 57.5372  3.4493   4
  -3   3   0 575.625  30.537   6
  -3   3   0 564.494  23.538   1
  -3  -3   0 593.704  21.349   4
   3   3   0 557.932  26.928   5
  -3   3   0 581.046  27.144   5
  -3   3   0 551.792  26.899   5
   3   3   0 548.198  30.040   6
  -3  -3   0 550.899  30.251   6
   3  -3   0 580.651  27.024   5
   3   3   0 599.884  21.590   4
  -3   3   0 581.358  21.569   4
  -3  -3   0 582.156  26.823   5
  -3  -3   0 549.786  26.625   5
   3  -3   0 568.938  21.539   4
   3  -3   0 567.155  30.066   6
   3   3   0 568.671  26.952   5
   3   3   0 585.399  21.408   4
   3  -3   0 584.520  27.303   5
   4   3   0 22.9603  2.6333   4
   3  -4   0 26.9719  4.3620   6
  -3   4   0 27.3018  4.3141   5
   3  -4   0 25.3867  4.2998   5
   3  -4   0 17.9675  3.0264   4
  -3   4   0 24.7247  3.5191   5
  -3   4   0 24.6976  2.6366   4
  -4  -3   0 19.8384  3.2140   5
   3  -4   0 20.9989  5.6088   3
   4   3   0 24.6819  2.5049   4
   4   3   0 18.8214  3.3877   5
  -3   4   0 23.8870  2.9153   4
  -4  -3   0 24.3729  2.6942   4
  -3   4   0 26.4741  3.1108   1
  -3   4   0 25.1382  4.8124   6
   4   3   0 23.6318  3.9815   6
  -4  -3   0 21.5612  3.7355   6
   3  -4   0 23.0501  3.5495   5
  -4  -3   0 21.0379  3.4574   5
  -2   4   0 2026.75   78.31   1
   4   2   0 1966.03   90.14   5
   2  -4   0 1971.42  101.70   6
   4   2   0 2017.83   90.11   5
   2  -4   0 1990.72   90.22   5
  -4  -2   0 1953.61   90.03   5
  -4  -2   0 1941.17  101.63   6
   4   2   0 2098.41   71.89   4
   2  -4   0 2138.63   71.98   4
  -2   4   0 2065.52   71.95   4
  -2   4   0 1984.34   90.24   5
  -2   4   0 2025.43   90.27   5
  -4  -2   0 2083.96   71.80   4
  -2   4   0 2068.47   71.96   4
  -4  -2   0 1922.34   89.79   5
   4   2   0 1902.52  101.54   6
   2  -4   0 1880.81   95.23   3
   4   2   0 2082.13   71.86   4
   2  -4   0 2093.64   90.35   5
  -2   4   0 1924.42  101.94   6
  -1   4   0 330.915  14.318   1
   1  -4   0 333.940  13.063   4
  -4  -1   0 342.167  16.324   5
   1  -4   0 321.431  18.054   3
  -1   4   0 349.375  13.165   4
   1  -4   0 326.987  16.610   5
  -1   4   0 329.326  18.617   6
   1  -4   0 345.905  16.442   5
   4   1   0 335.527  16.381   5
   4   1   0 321.471  18.089   6
  -4  -1   0 319.710  16.068   5
  -1   4   0 336.765  16.371   5
  -1   4   0 324.750  16.517   5
  -1   4   0 342.046  13.139   4
  -4  -1   0 337.081  12.934   4
   4   1   0 320.955  16.416   5
   4   1   0 343.036  13.131   4
  -4  -1   0 327.931  18.288   6
   1  -4   0 319.249  18.350   6
   0   4   0 1.44199 1.94149   1
   4   0   0 1.50709 2.21182   5
  -4   0   0 6.38655 2.20549   1
   0  -4   0 2.61030 2.89519   6
  -4   0   0 -0.8731  2.7825   6
   0  -4   0 0.19385 1.87824   5
   0  -4   0 1.58683 2.00362   4
   0  -4   0 4.02669 3.46505   3
   0   4   0 -2.4145  2.7978   6
   0  -4   0 1.22826 1.80407   5
   4   0   0 1.59005 1.63600   5
   0  -4   0 0.30080 1.56384   4
   4   0   0 1.65321 1.72665   6
  -4   0   0 12.0617  1.6484   4
  -4   0   0 -0.4940  1.6991   5
   0   4   0 1.05271 1.75156   5
   0   4   0 0.55694 1.17835   4
   0   4   0 1.59772 1.32311   4
  -4   0   0 2.90866 1.64918   5
   4   0   0 -1.7435  1.6571   4
   0   4   0 -1.0516  1.3069   5
   4  -1   0 331.287  13.241   4
  -4   1   0 324.797  18.748   6
   1   4   0 356.528  13.298   4
   1   4   0 345.896  13.328   4
  -1  -4   0 329.319  18.701   6
   4  -1   0 327.243  16.508   5
   1   4   0 337.647  16.718   5
   4  -1   0 333.232  16.656   5
  -4   1   0 344.877  13.264   4
  -4   1   0 355.363  16.840   5
  -1  -4   0 326.743  16.726   5
   1   4   0 333.857  14.649   1
  -1  -4   0 345.066  13.135   4
   1   4   0 343.351  18.779   6
   1   4   0 344.237  16.592   5
  -1  -4   0 327.235  16.475   5
  -1  -4   0 325.331  13.170   4
  -1  -4   0 361.846  17.972   3
  -4   1   0 339.404  16.439   5
  -4   1   0 323.000  14.380   1
  -2  -4   0 2062.18   73.21   4
   2   4   0 2067.20   73.31   4
  -2  -4   0 1984.20  103.77   6
  -4   2   0 2044.08   73.36   4
   2   4   0 2014.61   91.91   5
   4  -2   0 2066.82   92.05   5
  -4   2   0 2052.81   79.92   1
   2   4   0 2045.08   92.00   5
  -2  -4   0 1963.69   91.79   5
  -2  -4   0 2112.47   73.31   4
   2   4   0 2086.05   73.29   4
  -4   2   0 1966.65  103.93   6
   4  -2   0 2042.65   92.21   5
   2   4   0 1981.99  103.76   6
  -2  -4   0 2234.63   96.73   3
  -4   2   0 2003.85   91.87   5
  -4   2   0 2081.50   92.28   5
  -2  -4   0 2063.52   91.84   5
   4  -2   0 2117.90   73.49   4
   4  -2   0 1984.45  103.84   6
   4  -3   0 22.0097  4.1717   6
  -3  -4   0 20.9292  2.2420   4
  -3  -4   0 28.3769  3.8398   3
   3   4   0 21.0934  4.0966   6
   4  -3   0 18.6866  2.4790   4
   4  -3   0 26.2810  3.7271   5
   4  -3   0 18.8043  4.0690   5
   3   4   0 22.3958  2.8001   4
  -3  -4   0 19.9175  2.9522   4
  -3  -4   0 19.1674  3.6909   5
  -4   3   0 21.3279  3.3707   5
  -4   3   0 22.7194  4.2174   5
  -4   3   0 27.0957  4.9080   6
  -3  -4   0 20.4770  3.2584   5
   3   4   0 18.5141  3.0373   4
  -4   3   0 24.4952  3.0915   4
   3   4   0 21.3148  3.4463   5
   3   4   0 21.8651  3.9140   5
  -3  -4   0 13.0077  4.5750   6
  -4   3   0 26.8779  3.6884   1
   4  -4   0 1590.12   71.76   5
  -4   4   0 1610.45   71.78   5
  -4  -4   0 1534.53   71.54   5
   4  -4   0 1582.60   57.30   4
   4   4   0 1658.92   57.31   4
  -4   4   0 1555.11   62.40   1
   4  -4   0 1557.08   71.96   5
  -4   4   0 1634.51   81.09   6
   4   4   0 1558.20   71.67   5
  -4   4   0 1631.68   72.10   5
   4  -4   0 1570.55   80.69   6
   4   4   0 1548.92   57.09   4
  -4  -4   0 1498.60   71.38   5
  -4  -4   0 1569.76   56.98   4
  -4  -4   0 1488.75   80.70   6
   4   4   0 1602.48   80.72   6
  -4   4   0 1630.01   57.41   4
   4   4   0 1558.17   71.78   5
   5   4   0 468.253  26.121   6
  -4   5   0 486.949  23.668   5
  -5  -4   0 458.617  26.437   6
   4  -5   0 485.724  23.699   5
   4  -5   0 476.064  23.773   5
   4  -5   0 476.043  26.007   6
  -4   5   0 475.229  24.218   5
   5   4   0 457.192  18.696   4
   5   4   0 449.922  23.621   5
   5   4   0 474.337  23.885   5
   4  -5   0 463.275  19.076   4
  -5  -4   0 474.542  23.243   5
  -5  -4   0 492.865  18.692   4
  -4   5   0 469.183  18.895   4
  -4   5   0 498.590  26.712   6
  -5  -4   0 446.388  23.215   5
  -4   5   0 459.818  18.758   4
  -4   5   0 468.736  20.922   1
   5   4   0 469.746  18.672   4
   3  -5   0 5854.26  194.90   4
   5   3   0 5264.31  244.22   5
  -5  -3   0 5250.68  243.74   5
  -5  -3   0 5438.91  194.50   4
  -3   5   0 5654.52  244.49   5
   3  -5   0 5644.14  244.39   5
  -3   5   0 5786.37  194.87   4
   5   3   0 5633.73  194.71   4
   5   3   0 5333.41  244.16   5
   3  -5   0 5702.19  276.36   6
   5   3   0 5091.07  275.99   6
  -5  -3   0 5195.28  276.03   6
  -3   5   0 5402.63  194.71   4
  -3   5   0 5510.28  276.51   6
  -5  -3   0 5335.67  244.06   5
  -3   5   0 5566.33  244.35   5
  -3   5   0 5548.40  212.05   1
   3  -5   0 5829.19  244.60   5
   3  -5   0 5264.22  256.97   3
   5   3   0 5581.78  194.69   4
  -2   5   0 24.9431  3.1961   4
   2  -5   0 19.2972  6.3198   3
   2  -5   0 24.7562  4.5829   5
   2  -5   0 27.4544  4.8330   6
  -2   5   0 23.1885  3.3140   5
  -5  -2   0 23.4684  3.6870   5
   5   2   0 24.1957  3.0791   4
   5   2   0 27.5531  3.4678   4
  -5  -2   0 22.6031  2.8069   4
   5   2   0 27.2666  4.0728   5
   5   2   0 24.5030  4.2254   6
  -5  -2   0 27.3275  3.6386   5
  -2   5   0 26.1768  5.0336   6
   2  -5   0 21.2495  3.6466   5
  -2   5   0 27.9800  3.5427   1
   5   2   0 29.9466  3.8023   5
  -2   5   0 27.1311  3.8768   5
  -2   5   0 28.6363  2.7646   4
   2  -5   0 25.5065  2.9011   4
  -5  -2   0 30.4084  4.9212   6
  -1   5   0 12.8668  3.0149   1
  -5  -1   0 13.1315  3.0859   5
  -5  -1   0 6.61344 3.78295   6
  -1   5   0 14.2629  2.5234   4
   1  -5   0 15.1383  3.0383   5
   1  -5   0 8.98349 3.72681   5
   1  -5   0 18.3236  3.4738   6
   1  -5   0 13.7915  2.2711   4
  -1   5   0 14.8025  2.7284   5
  -1   5   0 19.7139  3.7927   5
   5   1   0 11.3539  3.4373   6
  -5  -1   0 11.8690  1.9381   4
  -1   5   0 15.4392  4.3612   6
   5   1   0 11.6905  2.5437   4
  -1   5   0 13.3607  2.5731   4
   5   1   0 13.8924  3.6191   5
   1  -5   0 11.9047  3.9745   3
   0   5   0 2.82680 2.06461   4
   0   5   0 -0.9189  2.1064   5
   0  -5   0 3.28440 3.28093   3
   0  -5   0 1.36834 1.75502   4
   5   0   0 -0.7077  1.9951   6
   0  -5   0 -0.5612  2.2201   5
   0  -5   0 5.43004 3.82542   6
   0   5   0 3.14368 2.57819   1
  -5   0   0 -2.2580  2.4247   1
   5   0   0 1.84923 2.89921   5
   0   5   0 0.66849 3.56063   6
  -5   0   0 3.09710 2.00137   5
  -5   0   0 -0.7583  2.3860   6
   5   0   0 -0.9593  1.3921   4
  -5   0   0 -0.2731  2.0862   5
   0   5   0 1.87799 2.44453   5
  -5   0   0 0.73331 2.03935   4
   0  -5   0 0.74632 2.16006   5
   0  -5   0 -0.8785  1.2747   4
   5   0   0 1.59397 2.77216   5
   0   5   0 2.30194 2.18372   4
  -1  -5   0 14.4157  3.8065   5
  -1  -5   0 19.6713  4.8694   3
   1   5   0 8.64468 2.89082   5
   1   5   0 14.4632  3.7109   5
  -5   1   0 16.3575  2.9502   5
  -5   1   0 10.3819  2.0605   4
  -1  -5   0 15.0012  2.9064   5
   1   5   0 12.5498  2.4174   4
   5  -1   0 20.3339  3.7219   5
  -5   1   0 16.4443  3.6511   5
  -1  -5   0 17.7857  3.5898   6
   5  -1   0 10.4764  3.3036   5
  -5   1   0 19.4533  3.5502   6
  -1  -5   0 12.9414  2.0169   4
   1   5   0 12.9270  3.2796   6
  -5   1   0 19.6022  3.2856   1
   5  -1   0 14.2885  2.2102   4
   1   5   0 14.3237  2.7048   4
   1   5   0 15.3186  2.5481   1
  -1  -5   0 12.3828  2.2540   4
  -5   2   0 29.1094  2.9115   4
  -2  -5   0 25.8008  5.2494   3
   2   5   0 23.5392  4.4225   5
   2   5   0 26.8114  3.9647   1
  -2  -5   0 29.3181  5.3562   6
  -2  -5   0 27.0432  3.6127   5
   2   5   0 27.3665  4.0700   6
   5  -2   0 26.0189  4.5462   6
   5  -2   0 18.1361  3.5009   5
  -2  -5   0 24.0163  2.8278   4
   2   5   0 26.5992  3.9862   5
   5  -2   0 25.3873  4.1130   5
   2   5   0 29.1638  2.7686   4
   2   5   0 26.7035  2.7994   4
  -2  -5   0 27.8378  2.9889   4
  -5   2   0 24.9492  5.0895   6
  -5   2   0 25.7823  3.8417   1
  -5   2   0 23.5226  4.5061   5
   5  -2   0 25.7561  3.2944   4
  -5   2   0 26.6367  3.2598   5
   5  -3   0 5988.28  199.37   4
  -5   3   0 5559.50  282.63   6
  -3  -5   0 5585.48  198.93   4
   3   5   0 5290.60  282.46   6
  -5   3   0 5737.51  216.91   1
  -3  -5   0 5793.98  199.08   4
  -3  -5   0 5407.30  249.44   5
   3   5   0 5508.68  249.70   5
  -5   3   0 5654.19  199.17   4
   3   5   0 5664.13  199.05   4
   5  -3   0 5871.34  250.19   5
  -5   3   0 5577.43  250.04   5
  -3  -5   0 5436.36  282.51   6
   5  -3   0 5573.61  249.84   5
  -3  -5   0 5410.51  249.54   5
  -5   3   0 5556.33  249.63   5
   3   5   0 5465.48  198.99   4
   5  -3   0 5839.68  282.65   6
   3   5   0 5427.48  249.80   5
  -3  -5   0 6052.84  261.88   3
   4   5   0 447.624  18.582   4
  -5   4   0 486.898  21.084   1
  -4  -5   0 480.147  23.498   5
  -4  -5   0 523.564  25.418   3
  -4  -5   0 481.175  26.690   6
   5  -4   0 472.882  19.122   4
  -5   4   0 477.031  19.093   4
   4   5   0 456.823  26.222   6
   5  -4   0 463.838  25.983   6
   5  -4   0 432.240  23.606   5
   4   5   0 497.205  23.694   5
  -5   4   0 478.964  26.589   6
  -5   4   0 466.729  23.292   5
  -4  -5   0 472.926  18.504   4
   5  -4   0 485.863  23.818   5
   4   5   0 443.019  23.864   5
   4   5   0 477.390  19.089   4
  -5   4   0 471.059  24.230   5
  -4  -5   0 462.171  23.434   5
   5   5   0 20.4158  4.1333   4
   5  -5   0 25.4843  3.3858   4
  -5   5   0 21.4456  4.2926   5
   5  -5   0 24.7559  5.6394   6
  -5   5   0 28.0365  4.1683   1
  -5   5   0 24.4594  3.6587   4
   5  -5   0 18.3494  4.5364   5
  -5   5   0 30.8324  5.6165   5
   5   5   0 23.4580  5.4576   5
  -5   5   0 26.4232  3.9080   4
  -5   5   0 29.1927  6.1989   6
  -5  -5   0 23.6787  3.7326   5
  -5  -5   0 31.5992  6.6369   6
  -5  -5   0 17.8735  3.1610   4
  -5  -5   0 24.5147  4.8280   5
   5   5   0 21.1989  3.0084   4
   5   5   0 20.8247  3.9227   5
   5   5   0 25.0772  5.3608   6
  -5   6   0 419.499  22.128   5
  -6  -5   0 412.825  23.839   6
  -5   6   0 399.705  17.237   4
   6   5   0 375.345  17.159   4
   6   5   0 395.430  21.274   5
  -5   6   0 435.415  24.411   6
   5  -6   0 398.956  17.032   4
  -5   6   0 391.514  19.228   1
   6   5   0 401.933  23.721   6
  -5   6   0 389.136  17.056   4
  -5   6   0 408.062  21.344   5
   6   5   0 384.071  17.044   4
  -6  -5   0 413.742  16.644   4
   5  -6   0 412.427  21.505   5
   5  -6   0 406.403  23.912   6
  -6  -5   0 409.544  21.161   5
  -6  -5   0 409.836  21.312   5
  -4   6   0 257.795  13.165   1
   6   4   0 233.496  15.622   6
  -4   6   0 246.741  11.104   4
   4  -6   0 242.168  11.718   4
  -4   6   0 247.750  15.185   5
  -4   6   0 250.593  16.580   6
  -6  -4   0 239.854  10.779   4
   4  -6   0 243.214  15.980   6
  -4   6   0 236.969  11.478   4
   6   4   0 242.050  11.483   4
  -6  -4   0 240.741  14.077   5
   4  -6   0 244.986  13.943   5
  -6  -4   0 243.855  16.102   6
  -4   6   0 255.114  14.283   5
   6   4   0 233.473  14.797   5
  -6  -4   0 244.731  13.489   5
   6   4   0 245.256  11.707   4
   6   3   0 26.6183  5.1651   6
  -3   6   0 27.2491  5.3207   5
   6   3   0 30.5737  5.5979   5
  -3   6   0 20.4289  4.3198   5
  -3   6   0 29.2097  3.6687   4
  -3   6   0 27.8817  6.1832   6
   3  -6   0 24.1911  4.4605   5
  -6  -3   0 21.9822  2.8024   4
  -3   6   0 24.1095  3.1479   4
  -6  -3   0 29.5399  4.0187   5
   3  -6   0 29.8255  4.5824   5
   3  -6   0 23.8424  3.9823   4
   6   3   0 25.5419  3.4124   4
   3  -6   0 28.1252  6.0108   6
  -6  -3   0 24.7068  5.7218   6
   3  -6   0 19.2057  5.9158   3
  -3   6   0 26.7213  3.9369   1
   6   3   0 26.1258  3.5957   4
   6   3   0 21.3162  4.5637   5
  -6  -3   0 27.1339  4.3400   5
  -6  -2   0 236.386  13.476   5
  -2   6   0 243.215  10.448   4
   2  -6   0 226.159  13.209   5
   6   2   0 232.157  10.750   4
  -2   6   0 225.851  10.353   4
   6   2   0 216.385  14.466   6
   2  -6   0 246.211  15.417   6
  -6  -2   0 252.670  10.597   4
   6   2   0 256.480  11.160   4
   2  -6   0 226.747  13.411   5
  -6  -2   0 216.532  14.686   6
   6   2   0 241.932  13.905   5
   2  -6   0 241.006  10.640   4
   6   2   0 242.157  13.672   5
  -2   6   0 237.305  15.315   6
  -2   6   0 225.411  11.925   1
   2  -6   0 213.126  16.709   3
  -2   6   0 233.490  13.364   5
  -6  -2   0 242.344  12.997   5
  -2   6   0 227.270  13.372   5
  -6  -1   0 784.441  37.331   5
  -1   6   0 838.611  38.188   5
  -1   6   0 826.930  38.106   5
   6   1   0 796.376  38.056   5
  -6  -1   0 850.104  30.224   4
   1  -6   0 772.125  41.381   3
   1  -6   0 785.447  37.833   5
  -6  -1   0 784.646  37.887   5
   1  -6   0 792.862  42.419   6
   6   1   0 814.125  38.113   5
  -1   6   0 829.468  30.281   4
   6   1   0 794.773  30.115   4
   6   1   0 756.149  42.134   6
   1  -6   0 796.987  30.353   4
  -1   6   0 798.850  42.696   6
   1  -6   0 784.250  38.225   5
  -1   6   0 828.457  33.149   1
  -6  -1   0 779.340  42.175   6
  -1   6   0 814.226  30.112   4
  -6   0   0 6898.33  388.54   6
   6   0   0 7561.04  343.73   5
   0   6   0 7476.78  343.66   5
   0   6   0 7970.99  273.87   4
   6   0   0 7310.55  388.64   6
  -6   0   0 8031.36  298.26   1
   0   6   0 7613.54  343.46   5
   0  -6   0 7570.18  343.51   5
   0   6   0 7145.68  388.94   6
  -6   0   0 8118.41  273.90   4
   0  -6   0 7847.65  343.71   5
  -6   0   0 7811.20  338.73   2
   6   0   0 7629.12  343.64   5
   0  -6   0 7786.00  360.70   3
   0  -6   0 8424.41  274.06   4
   0   6   0 8275.91  298.23   1
   6   0   0 8244.21  274.02   4
   0  -6   0 7665.34  388.98   6
   0   6   0 8085.60  273.84   4
  -6   0   0 7447.91  343.57   5
  -6   0   0 7189.63  342.98   5
   0  -6   0 8402.78  274.02   4
   1   6   0 814.674  38.636   5
   6  -1   0 780.073  38.490   5
  -6   1   0 824.982  33.619   1
  -1  -6   0 803.120  41.556   3
   1   6   0 837.296  30.701   4
  -1  -6   0 806.278  43.337   6
   1   6   0 817.207  38.542   5
  -6   1   0 794.116  38.037   5
  -6   1   0 816.581  38.750   5
  -1  -6   0 784.586  38.576   5
   6  -1   0 829.154  30.854   4
   1   6   0 821.276  30.577   4
  -6   1   0 831.544  30.764   4
   6  -1   0 806.906  43.058   6
   1   6   0 870.168  43.509   6
   1   6   0 856.926  33.773   1
  -1  -6   0 820.589  30.801   4
  -1  -6   0 790.523  38.330   5
   6  -1   0 798.056  38.477   5
  -1  -6   0 807.112  30.522   4
  -6   1   0 809.448  43.183   6
   2   6   0 245.481  13.373   5
  -6   2   0 228.448  12.187   1
  -2  -6   0 241.891  11.037   4
   2   6   0 232.366  10.679   4
  -6   2   0 231.139  15.332   6
  -2  -6   0 253.550  15.734   6
  -2  -6   0 241.775  10.580   4
  -2  -6   0 243.114  15.681   3
   6  -2   0 217.470  14.316   6
   2   6   0 256.730  15.397   6
   2   6   0 235.541  12.308   1
  -2  -6   0 235.969  12.886   5
   2   6   0 254.336  10.957   4
   2   6   0 221.909  13.058   5
   6  -2   0 247.685  10.713   4
   6  -2   0 227.825  13.232   5
   6  -2   0 226.868  13.389   5
  -6   2   0 243.247  10.616   4
  -6   2   0 214.387  12.917   5
  -6   2   0 234.907  14.215   5
   6  -3   0 22.2334  3.1464   4
  -6   3   0 26.9573  3.7954   4
  -3  -6   0 30.6959  6.7826   6
  -6   3   0 31.0370  4.7951   1
  -6   3   0 28.4441  5.4354   5
  -3  -6   0 26.2596  3.3840   4
   3   6   0 20.9698  4.4974   5
  -3  -6   0 20.2424  3.8690   4
  -6   3   0 23.1046  3.5552   5
   3   6   0 25.1763  3.0938   4
   6  -3   0 26.3068  4.7900   5
   3   6   0 27.3145  5.7323   6
  -6   3   0 26.2061  6.0269   6
   3   6   0 28.2681  4.5142   5
   6  -3   0 28.6952  4.6108   6
   3   6   0 26.3115  4.8865   1
  -3  -6   0 26.9493  5.1721   5
  -3  -6   0 37.0545  6.4474   3
   3   6   0 35.5856  4.0975   4
   6  -3   0 23.7219  4.3877   5
  -3  -6   0 25.6256  4.2358   5
   4   6   0 252.129  15.965   6
  -4  -6   0 246.926  16.811   6
   6  -4   0 237.217  11.617   4
  -4  -6   0 264.018  15.248   3
   4   6   0 230.422  14.874   5
  -4  -6   0 240.543  13.976   5
  -6   4   0 245.057  11.516   4
   6  -4   0 236.001  15.045   6
  -6   4   0 259.143  13.256   1
  -4  -6   0 246.800  11.624   4
  -4  -6   0 217.915  14.125   5
   6  -4   0 258.769  14.644   5
  -4  -6   0 254.542  11.200   4
   4   6   0 236.620  10.974   4
   4   6   0 254.945  11.671   4
  -6   4   0 245.588  14.355   5
   4   6   0 225.126  13.985   5
  -6   4   0 250.017  13.961   5
  -6   4   0 234.407  16.128   6
   5   6   0 416.595  24.187   6
   5   6   0 412.389  17.568   4
   6  -5   0 416.278  24.160   6
  -5  -6   0 408.326  17.067   4
  -5  -6   0 388.300  21.115   5
  -6   5   0 433.468  24.933   6
   6  -5   0 445.410  22.177   5
   5   6   0 417.632  22.280   5
  -5  -6   0 412.099  21.593   5
  -6   5   0 401.620  21.746   5
  -5  -6   0 440.404  23.028   3
   5   6   0 402.823  17.113   4
  -6   5   0 383.156  19.424   1
  -5  -6   0 404.608  24.462   6
   6  -5   0 390.136  17.556   4
  -6   5   0 433.009  21.642   5
  -6   5   0 401.716  17.445   4
  -6   6   0 3423.36  165.40   6
  -6   6   0 3350.25  146.59   5
   6  -6   0 3241.28  146.81   5
  -6   6   0 3279.17  127.82   1
  -6   6   0 3206.75  116.93   4
  -6  -6   0 3177.25  146.37   5
  -6  -6   0 3240.44  165.22   6
  -6  -6   0 3484.88  154.03   3
   6  -6   0 3073.37  117.01   4
   6  -6   0 3275.80  165.34   6
   6   6   0 3178.42  165.37   6
  -6   6   0 3335.66  146.94   5
   6   6   0 3140.37  146.81   5
   6   6   0 3108.58  116.96   4
  -6   7   0 182.470  13.759   5
   7   6   0 182.833  13.200   6
  -7  -6   0 200.791  14.181   3
  -7  -6   0 178.964  14.477   6
  -6   7   0 177.934  15.772   6
  -7  -6   0 169.213  12.548   5
   7   6   0 180.613  14.343   5
  -6   7   0 186.209   9.688   4
   6  -7   0 179.819  14.624   6
   6  -7   0 184.224  12.303   5
  -6   7   0 187.547  12.898   1
  -7  -5   0 238.026  14.441   5
   5  -7   0 246.767  14.791   5
  -5   7   0 245.957  13.893   1
   7   5   0 207.459  11.022   4
   7   5   0 228.698  16.031   6
  -5   7   0 220.692  15.075   5
   5  -7   0 224.058  16.514   6
  -5   7   0 229.927  11.662   4
  -7  -5   0 243.519  16.242   6
   7   5   0 204.742  14.981   5
  -5   7   0 257.927  16.950   6
   5  -7   0 208.275  11.884   4
  -7  -5   0 263.992  14.513   5
   7   4   0 92.0075  9.9362   6
  -4   7   0 111.138   7.458   4
  -7  -4   0 111.900   9.195   5
   7   4   0 112.680   8.924   5
   4  -7   0 115.782  11.271   6
  -4   7   0 113.980  11.522   6
   4  -7   0 115.758   9.364   5
  -7  -4   0 102.076  10.405   6
   7   4   0 105.099   6.704   4
  -4   7   0 103.777   8.401   1
   7   4   0 102.943   6.856   4
  -4   7   0 101.828   8.792   5
  -4   7   0 105.722   7.286   4
  -4   7   0 109.770   8.431   5
   4  -7   0 101.755   7.752   4
  -7  -4   0 99.6299  6.7393   4
  -7  -4   0 112.604   8.068   5
   7   3   0 351.438  20.315   5
  -3   7   0 374.792  20.464   5
  -3   7   0 376.152  22.479   6
   7   3   0 352.327  15.827   4
   3  -7   0 368.749  16.116   4
  -3   7   0 356.748  15.745   4
   3  -7   0 338.824  23.518   3
  -7  -3   0 395.894  19.894   5
  -7  -3   0 378.328  21.699   6
  -7  -3   0 371.489  15.566   4
  -3   7   0 365.562  15.897   4
   3  -7   0 384.456  19.645   5
   3  -7   0 386.115  22.399   6
  -7  -3   0 382.352  19.313   5
   7   3   0 360.237  21.705   6
  -3   7   0 386.902  19.714   5
  -3   7   0 348.635  17.678   1
   7   3   0 330.987  15.887   4
  -2   7   0 65.6357  7.1907   5
   2  -7   0 61.0947  6.5520   5
   2  -7   0 60.2999  8.0045   5
   2  -7   0 58.1819  9.3888   3
  -2   7   0 73.9507  5.5282   4
  -7  -2   0 71.9229  6.7349   5
   7   2   0 75.0199  7.5216   6
   2  -7   0 79.0633  8.6841   6
   7   2   0 60.7654  5.5937   4
   2  -7   0 59.3660  5.5882   4
  -2   7   0 72.7381  6.5357   1
  -7  -2   0 68.2666  7.6015   6
  -2   7   0 62.6935  5.3005   4
  -7  -2   0 58.5963  6.4022   5
  -2   7   0 80.2719  8.6928   6
   7   2   0 68.8114  7.5455   5
  -7  -2   0 66.5569  5.0545   4
  -2   7   0 60.4136  6.7275   5
   7   2   0 64.1747  5.2879   4
  -1   7   0 830.315  30.694   4
   1  -7   0 814.164  38.430   5
   1  -7   0 743.402  42.143   3
  -1   7   0 831.526  38.691   5
  -7  -1   0 787.462  30.444   4
   1  -7   0 818.485  42.979   6
  -1   7   0 798.076  38.578   5
  -1   7   0 791.148  43.302   6
   1  -7   0 799.749  38.890   5
   7   1   0 805.256  30.538   4
  -7  -1   0 787.650  37.700   5
  -1   7   0 812.615  30.612   4
   7   1   0 793.835  38.686   5
  -1   7   0 820.570  33.652   1
   1  -7   0 798.128  30.810   4
  -7  -1   0 827.679  38.592   5
  -7  -1   0 780.156  42.622   6
   7   1   0 774.425  42.609   6
   0  -7   0 -4.3164  4.5194   5
  -7   0   0 -2.5642  2.6822   4
  -7   0   0 -5.7689  5.0278   6
  -7   0   0 -0.3132  1.4433   2
   0  -7   0 0.29330 5.67622   6
   0   7   0 0.71204 3.58752   1
   0   7   0 2.51973 3.60109   5
   0  -7   0 1.89817 2.67093   4
   0  -7   0 6.52600 6.42235   3
  -7   0   0 1.53871 2.79564   1
   7   0   0 -2.6492  4.2936   5
   0  -7   0 2.67158 2.37626   5
  -7   0   0 2.29263 2.69169   5
   0   7   0 -1.0221  2.8162   4
  -7   0   0 0.48520 2.96011   5
   0   7   0 -2.3085  5.1601   6
   0   7   0 5.79505 2.86062   4
   0  -7   0 2.42997 2.48381   4
   0   7   0 -0.4897  4.1955   5
   7   0   0 -1.8991  1.9804   4
  -7   1   0 780.136  43.461   6
   1   7   0 810.889  30.905   4
  -7   1   0 777.634  38.219   5
  -1  -7   0 794.536  38.758   5
  -1  -7   0 832.740  42.556   3
  -7   1   0 817.572  34.123   1
   1   7   0 829.577  43.631   6
   1   7   0 805.862  39.049   5
   7  -1   0 828.346  39.341   5
  -1  -7   0 822.419  31.242   4
   1   7   0 826.475  34.193   1
  -1  -7   0 791.190  39.125   5
   7  -1   0 819.497  43.559   6
   7  -1   0 780.145  30.988   4
  -7   1   0 830.400  31.149   4
  -7   1   0 843.109  39.082   5
   1   7   0 797.314  30.836   4
  -1  -7   0 836.555  30.958   4
   1   7   0 833.583  39.045   5
  -1  -7   0 841.252  44.119   6
  -2  -7   0 67.5029  6.5233   5
   2   7   0 63.6867  7.0336   5
  -2  -7   0 66.4190  4.7681   4
   2   7   0 59.9344  6.7351   5
  -7   2   0 64.6843  7.9819   6
   7  -2   0 62.7552  5.4693   4
   2   7   0 70.7939  6.6209   1
  -7   2   0 68.0736  6.2992   5
  -7   2   0 67.5934  6.6387   1
  -2  -7   0 61.6565  4.9670   4
  -7   2   0 68.6376  5.0651   4
  -2  -7   0 71.4663  8.9674   3
  -7   2   0 67.7569  7.1046   5
   2   7   0 61.7016  4.7978   4
   2   7   0 68.0919  4.9809   4
   7  -2   0 64.6418  7.4995   6
   2   7   0 80.9499  8.4444   6
   7  -2   0 60.5004  6.4214   5
  -2  -7   0 71.8370  8.8000   6
   3   7   0 363.119  20.302   5
  -3  -7   0 370.920  15.540   4
  -7   3   0 374.648  19.654   5
  -7   3   0 371.630  18.104   1
  -3  -7   0 373.204  19.758   5
  -3  -7   0 389.631  23.098   6
   3   7   0 365.960  15.702   4
  -7   3   0 388.236  20.678   5
  -3  -7   0 371.298  19.799   5
  -3  -7   0 366.309  22.465   3
  -7   3   0 358.723  16.032   4
  -7   3   0 394.874  22.975   6
   3   7   0 371.310  16.072   4
   3   7   0 399.399  22.715   6
   7  -3   0 373.518  19.927   5
  -3  -7   0 376.298  16.197   4
   7  -3   0 365.525  16.249   4
   7  -3   0 364.721  22.132   6
   3   7   0 378.571  18.244   1
  -7   4   0 110.695   8.656   5
  -4  -7   0 125.076  11.562   3
  -7   4   0 115.006   8.888   1
  -7   4   0 108.917   9.060   5
   4   7   0 104.653   9.032   1
   4   7   0 103.446   6.747   4
   7  -4   0 109.928   7.757   4
  -4  -7   0 107.299  10.885   6
   4   7   0 104.854   7.284   4
  -4  -7   0 107.136   8.939   5
   7  -4   0 111.934  10.491   6
  -7   4   0 107.438  10.215   6
  -7   4   0 115.301   6.799   4
  -4  -7   0 96.8023  7.5440   4
   4   7   0 104.901   9.037   5
   4   7   0 113.565  10.766   6
   7  -4   0 112.394   9.670   5
  -4  -7   0 101.950   6.327   4
  -7   5   0 215.610  13.791   5
  -5  -7   0 221.919  13.987   5
   5   7   0 231.343  14.104   1
  -7   5   0 250.715  16.192   6
   7  -5   0 209.847  14.749   6
  -7   5   0 220.940  13.402   1
   5   7   0 239.448  16.148   6
  -5  -7   0 248.959  16.246   3
   5   7   0 208.329  10.819   4
   5   7   0 230.386  15.132   5
   7  -5   0 203.845  11.705   4
   7  -5   0 241.873  14.254   5
  -7   5   0 222.478  14.071   5
  -5  -7   0 228.438  16.857   6
  -7   6   0 205.805  14.875   6
   7  -6   0 200.717  14.899   6
  -6  -7   0 186.415  12.723   5
  -7   6   0 188.106  13.904   5
  -6  -7   0 206.297  13.769   3
   6   7   0 175.366  14.643   5
  -7   6   0 167.594   9.618   4
   6   7   0 190.670  14.956   6
   7  -6   0 171.434  12.520   5
  -7   6   0 186.508  12.798   1
  -6  -7   0 183.612  15.343   6
  -7   7   0 400.496  20.725   1
  -7  -7   0 398.768  23.075   3
   7  -7   0 394.957  24.651   6
   7   7   0 367.881  22.227   5
  -7  -7   0 372.475  25.247   6
  -7   7   0 408.720  22.579   5
   7   7   0 373.643  24.466   6
   7  -7   0 455.559  24.043   5
  -7   7   0 393.439  23.842   6
  -7  -7   0 377.096  21.643   5
  -8  -7   0 141.900  12.127   5
  -7   8   0 143.239  11.860   1
  -8  -7   0 130.818  12.843   6
  -8  -7   0 151.894  13.478   3
   7  -8   0 135.554  13.814   6
   8   7   0 133.408  14.126   6
  -7   8   0 126.267  12.247   6
  -7   8   0 127.862  11.426   5
   8   6   0 420.445  25.965   6
  -6   8   0 449.120  26.490   6
  -8  -6   0 417.749  25.405   6
  -6   8   0 392.893  21.623   1
  -8  -6   0 426.680  23.412   5
  -8  -6   0 444.798  25.159   3
   6  -8   0 451.898  26.899   6
  -6   8   0 399.925  23.699   5
   6  -8   0 429.094  23.791   5
   8   6   0 412.657  25.462   5
  -5   8   0 42.6028  7.0038   1
   8   5   0 31.2806  7.2823   6
   8   5   0 25.0674  5.5621   5
  -8  -5   0 33.6296  6.9973   6
  -8  -5   0 29.3217  5.7758   5
  -5   8   0 35.5308  7.9646   6
   5  -8   0 32.1011  6.1104   5
  -5   8   0 39.3606  6.8893   5
   5  -8   0 41.6248  8.3346   6
   8   4   0 562.601  29.940   5
   4  -8   0 565.569  29.921   5
  -4   8   0 635.872  33.705   6
  -8  -4   0 593.072  29.518   5
  -4   8   0 590.255  26.845   1
  -4   8   0 543.228  23.519   4
  -4   8   0 594.823  30.259   5
  -8  -4   0 584.130  33.246   6
   8   4   0 594.741  33.196   6
   4  -8   0 601.266  33.925   6
   3  -8   0 41.2935  6.8201   6
  -3   8   0 41.9718  6.9427   5
  -3   8   0 54.1742  8.2931   6
   3  -8   0 29.1656  5.0012   4
  -8  -3   0 52.3161  7.3935   6
   3  -8   0 37.5845  6.0868   5
  -8  -3   0 37.6598  5.7796   5
   8   3   0 33.1853  5.1580   4
  -3   8   0 44.5144  6.4200   1
  -8  -3   0 36.5370  5.4763   5
   8   3   0 34.3456  4.1324   4
   3  -8   0 25.4580  7.3717   3
  -3   8   0 34.2571  4.6385   4
   8   3   0 40.0643  6.2307   5
   8   3   0 46.7075  7.0864   6
  -2   8   0 2980.01  141.64   6
  -2   8   0 2948.60  109.16   1
   8   2   0 2763.05  125.36   5
   8   2   0 2734.11  140.89   6
   2  -8   0 2769.95  100.04   4
  -2   8   0 2809.28  125.35   5
  -2   8   0 2805.28   99.88   4
  -8  -2   0 2615.58  124.16   5
   8   2   0 2717.54   99.84   4
  -8  -2   0 2806.73  125.15   5
   2  -8   0 2772.38  125.24   5
   2  -8   0 2610.98  132.99   3
   8   2   0 2749.17   99.90   4
   2  -8   0 2757.50  141.41   6
  -8  -2   0 2651.95  140.49   6
  -2   8   0 2722.89   99.82   4
  -1   8   0 269.229  12.667   4
  -1   8   0 273.679  12.747   4
   1  -8   0 237.728  19.670   3
  -8  -1   0 275.289  15.155   5
   8   1   0 271.353  17.514   6
   1  -8   0 267.652  15.464   5
   1  -8   0 279.703  19.135   6
  -8  -1   0 257.707  17.332   6
  -8  -1   0 298.021  16.372   5
  -1   8   0 291.929  18.746   6
  -1   8   0 280.236  15.919   5
   1  -8   0 267.785  13.125   4
   8   1   0 262.815  12.396   4
  -1   8   0 280.022  14.573   1
  -8  -1   0 260.409  12.484   4
   8   1   0 278.188  16.138   5
  -8   0   0 868.943  40.418   5
   0  -8   0 846.992  45.447   6
   0   8   0 845.562  32.076   4
   0   8   0 834.304  35.280   1
   0  -8   0 841.314  39.930   5
   8   0   0 804.708  32.120   4
  -8   0   0 822.884  39.423   5
   0   8   0 813.897  31.945   4
   8   0   0 811.099  40.530   5
  -8   0   0 806.454  44.565   6
   0  -8   0 809.429  44.203   3
  -8   0   0 841.791  31.875   4
   0   8   0 847.553  45.213   6
   0   8   0 838.845  40.379   5
  -8   0   0 853.183  35.567   1
   0  -8   0 800.296  32.194   4
   1   8   0 283.802  18.282   6
   8  -1   0 269.500  16.500   5
  -8   1   0 258.522  13.906   1
   1   8   0 265.822  16.539   5
  -1  -8   0 258.913  12.929   4
   8  -1   0 254.902  12.347   4
  -1  -8   0 269.637  15.223   5
  -8   1   0 284.641  12.749   4
   1   8   0 259.137  12.157   4
  -8   1   0 258.895  15.050   5
   1   8   0 296.361  14.627   1
  -1  -8   0 271.862  12.221   4
   1   8   0 271.139  12.219   4
  -8   1   0 272.441  16.237   5
  -8   1   0 267.329  17.733   6
  -1  -8   0 257.678  19.138   3
   8  -1   0 264.630  17.491   6
  -1  -8   0 292.447  19.081   6
   2   8   0 2821.82   99.59   4
  -2  -8   0 2762.72   99.52   4
   8  -2   0 2732.17  125.21   5
   2   8   0 2722.99   99.56   4
  -2  -8   0 2746.92  140.99   6
  -2  -8   0 2860.39  132.27   3
   8  -2   0 2690.69   99.68   4
  -8   2   0 2801.06  108.98   1
  -8   2   0 2730.94  124.31   5
  -8   2   0 2713.02  124.95   5
  -2  -8   0 2800.33  124.79   5
  -8   2   0 2421.15  100.15   4
   2   8   0 2730.28  124.80   5
  -2  -8   0 2688.23   99.54   4
   2   8   0 2908.70  141.17   6
   2   8   0 2918.83  108.97   1
   8  -2   0 2755.91  140.79   6
  -8   2   0 2817.23  140.50   6
  -8   3   0 46.0935  7.2569   6
  -3  -8   0 37.0702  4.9865   4
   8  -3   0 32.5425  4.8675   4
   8  -3   0 37.5954  7.1057   6
  -3  -8   0 46.8479  8.4411   3
   3   8   0 40.0588  7.6510   6
  -3  -8   0 48.3444  8.7826   6
   3   8   0 45.0508  4.3537   4
  -8   3   0 33.6048  6.1092   1
  -8   3   0 39.4205  5.5199   5
  -3  -8   0 34.4612  5.5856   5
   8  -3   0 35.0646  5.6336   5
   3   8   0 45.2791  6.5409   1
  -8   3   0 48.1908  5.7169   5
   3   8   0 41.1394  6.6437   5
  -4  -8   0 618.019  32.232   3
   4   8   0 573.249  30.066   5
   4   8   0 581.801  26.896   1
  -8   4   0 590.103  32.646   6
   8  -4   0 585.997  32.941   6
  -4  -8   0 554.516  29.286   5
  -8   4   0 570.148  28.977   5
  -4  -8   0 579.149  33.599   6
   4   8   0 610.567  33.352   6
  -8   4   0 582.190  26.701   1
  -8   4   0 575.262  29.896   5
   8  -4   0 573.636  29.697   5
  -4  -8   0 553.249  23.386   4
  -5  -8   0 32.5778  7.7212   3
  -8   5   0 31.2939  6.7852   1
   8  -5   0 31.8155  6.6763   5
   5   8   0 30.1599  7.0769   1
  -5  -8   0 28.0072  5.5539   5
   5   8   0 31.7606  7.1392   5
  -8   5   0 40.9863  7.0053   6
   5   8   0 36.0692  7.7965   6
  -5  -8   0 27.3641  8.5870   6
   8  -5   0 28.0969  7.3497   6
  -8   5   0 39.5105  5.8478   5
  -6  -8   0 435.930  26.444   6
  -8   6   0 402.953  23.660   5
  -8   6   0 391.761  21.508   1
   6   8   0 464.552  22.813   1
  -6  -8   0 401.888  22.557   5
  -8   6   0 468.350  25.360   6
   6   8   0 417.772  26.572   6
   8  -6   0 408.071  25.901   6
  -6  -8   0 434.429  26.008   3
   6   8   0 423.650  24.630   5
   7   8   0 120.500  12.757   5
   7   8   0 121.698  11.778   1
  -8   7   0 124.190  11.324   5
  -8   7   0 148.163  12.098   1
  -7  -8   0 116.861  13.200   6
  -7  -8   0 119.834  12.278   3
   7   8   0 135.387  13.185   6
  -8   7   0 138.906  11.747   6
   8  -7   0 131.240  14.027   6
  -7  -8   0 122.289  11.377   5
  -8   8   0 2070.22   96.36   5
   8   8   0 2139.55  108.87   6
  -8   8   0 2123.88   85.26   1
  -8  -8   0 1997.84   96.27   5
   8  -8   0 2077.61  108.80   6
  -8  -8   0 2044.82  107.69   6
  -8   8   0 2147.25  106.92   6
   8  -9   0 199.396  18.712   6
  -8   9   0 174.103  14.363   1
  -9  -8   0 189.211  14.475   5
  -8   9   0 189.970  13.874   6
  -9  -8   0 192.275  15.325   6
   9   8   0 181.340  17.598   6
  -8   9   0 175.945  15.880   5
  -7   9   0 192.598  14.950   1
  -9  -7   0 179.747  15.432   3
  -9  -7   0 188.977  14.459   5
   9   7   0 193.515  17.176   6
  -7   9   0 188.503  15.131   6
  -7   9   0 170.734  14.728   5
   7  -9   0 182.332  17.924   6
  -9  -7   0 187.336  16.419   6
  -9  -6   0 -3.4993  5.5408   3
  -9  -6   0 -6.8043  5.0906   5
   6  -9   0 2.05441 8.56777   6
  -6   9   0 6.97237 8.16921   6
  -6   9   0 6.82459 6.66616   1
  -6   9   0 4.18675 6.28235   5
  -9  -6   0 -1.4628  8.1202   6
   9   6   0 8.32868 7.43264   6
   5  -9   0 1224.03   59.53   5
  -5   9   0 1267.96   52.88   1
  -9  -5   0 1271.27   59.62   5
  -5   9   0 1215.52   59.76   5
  -9  -5   0 1228.37   66.21   6
   9   5   0 1213.05   66.74   6
   5  -9   0 1283.30   67.57   6
  -5   9   0 1327.32   66.77   6
  -4   9   0 88.2375  9.1896   1
   9   4   0 97.3919 10.5987   6
  -9  -4   0 104.468   9.587   5
   4  -9   0 117.763  12.359   6
   4  -9   0 101.411   9.065   5
  -4   9   0 98.1256 10.8349   6
  -9  -4   0 91.5973  9.8585   6
  -4   9   0 78.7694  9.3614   5
   3  -9   0 157.804  12.552   5
   9   3   0 169.654  13.673   6
   3  -9   0 147.197  15.405   6
  -3   9   0 183.365  14.960   6
  -9  -3   0 165.208  13.424   6
  -3   9   0 159.797  13.108   5
   3  -9   0 146.735  16.361   3
  -3   9   0 170.257  12.193   1
  -9  -3   0 166.856  12.482   5
  -9  -2   0 63.7059  7.0728   5
   2  -9   0 72.4625 10.7079   6
  -9  -2   0 70.4185  8.3034   6
   9   2   0 65.2630  8.8430   6
  -2   9   0 80.9136  8.7947   5
  -9  -2   0 81.5413  8.2683   5
  -2   9   0 96.3161 10.3566   6
  -2   9   0 73.0365  5.8058   4
  -2   9   0 73.3059  7.9440   1
   9   2   0 62.3520  7.9715   5
   2  -9   0 67.7122  7.7959   5
   2  -9   0 64.1829 10.0823   3
   1  -9   0 991.876  55.707   3
  -9  -1   0 1078.29   50.71   5
  -1   9   0 1041.75   50.81   5
  -9  -1   0 998.797  49.413   5
  -1   9   0 1040.57   40.49   4
  -1   9   0 1118.67   44.74   1
   9   1   0 1054.60   51.36   5
  -9  -1   0 1062.89   56.10   6
   1  -9   0 1116.21   57.60   6
   1  -9   0 1057.70   50.70   5
  -1   9   0 1079.59   56.95   6
  -9   0   0 0.80713 4.50122   5
  -9   0   0 -8.8658  5.8123   6
   0  -9   0 -5.2728  7.4328   6
   0  -9   0 0.84240 5.42684   3
   0   9   0 -0.0836  5.0429   1
   0   9   0 0.41725 3.78871   5
   0   9   0 1.38596 3.36102   4
   0   9   0 4.15838 6.68168   6
   0  -9   0 -2.8603  2.8200   4
   9   0   0 -1.1013  5.5674   5
  -9   0   0 4.94428 3.60838   5
   0  -9   0 2.59947 3.06199   5
   9   0   0 4.51195 5.59203   6
  -1  -9   0 1018.69   40.46   4
   9  -1   0 1070.58   56.56   6
  -9   1   0 1075.88   56.28   6
  -1  -9   0 1004.97   54.59   3
  -9   1   0 1014.38   49.57   5
   1   9   0 1067.77   40.43   4
  -9   1   0 1090.16   44.86   1
   1   9   0 1092.97   56.94   6
  -9   1   0 1037.61   50.54   5
   9  -1   0 1068.76   50.90   5
  -1  -9   0 1026.34   50.32   5
   1   9   0 1042.81   44.15   1
  -1  -9   0 1087.89   57.15   6
   1   9   0 1065.91   50.74   5
  -2  -9   0 83.6484 10.7522   6
  -9   2   0 68.4132  8.2997   6
  -9   2   0 71.9641  7.4182   1
  -9   2   0 71.2192  8.0853   5
   2   9   0 77.7069  7.4104   1
   2   9   0 76.6680  9.9981   6
  -2  -9   0 70.0455  7.5808   5
   9  -2   0 57.8402  8.3002   5
  -2  -9   0 61.9318  9.2449   3
  -9   2   0 76.1624  6.6509   5
   2   9   0 80.8242  7.8546   5
   9  -2   0 67.8679  9.1442   6
  -9   3   0 168.005  13.380   6
  -3  -9   0 164.634  14.159   3
   3   9   0 165.074  15.015   6
   3   9   0 152.861  13.484   5
  -9   3   0 177.990  12.992   5
  -9   3   0 164.267  12.578   1
   9  -3   0 170.898  14.218   6
   3   9   0 164.394  12.193   1
  -3  -9   0 152.134  11.984   5
  -3  -9   0 170.667  16.051   6
   4   9   0 115.085  11.872   6
  -9   4   0 92.2845  9.2703   5
  -4  -9   0 91.8879  8.3962   5
  -9   4   0 103.915   9.717   6
  -9   4   0 93.5384  8.5412   1
   4   9   0 105.496   8.845   1
  -4  -9   0 102.481  13.429   6
  -4  -9   0 89.7051 11.9151   3
   4   9   0 93.5566  9.0943   5
   9  -4   0 94.5913 10.5421   6
  -9   5   0 1274.56   52.72   1
   5   9   0 1266.73   66.68   6
  -5  -9   0 1228.94   66.41   6
  -5  -9   0 1204.02   63.12   3
   9  -5   0 1239.03   66.29   6
  -9   5   0 1327.48   65.47   6
   5   9   0 1266.67   52.54   1
  -5  -9   0 1209.62   58.96   5
  -9   5   0 1235.22   59.16   5
   5   9   0 1176.24   59.11   5
   6   9   0 -5.8757  7.8051   6
  -6  -9   0 2.47309 5.14071   5
  -9   6   0 -0.9701  6.5341   1
  -9   6   0 -1.6525  5.6293   5
  -9   6   0 -3.9971  6.6956   6
  -6  -9   0  4.4995 10.2270   6
   6   9   0 -5.7901  6.7386   5
  -6  -9   0 -5.3441  4.7261   3
   6   9   0 6.91871 6.95540   1
   9  -6   0 1.52697 7.21512   6
  -9   7   0 179.529  14.859   1
  -9   7   0 184.749  13.566   6
   9  -7   0 190.255  19.012   6
  -9   7   0 171.711  14.159   5
  -7  -9   0 179.303  14.429   5
  -7  -9   0 198.166  17.823   6
   7   9   0 198.615  17.189   6
   7   9   0 174.408  13.527   1
  -7  -9   0 172.634  16.748   3
  -9   8   0 181.456  12.806   6
  -8  -9   0 184.923  16.926   3
   8   9   0 177.098  14.357   1
  -9   8   0 193.473  15.784   5
  -9   8   0 193.644  15.529   1
  -8  -9   0 177.722  16.032   6
   9  -8   0 179.931  18.367   6
   8   9   0 181.252  17.555   6
  -8  -9   0 176.542  14.434   5
  -9  -9   0 2.16751 5.99580   6
   9   9   0 -3.5736  9.0280   1
  -9   9   0 1.39946 5.81174   5
  -9  -9   0 -1.2765  5.8573   5
   9  -9   0 8.72824 9.71138   6
   9   9   0 5.77133 9.17960   6
  -9   9   0 14.2036  8.4473   1
  -9  10   0 75.9846 11.2885   1
  10   9   0 81.8904 10.8968   1
   9 -10   0 53.8676 11.6044   6
 -10  -9   0 62.8123  9.3762   5
  -9  10   0 51.6389  8.0390   5
  10   9   0 59.6192 13.1719   6
  -8  10   0 22.2977  8.0577   5
   8 -10   0 18.2275 10.1850   6
  -8  10   0 22.6872  9.0829   1
 -10  -8   0 27.5562  6.8310   5
  10   8   0 31.1935  9.9392   6
  -7  10   0 11.1336  6.5661   5
  10   7   0 12.6262 10.4416   6
  -7  10   0 17.2293  8.3429   1
  -7  10   0 15.1121  6.7423   6
   7 -10   0 15.6945 11.9678   6
 -10  -7   0 21.9121  7.7091   6
 -10  -7   0 12.7642  6.2371   5
   6 -10   0 732.266  42.185   6
 -10  -6   0 687.455  36.361   5
  -6  10   0 732.299  33.797   1
  -6  10   0 742.151  39.599   6
 -10  -6   0 725.073  39.172   6
  10   6   0 677.839  41.309   6
  -6  10   0 705.257  36.776   5
  -5  10   0 52.2231  8.6202   1
   5 -10   0 50.2445 11.0944   6
 -10  -5   0 55.6700  8.0704   5
 -10  -5   0 42.8413  8.7692   6
  10   5   0 53.3426  9.9072   6
  -5  10   0 50.8358  9.7542   6
  -5  10   0 40.1801  8.0927   5
 -10  -4   0 70.1151  8.4288   5
 -10  -4   0 68.2860  9.7901   6
   4 -10   0 86.8000 12.5669   6
  -4  10   0 73.3485  9.4871   1
  -4  10   0 62.6709  8.8375   5
  10   4   0 80.1346 10.5635   6
  -4  10   0 80.2487  9.9690   6
   4 -10   0 77.7993  8.2119   5
 -10  -3   0 52.8793  7.4703   5
   3 -10   0 50.7023  6.7082   5
  -3  10   0 50.4826  8.1512   5
  -3  10   0 48.8273  8.1972   1
  -3  10   0 64.3026 10.8711   6
   3 -10   0 36.9701  9.6033   3
 -10  -3   0 45.4528  8.8765   6
   3 -10   0 63.2821 11.6307   6
  -2  10   0 52.5939  8.4634   5
  -2  10   0 70.7568  9.9743   6
   2 -10   0 68.9362  8.1738   5
   2 -10   0 64.4403 12.3243   3
 -10  -2   0 61.4103  7.9493   5
   2 -10   0 66.9445 11.2928   6
 -10  -2   0 59.4155  9.2904   6
  -2  10   0 56.4731  6.9839   1
   1 -10   0 -8.2517  8.6315   6
  -1  10   0 -10.005   8.940   6
 -10  -1   0 -4.1477  5.6951   6
   1 -10   0 4.89907 9.10564   3
  10   1   0 7.30875 6.77293   6
  -1  10   0 3.16631 5.68770   1
 -10  -1   0 0.17439 5.02867   5
   1 -10   0 -3.3578  4.5023   5
  -1  10   0 3.64549 6.04592   5
 -10   0   0 881.016  44.661   5
   0 -10   0 967.257  51.199   6
  10   0   0 909.590  49.994   6
   0 -10   0 856.134  50.030   3
 -10   0   0 913.477  49.250   6
   0  10   0 906.034  44.588   5
   0  10   0 925.615  39.789   1
   0 -10   0 893.390  44.640   5
   0  10   0 957.133  50.617   6
 -10   1   0 2.37691 5.75352   6
   1  10   0 -0.2795  6.0418   5
   1  10   0 -0.4736  7.1654   6
 -10   1   0 -2.2229  4.9442   5
   1  10   0 1.81800 5.66488   1
  -1 -10   0 4.37871 4.88541   5
  -1 -10   0 3.24845 8.80747   3
  10  -1   0 2.67487 6.54095   6
  -1 -10   0 -3.0979  8.7428   6
  -2 -10   0 37.9531 10.4147   3
   2  10   0 60.6658  7.4337   5
 -10   2   0 60.0803  9.0386   1
   2  10   0 56.3399 10.1141   6
   2  10   0 63.4715  8.4391   1
  -2 -10   0 58.6488  6.8354   5
 -10   2   0 49.1403  8.2634   6
  10  -2   0 71.8901  9.9360   6
  -2 -10   0 77.3284 11.5431   6
 -10   2   0 64.8902  8.0394   5
  -3 -10   0 40.5993  8.3934   3
   3  10   0 56.5343  8.4963   5
  10  -3   0 48.8707  9.1849   6
 -10   3   0 53.9409  8.2276   6
  -3 -10   0 48.8245 10.8103   6
 -10   3   0 48.4979  8.4284   1
   3  10   0 44.1037  7.8939   1
 -10   3   0 47.1311  7.5826   5
   3  10   0 53.1926  9.7864   6
  -3 -10   0 57.0980  7.3849   5
 -10   4   0 71.7143  8.8766   5
 -10   4   0 81.1458  8.9899   6
   4  10   0 80.6778 11.1754   6
   4  10   0 84.4601  9.7944   5
 -10   4   0 64.9428  9.6064   1
  -4 -10   0 77.1107 11.6143   6
   4  10   0 78.2328  9.6430   1
  10  -4   0 75.1563 10.4189   6
  -4 -10   0 66.6696  7.5583   5
  -4 -10   0 55.3794 11.3272   3
   5  10   0 28.9129  8.3025   1
 -10   5   0 25.7329  7.0030   5
  -5 -10   0 59.1939 11.9636   6
  -5 -10   0 60.7075 11.2998   3
  -5 -10   0 47.9019  7.5553   5
 -10   5   0 50.6859  7.3997   6
   5  10   0 36.6318  8.4295   5
   5  10   0 48.8459 10.2082   6
 -10   5   0 51.2082  8.8925   1
  10  -5   0 62.3843  9.9376   6
  -6 -10   0 687.201  39.707   6
  -6 -10   0 677.026  35.777   5
 -10   6   0 696.415  35.369   5
   6  10   0 728.465  40.889   6
  -6 -10   0 628.936  39.564   3
   6  10   0 673.648  32.555   1
  10  -6   0 699.254  40.328   6
 -10   6   0 727.797  37.285   6
 -10   6   0 721.826  33.224   1
 -10   7   0 15.7652  8.0305   1
  10  -7   0 7.06285 8.62531   6
  -7 -10   0 17.9968  8.9000   6
 -10   7   0 14.1727  4.5391   6
   7  10   0 10.6153  8.8219   1
 -10   7   0 17.9197  6.3247   5
  -7 -10   0 4.64017 6.02169   3
   7  10   0 19.5405  9.1429   6
  -7 -10   0 16.9448  6.6437   5
  -8 -10   0 35.9531  7.4151   5
  -8 -10   0 28.4775  8.6180   6
  10  -8   0 25.4923 10.2725   6
 -10   8   0 20.0230  8.9326   1
   8  10   0 34.3410  9.9483   6
 -10   8   0 19.8038  6.4294   5
   8  10   0 35.6941 10.0492   1
 -10   9   0 50.5274  6.7933   5
   9  10   0 55.1401 10.9130   6
   9  10   0 60.7018  9.9836   1
  10  -9   0 56.6224 11.6830   6
  -9 -10   0 52.6260  7.9952   5
 -10   9   0 64.4341 10.6503   1
 -10  10   0 31.3727  9.8795   1
  10 -10   0 9.53784 9.99800   6
  10  10   0 26.0735 10.1107   6
  10  10   0 15.9557 10.8654   1
  11  10   0 82.0571 14.2492   1
  10 -11   0 60.8018 13.4156   6
 -10  11   0 71.2055 11.6717   1
   9 -11   0 429.483  30.356   6
  -9  11   0 463.492  25.390   1
  11   9   0 403.491  27.775   1
 -11  -8   0 2.83382 6.67100   5
  -8  11   0 9.95306 5.94880   5
  -8  11   0 11.4885  9.1204   1
   8 -11   0  2.0583 12.3069   6
   7 -11   0 130.290  16.474   6
  -7  11   0 118.799  11.731   5
 -11  -7   0 93.0615 10.4928   5
  -7  11   0 116.073  12.622   1
 -11  -6   0 46.6850  7.7212   5
   6 -11   0 42.1735 11.6611   6
  -6  11   0 52.0569  9.9402   1
  -6  11   0 48.3607  8.4459   5
  -6  11   0 50.7197  7.1280   6
   5 -11   0 20.1323 10.8885   6
  -5  11   0 19.1161  7.6410   6
  -5  11   0 18.4157  7.3890   5
 -11  -5   0 12.3559  7.2650   5
 -11  -5   0 23.9885  5.7728   6
  -5  11   0 21.3929  8.3911   1
 -11  -4   0 353.874  21.610   6
  -4  11   0 333.360  20.603   1
 -11  -4   0 351.269  21.040   5
   4 -11   0 371.159  26.586   6
  -4  11   0 333.490  21.898   5
  -4  11   0 371.488  22.596   6
  -3  11   0 1459.14   72.94   5
  -3  11   0 1511.90   64.30   1
   3 -11   0 1498.36   72.99   5
 -11  -3   0 1536.99   79.85   6
  -3  11   0 1685.67   81.62   6
   3 -11   0 1582.11   83.05   6
  11   3   0 1560.61   82.19   6
 -11  -3   0 1521.78   72.54   5
  -2  11   0 217.360  15.645   5
  11   2   0 247.892  18.913   6
   2 -11   0 235.144  15.590   5
   2 -11   0 254.262  21.407   6
  -2  11   0 228.014  19.804   6
 -11  -2   0 230.441  16.134   5
 -11  -2   0 249.712  16.332   6
   2 -11   0 212.766  21.361   3
  -2  11   0 230.718  14.778   1
  -1  11   0 -8.9212  6.3704   5
  -1  11   0 0.46323 4.76287   1
   1 -11   0 -0.8659  7.2926   3
 -11  -1   0 3.04389 5.71246   5
 -11  -1   0 0.11828 6.16916   6
  -1  11   0 -8.6049  7.4711   6
   1 -11   0 4.60087 5.70846   5
  11   1   0 -8.0220  7.4718   6
   1 -11   0 -6.4361  9.7909   6
   0 -11   0 3.31543 5.41904   5
   0  11   0 -5.7577  9.2441   6
   0 -11   0  5.8448 10.1367   6
   0 -11   0 0.84516 7.04685   3
 -11   0   0 2.10941 5.45244   5
  11   0   0 3.07760 7.76567   6
 -11   0   0 -1.5605  5.9536   6
   0  11   0 1.82600 6.46418   5
   0  11   0 -1.9142  6.4647   1
  -1 -11   0  5.6373 12.3865   6
   1  11   0 -1.6296  9.6607   6
  -1 -11   0 -4.7388  6.8030   3
 -11   1   0 -5.7970  5.6596   6
  11  -1   0 -2.0223  7.7979   6
  -1 -11   0 3.11731 5.29372   5
 -11   1   0 -4.4932  5.3888   5
   1  11   0 -0.3163  6.5765   5
   1  11   0 3.50960 6.83455   1
 -11   2   0 232.421  16.254   5
   2  11   0 232.578  16.197   1
  11  -2   0 258.460  19.590   6
   2  11   0 211.541  17.431   5
  -2 -11   0 230.732  16.415   5
 -11   2   0 233.532  15.452   6
 -11   2   0 242.129  16.809   1
  -2 -11   0 216.554  21.686   3
  -2 -11   0 261.626  21.213   6
   2  11   0 243.230  19.516   6
   3  11   0 1481.57   79.69   6
  11  -3   0 1505.92   79.64   6
 -11   3   0 1558.11   70.64   5
  -3 -11   0 1457.51   76.88   3
  -3 -11   0 1513.07   80.23   6
  -3 -11   0 1454.93   70.80   5
   3  11   0 1503.02   71.45   5
 -11   3   0 1467.85   62.87   1
   3  11   0 1557.79   63.26   1
  -4 -11   0 305.991  23.451   3
 -11   4   0 314.284  20.546   1
   4  11   0 342.456  22.149   5
  -4 -11   0 335.341  24.516   6
 -11   4   0 368.607  21.517   5
   4  11   0 369.052  24.337   6
   4  11   0 315.183  20.348   1
  -4 -11   0 327.891  20.874   5
 -11   4   0 353.233  19.946   6
  11  -4   0 352.304  24.009   6
  -5 -11   0 14.1474  7.4194   3
   5  11   0 24.8053  9.5139   6
  -5 -11   0 24.7449  6.7327   5
 -11   5   0 33.1902  3.6815   6
 -11   5   0 23.0824  7.4790   5
 -11   5   0 27.6377  9.0940   1
   5  11   0 24.9127  8.6032   1
   5  11   0 5.48745 7.63022   5
  -5 -11   0 19.0916 11.2238   6
  11  -5   0 27.5028  9.4545   6
 -11   6   0 42.7197  7.2234   5
  -6 -11   0 42.6881 10.2680   6
  11  -6   0 43.3579 12.0905   6
   6  11   0 32.2233  9.5263   1
   6  11   0 48.5701 10.4905   6
  -6 -11   0 47.1389  9.2238   3
 -11   6   0 49.0500  8.1614   1
  -6 -11   0 43.1272  7.8835   5
   6  11   0 40.1569  9.9095   5
  -7 -11   0 119.351  15.039   3
  -7 -11   0 134.552  13.871   6
 -11   7   0 88.5439  9.1401   5
 -11   7   0 141.559  12.448   5
 -11   7   0 143.217  13.588   1
  -7 -11   0 140.486  12.921   5
  11  -7   0 139.093  14.304   6
   7  11   0 133.114  14.161   6
   7  11   0 136.928  14.035   1
   8  11   0 22.5330 11.4094   6
 -11   8   0 13.8940  6.8568   1
 -11   8   0 2.72572 5.59142   5
   8  11   0 22.1214 10.3950   1
  -8 -11   0 2.83388 7.83023   5
 -11   8   0 12.9071  5.2410   5
  11  -8   0 10.8834 10.0100   6
   9  11   0 431.263  27.703   6
   9  11   0 402.559  26.190   1
  11  -9   0 414.338  28.167   6
 -11   9   0 401.140  24.726   1
  11 -10   0 55.8756 12.9267   6
  10  11   0 48.7910 12.7479   1
 -11  10   0 59.2796 11.4032   1
 -11  11   0 21.2540  7.9805   1
  11  11   0 25.0285 11.7475   1
  11  11   0 28.5246  9.5939   6
  11 -11   0 23.1225 10.0475   6
 -11  12   0 42.3808 10.3048   2
  12  10   0 218.752  19.549   1
  12  10   0 264.052  19.190   6
  10 -12   0 225.770  18.145   6
 -10  12   0 179.313  16.660   1
   9 -12   0 25.2037 11.5527   6
  -9  12   0 -4.9564  8.8443   1
  12   9   0  7.6282 10.9838   6
  12   9   0  8.5039 11.7631   1
   8 -12   0 9.37849 9.89827   6
  -8  12   0 14.6586  9.7171   1
  12   8   0  6.4845 11.5531   6
 -12  -7   0 68.3437  7.8561   5
  -7  12   0 87.7067 10.5884   1
   7 -12   0 107.025  13.785   6
  12   7   0 120.575  13.859   6
   6 -12   0 415.464  29.866   6
  12   6   0 422.583  27.935   6
 -12  -6   0 395.196  21.818   5
  -6  12   0 414.220  23.858   1
 -12  -6   0 383.069  22.454   5
 -12  -5   0 66.9001  8.7153   5
  12   5   0 83.9870 12.1526   6
  -5  12   0 56.7049  9.0505   5
  -5  12   0 80.5297 11.5813   1
  -5  12   0 76.6526  7.9078   6
   5 -12   0 72.6359 15.1115   6
  -4  12   0 194.406  17.253   5
 -12  -4   0 175.353  13.950   5
   4 -12   0 202.691  20.000   6
  12   4   0 193.943  18.433   6
  -4  12   0 210.484  16.554   1
  -4  12   0 182.448  16.012   6
  -3  12   0 4.86524 8.13504   1
   3 -12   0 -1.3464 13.1016   6
  12   3   0 0.67352 8.89138   6
  -3  12   0 -10.060   8.047   6
 -12  -3   0 7.34899 5.82367   5
  -3  12   0 -4.6228  6.6486   5
   3 -12   0 -0.9114  6.7554   5
 -12  -2   0 -1.0838  5.4438   5
  -2  12   0 0.01199 8.56296   6
   2 -12   0 1.17871 6.15694   5
   2 -12   0 1.09140 8.56132   3
   2 -12   0  0.0352 10.4962   6
  -2  12   0 -1.3322  7.4702   1
  -2  12   0 2.67682 7.16406   5
  12   2   0 3.47573 8.65151   6
   1 -12   0 121.060  11.660   5
   1 -12   0 101.461  16.282   6
  -1  12   0 136.700  12.713   1
  -1  12   0 134.074  12.518   5
   1 -12   0 96.3239 14.4779   3
  -1  12   0 136.234  13.352   6
 -12  -1   0 103.877  10.475   5
  12   1   0 117.008  14.022   6
  12   0   0 757.802  42.980   6
   0 -12   0 718.046  43.203   6
   0  12   0 782.957  41.628   6
 -12   0   0 745.615  36.808   5
   0  12   0 680.747  38.073   5
   0 -12   0 654.922  44.056   3
   0  12   0 745.988  34.629   1
   0 -12   0 728.547  37.871   5
   1  12   0 137.233  14.706   6
  12  -1   0 156.024  14.842   6
 -12   1   0 134.514  11.681   5
  -1 -12   0 99.1252 15.9532   6
  -1 -12   0 106.581  11.208   5
   1  12   0 110.695  11.920   5
  -1 -12   0 115.178  16.495   3
   1  12   0 115.033  12.133   1
 -12   2   0 7.36828 5.48346   5
   2  12   0 -4.6567  7.8396   6
  -2 -12   0 14.9886 11.0342   3
   2  12   0 -7.1969  6.9288   5
   2  12   0 -5.6671  7.5361   1
  -2 -12   0 -2.1338  5.9663   5
  -2 -12   0 -4.6045  9.8561   6
  12  -2   0 1.37427 8.63365   6
  -3 -12   0 -1.5282  7.1675   3
  -3 -12   0 -2.1104 11.8429   6
 -12   3   0 6.51602 5.70994   5
   3  12   0 -2.6936  7.5186   5
   3  12   0 4.06818 8.26630   6
   3  12   0 -1.5959  5.4234   1
 -12   3   0 8.42787 8.47927   1
  12  -3   0 10.0235  8.7980   6
  -3 -12   0 3.43686 5.87604   5
  -4 -12   0 158.684  16.374   6
   4  12   0 216.128  15.692   1
  12  -4   0 185.095  17.293   6
 -12   4   0 173.167  12.836   5
 -12   4   0 167.428  14.918   1
  -4 -12   0 151.320  14.354   5
   4  12   0 130.619  13.440   5
 -12   4   0 160.931  11.674   5
  -4 -12   0 147.478  16.076   3
   4  12   0 186.312  17.034   6
 -12   5   0 85.8272 12.0313   1
  -5 -12   0 64.3199  9.1900   5
  -5 -12   0 95.8460 14.4798   3
 -12   5   0 56.6306  7.8955   5
   5  12   0 85.9468 10.9872   5
  12  -5   0 89.4035 13.5510   6
   5  12   0 76.8181 12.8748   6
  -5 -12   0 92.1222 12.0084   6
   5  12   0 88.3089 12.0255   1
 -12   5   0 81.8451  7.8778   5
   6  12   0 416.418  24.306   1
  -6 -12   0 356.981  28.287   3
  12  -6   0 409.967  27.168   6
 -12   6   0 371.531  23.879   1
 -12   6   0 380.698  20.471   5
  -6 -12   0 401.701  23.745   6
   6  12   0 406.510  27.510   6
 -12   6   0 387.658  20.968   5
   6  12   0 392.719  25.019   5
  12  -7   0 107.207  15.197   6
 -12   7   0 97.3953 12.7958   1
   7  12   0 98.2292 11.2778   1
   7  12   0 131.686  14.589   6
   7  12   0 82.4143 11.6519   5
   8  12   0 12.1940 10.2818   6
  12  -8   0  3.2814 11.8129   6
   8  12   0 4.55842 7.45568   1
 -12   8   0 12.7393  9.9327   1
 -12   9   0 -5.0218  9.1799   1
   9  12   0  2.5559 10.4571   1
  12  -9   0  6.4536 11.3660   6
  10  12   0 238.470  16.373   6
  12 -10   0 187.508  19.451   6
  10  12   0 211.455  17.325   1
  13   9   0 11.0580 12.0781   1
   9 -13   0 -3.2182  8.3375   6
  13   9   0 6.55409 9.43353   6
  -8  13   0 25.8554 10.3304   1
  13   8   0 44.5697 10.9154   6
   8 -13   0 23.2879 11.1981   6
  -7  13   0 75.5535 12.2768   1
   7 -13   0 95.7161 13.7141   6
  13   7   0 118.943  13.693   6
  13   6   0 114.285  15.403   6
   6 -13   0 69.6386 13.7836   6
  -6  13   0 99.2421 12.7417   1
  -5  13   0 204.068  17.287   1
  13   5   0 243.171  20.973   6
   5 -13   0 239.439  20.493   6
   4 -13   0 72.7747 12.7879   6
  13   4   0 97.2425 15.0299   6
  -4  13   0 71.8554 11.7365   1
  -4  13   0 65.6030  9.5096   5
 -13  -4   0 83.9845  7.7621   5
   4 -13   0 87.4155 10.8459   5
 -13  -4   0 81.1445  7.3796   5
  -3  13   0 3.82241 8.46511   5
   3 -13   0 10.6396 13.0083   6
 -13  -3   0 -2.9392  6.6477   5
   3 -13   0 12.8450  7.5548   5
 -13  -3   0 14.5168  5.2337   5
  13   3   0 12.5189  9.7065   6
  -3  13   0 16.7063  9.6365   1
  -3  13   0 18.6332  6.1647   6
  13   2   0 60.3572 11.6881   6
 -13  -2   0 67.7692  7.2707   5
 -13  -2   0 52.8716  7.5586   5
  -2  13   0 62.7340  9.5296   5
  -2  13   0 58.8762 10.7890   1
   2 -13   0 65.1268  9.7244   5
  -2  13   0 55.1326  8.4622   6
   2 -13   0 47.2816 14.4164   6
  13   1   0 267.718  21.458   6
  -1  13   0 249.088  18.364   6
  -1  13   0 208.022  18.025   5
 -13  -1   0 253.200  15.778   5
   1 -13   0 240.977  24.368   3
   1 -13   0 224.102  21.194   6
 -13  -1   0 241.712  14.823   5
   1 -13   0 242.324  17.761   5
  -1  13   0 231.844  18.696   1
   0  13   0 -2.2061  7.3540   5
   0  13   0 6.37888 8.65034   1
  13   0   0 13.4718  9.4918   6
 -13   0   0 3.88925 5.81219   5
 -13   0   0 15.1592  5.5718   5
   0 -13   0 15.7057  7.2629   5
   0 -13   0 -0.1709  8.6538   3
   0 -13   0  8.1405 10.4107   6
   1  13   0 211.105  17.506   1
   1  13   0 212.456  18.045   5
  -1 -13   0 236.734  16.939   5
 -13   1   0 208.912  14.496   5
  -1 -13   0 227.334  20.381   6
  -1 -13   0 240.044  23.627   3
  13  -1   0 208.042  20.156   6
 -13   2   0 48.6526  6.1190   5
   2  13   0 57.5147 10.8748   6
  -2 -13   0 46.6461 13.7064   3
   2  13   0 49.2121  9.4836   5
  -2 -13   0 66.6516 12.9295   6
 -13   2   0 54.7712  7.1547   5
  -2 -13   0 50.9314  8.5308   5
  13  -2   0 62.8564 11.2566   6
   2  13   0 43.9326 10.0363   1
  -3 -13   0 17.6477  7.0063   5
  -3 -13   0 5.22160 8.03354   3
   3  13   0 -1.5669  9.5599   6
   3  13   0 2.90109 7.94051   5
 -13   3   0 10.9685  5.1823   5
 -13   3   0 15.7665  4.5811   5
  -3 -13   0 6.67100 9.99626   6
  13  -3   0  8.6300 10.8991   6
   3  13   0 7.01308 8.82630   1
   4  13   0 92.4755 10.9504   6
  13  -4   0 83.1468 13.7421   6
   4  13   0 94.2514 12.2741   1
  -4 -13   0 48.1714 11.0765   3
 -13   4   0 62.9017  6.2471   5
  -4 -13   0 82.9396 11.6231   6
 -13   4   0 59.1316  6.6449   5
  -4 -13   0 67.7822 10.1604   5
   4  13   0 71.1829 10.4597   5
   5  13   0 223.587  19.840   6
   5  13   0 187.222  17.950   5
  -5 -13   0 199.811  21.251   3
 -13   5   0 203.323  17.262   1
   5  13   0 238.633  17.835   1
  13  -5   0 233.565  21.908   6
 -13   6   0 88.0887 13.0451   1
   6  13   0 72.9340 12.3879   1
  13  -6   0 112.182  13.124   6
   6  13   0 96.9147 12.4750   6
  -6 -13   0 71.6085 14.2242   3
   7  13   0 85.4897 11.1624   6
   7  13   0 132.624  14.626   1
 -13   7   0 68.9732 12.5554   1
  13  -7   0 123.650  15.449   6
 -13   8   0 15.2123 10.2659   1
  13  -8   0 33.9108 11.9529   6
   8  13   0  7.4957 10.3575   1
   9  13   0 10.6476  8.0368   1
  13  -9   0 0.06861 9.19662   6
  14   8   0 446.034  26.720   6
  14   7   0 211.504  19.896   6
   7 -14   0 188.741  13.901   6
  -7  14   0 190.489  16.625   1
  14   6   0 55.9570 12.0092   6
  -6  14   0 60.3484 11.3583   1
   6 -14   0 58.8708 10.3507   6
  -5  14   0 83.6520 12.5455   1
  14   5   0 101.263  13.019   6
   5 -14   0 109.224  13.582   6
  -4  14   0 158.713  15.251   1
  14   4   0 196.935  20.337   6
   4 -14   0 158.402  15.806   6
  -3  14   0 12.9492  9.7253   1
   3 -14   0 15.5626 11.9230   6
  14   3   0 28.0201 12.2385   6
   2 -14   0 621.301  36.698   6
  -2  14   0 574.120  31.608   1
  14   2   0 587.737  37.874   6
  -1  14   0 215.277  12.743   6
  -1  14   0 240.307  19.325   1
   1 -14   0 198.928  16.181   5
   1 -14   0 236.663  22.497   6
  14   1   0 237.112  20.542   6
   0  14   0 144.205  12.323   6
   0 -14   0 161.038  13.968   5
  14   0   0 161.692  15.844   6
   0  14   0 156.555  15.131   1
   0 -14   0 138.813  16.061   6
   0 -14   0 148.619  20.594   3
  14  -1   0 224.457  19.783   6
  -1 -14   0 207.229  21.109   3
   1  14   0 200.081  16.101   1
  -1 -14   0 209.941  19.207   6
  14  -2   0 601.433  36.641   6
   2  14   0 601.684  29.520   1
  -2 -14   0 577.154  32.520   6
  -2 -14   0 492.468  36.556   3
  -3 -14   0 13.3661  9.3354   3
  14  -3   0 21.9644  9.8501   6
   3  14   0 17.0661  7.8673   6
   3  14   0 19.5019  9.9918   1
   4  14   0 129.662  14.683   1
  -4 -14   0 139.089  18.581   3
   4  14   0 174.420  15.150   6
  14  -4   0 189.076  17.609   6
   5  14   0 113.364  11.239   6
  -5 -14   0 77.2780 15.1393   3
  14  -5   0 73.2353 13.1181   6
   5  14   0 70.8927 12.7827   1
   6  14   0 62.7063 10.0835   1
  14  -6   0 65.6817 13.3593   6
  14  -7   0 205.031  17.751   6
   7  14   0 188.763  15.754   1
  14  -8   0 422.701  26.669   6
  15   6   0 4.61631 9.00734   6
  -6  15   0 18.8008  9.9321   1
  -5  15   0 146.003  15.289   1
  15   5   0 170.151  16.878   6
  -4  15   0 2.50558 9.61384   1
  15   4   0 1.25058 9.89641   6
  -3  15   0 17.6475  9.8780   1
  15   3   0 18.1372 11.2598   6
  15   2   0 25.0139 11.6329   6
  -2  15   0 24.3945 10.3929   1
  -1  15   0 138.632  13.428   1
  15   1   0 131.350  14.326   6
   0  15   0  7.5232 10.0856   1
  15   0   0  3.6891 11.2139   6
  -1 -15   0 96.6395 15.8640   3
   1  15   0 128.519  14.485   1
  15  -1   0 146.919  15.708   6
  -2 -15   0 8.61679 9.26664   3
   2  15   0 27.1143 10.4947   1
  15  -2   0 16.5004  9.1304   6
  15  -3   0 20.1303 11.2108   6
  -3 -15   0 12.1784  9.3309   3
   3  15   0 21.4408 10.3052   1
   4  15   0  9.4101 10.3373   1
  15  -4   0  3.8558 10.5477   6
  15  -5   0 146.357  14.472   6
  15  -6   0 -2.3645  9.7187   6
  16   3   0 5.32422 7.78415   6
  -2  16   0 4.22203 9.86654   1
  -1  16   0 74.3350 12.3729   1
   0  16   0 327.669  23.274   1
   1  16   0 69.5800 12.5964   1
  16  -2   0 2.57808 9.61732   6
  16  -3   0 6.60436 8.70187   6
   0  -1  -1 -0.1858  0.7837   2
   0   1  -1 0.34341 0.80270   2
   1   0  -1 0.54896 0.44211   4
   1   0  -1 0.68103 0.43566   4
  -1   0   1 0.97624 0.64301   1
   0  -1   1 1.20508 0.42517   4
   0   1   1 0.48552 0.43608   4
  -1   0   1 0.47857 0.57743   4
   0  -1   1 -0.2049  0.3403   4
  -1   1  -1 -1.3468  1.1663   2
  -1  -1  -1 0.02311 0.79381   3
   1   1  -1 -0.3386  0.7041   4
  -1   1  -1 -0.0488  0.3389   4
   1  -1  -1 0.22419 0.74054   4
  -1  -1  -1 -1.7945  0.9813   2
  -1   1  -1 0.24180 0.36105   4
   1   1  -1 1.07265 0.64401   4
  -1   1   1 1.41403 0.88844   1
   1  -1   1 0.02032 0.50006   4
  -1   1   1 -0.5984  0.7980   5
  -1  -1   1 0.07135 0.73739   5
   1   1   1 1.39707 0.56553   4
   1  -1   1 0.72142 0.59769   4
  -1   1   1 -0.9198  0.6775   5
  -1   1   1 0.28810 0.59491   4
  -1  -1   1 0.27937 0.75422   4
   1  -1   1 0.75075 1.40890   3
  -1  -1   1 -0.1853  0.8674   4
  -1   2  -1 3921.95  143.55   4
   1  -2  -1 4097.33  144.48   4
   2   1  -1 3823.45  179.51   5
   1  -2  -1 4231.12  179.64   5
  -2  -1  -1 4333.50  176.63   2
   2   1  -1 4035.92  143.30   4
   1  -2  -1 3992.57  179.39   5
  -2  -1  -1 4042.47  143.39   4
  -1   2  -1 3729.63  143.82   4
  -1   2  -1 3781.00  155.40   1
   2   1  -1 3780.14  178.98   5
   2   1  -1 4057.95  143.30   4
   1  -2  -1 3804.90  201.63   6
  -2  -1   1 4030.68  143.37   4
  -1   2   1 3989.14  143.40   4
   1  -2   1 4246.77  143.38   4
  -2  -1   1 4222.16  142.86   4
   1  -2   1 4192.85  143.31   4
   1  -2   1 3906.64  178.54   5
  -1   2   1 4045.96  154.95   1
  -1   2   1 3893.45  178.25   5
  -2  -1   1 3897.92  177.60   5
   1  -2   1 4276.75  186.26   3
  -2  -1   1 4025.13  155.15   1
   2   1   1 4181.95  143.13   4
   2   1   1 3802.26  178.19   5
   2   0  -1 12.4480  1.2697   4
   0   2  -1 15.7199  1.2599   5
   0   2  -1 10.5576  1.4019   1
  -2   0  -1 13.6687  1.0188   4
   0   2  -1 11.0988  1.2854   4
   0  -2  -1 11.6303  2.8611   3
   0  -2  -1 11.2823  1.1071   5
   2   0  -1 14.5150  1.8390   5
   2   0  -1 12.7618  1.4542   6
   0   2  -1 10.9392  1.1675   4
  -2   0  -1 13.9185  1.5759   2
   0  -2  -1 12.5301  1.1256   5
   0  -2  -1 12.0148  1.3808   4
   0   2  -1 14.1281  1.1286   5
   0   2   1 11.0433  1.7393   5
   0   2   1 13.3318  1.6514   1
  -2   0   1 14.5988  2.0088   5
  -2   0   1 14.7844  2.1050   5
   0   2   1 11.8684  1.2196   4
  -2   0   1 10.7160  1.6301   1
   0  -2   1 10.7984  2.1530   3
   2   0   1 13.1071  1.2291   4
  -2   0   1 9.18258 1.50099   4
   0  -2   1 11.8038  1.4194   5
   0  -2   1 11.9474  1.4344   4
   0  -2   1 11.2149  1.0981   4
   0   2   1 12.2538  1.3779   4
  -1  -2  -1 3976.35  142.62   4
  -1  -2  -1 3938.41  141.72   4
  -1  -2  -1 3939.91  176.28   5
   1   2  -1 4025.05  178.13   5
  -1  -2  -1 3702.14  186.14   3
   1   2  -1 4089.99  174.14   2
   1   2  -1 3991.15  177.54   5
   1   2  -1 4015.14  153.58   1
  -2   1  -1 4064.16  142.27   4
   2  -1  -1 3953.35  140.17   4
   2  -1  -1 4034.85  177.09   5
   2  -1  -1 4033.35  178.30   5
  -2   1  -1 4072.92  153.74   1
  -1  -2  -1 3450.39  176.22   5
  -2   1  -1 4232.19  141.53   4
   1   2  -1 4084.39  142.78   4
   1   2  -1 4048.03  142.84   4
   2  -1  -1 3918.07  200.77   6
  -2   1  -1 3959.28  174.34   2
  -2   1   1 3900.24  140.22   4
  -2   1   1 3703.45  152.49   1
   1   2   1 4061.58  140.97   4
   2  -1   1 4302.53  141.17   4
  -1  -2   1 3868.89  176.63   5
  -1  -2   1 4140.90  141.31   4
   1   2   1 4054.99  142.30   4
   2  -1   1 3649.83  183.97   3
  -2   1   1 4028.22  175.90   5
   1   2   1 3961.25  177.24   5
   2  -1   1 3873.07  176.53   5
  -1  -2   1 4399.45  142.87   4
  -2   1   1 3746.43  175.84   5
   2   2  -1 0.94885 1.74803   5
   2  -2  -1 0.09342 1.51096   4
   2   2  -1 7.17772 1.13367   4
  -2  -2  -1 -0.3367  1.1910   3
  -2   2  -1 1.50687 1.07600   4
  -2   2  -1 -0.6708  0.9506   5
  -2  -2  -1 0.04077 0.76868   5
  -2   2  -1 0.11196 1.16488   4
  -2   2  -1 -0.3370  0.7992   5
   2   2  -1 2.30247 1.84052   6
   2  -2  -1 0.35492 1.84635   5
   2   2  -1 1.33005 1.58437   5
   2   2  -1 2.39055 1.48205   4
   2  -2  -1 0.82553 1.59901   5
   2  -2  -1 0.20216 1.60231   6
  -2   2  -1 4.40802 1.53839   1
  -2  -2  -1 1.64970 1.00950   4
  -2  -2  -1 -0.2357  0.9869   5
  -2   2   1 0.73497 1.53897   4
   2  -2   1 5.37425 2.70782   3
   2   2   1 -1.9851  1.0816   4
   2  -2   1 1.11862 1.15029   5
   2   2   1 -0.4940  1.0231   4
  -2   2   1 2.62684 2.07104   5
  -2  -2   1 0.45673 0.93361   4
  -2  -2   1 -0.6319  1.4690   5
  -2   2   1 1.09186 1.54917   1
  -2   2   1 0.20326 1.50046   5
   2   2   1 1.06945 1.55043   5
   2  -2   1 -0.6176  1.3395   4
  -2  -2   1 0.02667 1.57717   4
  -3  -2  -1 189.468   8.854   5
  -3  -2  -1 148.912   9.291   6
  -2   3  -1 176.985   8.211   1
  -2   3  -1 183.692   7.514   4
  -2   3  -1 191.633   8.995   5
   2  -3  -1 172.617   9.389   5
   3   2  -1 184.236   9.522   5
  -3  -2  -1 177.906   7.178   4
   2  -3  -1 171.432   7.621   4
  -2   3  -1 176.081   7.311   4
   2  -3  -1 178.591   9.537   5
  -3  -2  -1 180.885   8.622   5
   3   2  -1 180.217  10.167   6
  -3  -2  -1 166.322   9.252   6
   3   2  -1 173.261   9.426   5
  -2   3  -1 180.765   9.187   5
  -2   3  -1 171.846   9.393   6
  -2   3  -1 183.313   9.509   6
   3   2  -1 186.428   7.364   4
   2  -3  -1 182.532  10.296   6
   2  -3   1 169.453   9.084   5
  -2   3   1 169.034   8.249   1
  -2   3   1 172.545   9.546   5
   3   2   1 173.313   7.365   4
  -2   3   1 174.812   7.677   4
   2  -3   1 170.826  11.026   3
  -2   3   1 163.038   9.140   5
  -3  -2   1 184.033   7.391   4
   3   2   1 177.040   9.224   5
  -3  -2   1 171.284   9.218   5
   2  -3   1 174.194   7.570   4
  -3  -2   1 164.020   9.473   5
  -1   3  -1 38.7803  2.8867   4
  -1   3  -1 43.7297  3.1115   5
  -3  -1  -1 41.9411  2.6853   5
  -1   3  -1 41.5906  3.1781   1
   3   1  -1 46.2762  4.0090   5
   3   1  -1 42.3249  3.4416   5
   3   1  -1 49.7835  4.0939   6
  -3  -1  -1 49.5965  2.8804   5
  -1   3  -1 43.7330  3.6471   5
  -1   3  -1 41.6968  3.0095   6
   3   1  -1 38.3041  2.9495   4
   1  -3  -1 39.2661  3.5616   5
  -3  -1  -1 39.6343  2.8009   2
   1  -3  -1 38.8942  3.8018   6
  -1   3  -1 40.3518  2.6508   4
   1  -3  -1 45.9509  3.0819   4
   1  -3  -1 46.1305  3.3394   5
  -1   3  -1 47.5726  3.0855   6
  -3  -1  -1 41.9401  2.5068   4
  -3  -1   1 41.0906  3.3914   5
   1  -3   1 40.6461  2.9694   5
   1  -3   1 41.2226  2.8559   4
   1  -3   1 51.7653  4.9967   3
   3   1   1 39.2769  3.3082   5
   3   1   1 41.3413  2.8042   4
  -1   3   1 38.0243  3.1868   1
  -1   3   1 39.9910  3.3184   5
   1  -3   1 44.8198  3.1403   4
  -1   3   1 43.9017  3.1222   4
  -3  -1   1 38.7906  3.6138   5
  -3  -1   1 37.5389  3.2149   1
  -3  -1   1 45.6904  3.1394   4
   0   3  -1 -0.7606  1.2155   6
   3   0  -1 0.53837 1.27324   5
   0  -3  -1 1.11508 2.89522   3
   3   0  -1 2.53183 1.13121   4
  -3   0  -1 -0.1042  0.6714   4
   0  -3  -1 1.90607 1.51404   6
   3   0  -1 -0.6448  1.7617   6
   0   3  -1 -0.7709  1.2651   4
   0   3  -1 3.27268 1.70726   5
   0  -3  -1 2.13679 1.42525   5
  -3   0  -1 0.00753 0.70845   5
   0   3  -1 0.12599 1.16937   5
   0  -3  -1 0.86392 1.44861   4
  -3   0  -1 3.03290 1.27083   2
   0   3  -1 -0.7745  0.7475   4
   3   0  -1 8.67446 1.82123   5
   0   3  -1 -0.6354  1.3011   1
   3   0   1 1.61501 1.30574   5
   0  -3   1 -0.2021  1.3277   5
  -3   0   1 -1.6617  1.6392   5
   0   3   1 -0.2858  1.0377   1
   0  -3   1 2.52471 2.76702   3
   3   0   1 0.55828 1.17713   4
   0   3   1 -2.1786  1.2171   4
   0  -3   1 -0.1021  0.8552   4
  -3   0   1 -0.7640  1.9570   5
  -3   0   1 -0.4829  1.5731   1
  -3   0   1 1.15969 1.08944   4
   0   3   1 -0.4062  0.9975   4
   0   3   1 -0.3969  1.9446   5
   0  -3   1 2.08077 1.54877   4
  -1  -3  -1 45.9087  3.6287   5
  -1  -3  -1 40.5878  3.2268   5
   1   3  -1 44.6853  3.4643   5
  -3   1  -1 46.1345  2.6764   4
   1   3  -1 48.2982  3.4653   6
   3  -1  -1 45.8648  3.9794   5
  -3   1  -1 45.4100  2.8160   5
   3  -1  -1 41.5611  3.3501   5
   1   3  -1 43.1978  2.5821   4
   3  -1  -1 35.1166  3.9010   6
  -1  -3  -1 40.5192  2.9126   4
   1   3  -1 45.2952  3.3327   1
   1   3  -1 42.7653  2.7998   4
   3  -1  -1 42.2711  2.9964   4
  -3   1  -1 40.8671  2.7566   5
  -3   1  -1 38.6316  3.5859   2
  -1  -3  -1 39.9333  3.5621   6
   1   3  -1 43.3761  3.6114   5
  -1  -3  -1 43.7177  2.5133   4
  -1  -3  -1 42.4230  4.2743   3
  -3   1  -1 42.5875  3.0509   1
  -3   1   1 40.3575  2.8194   4
  -1  -3   1 46.2051  2.9033   4
   1   3   1 39.6241  3.2653   5
   3  -1   1 38.7373  2.9444   5
   1   3   1 41.8951  3.1093   4
  -3   1   1 45.2379  3.2197   5
  -3   1   1 40.1784  2.9907   1
   1   3   1 43.9039  2.8868   4
   3  -1   1 38.3390  2.5122   4
  -3   1   1 46.9414  4.1437   5
  -1  -3   1 42.5583  3.3620   5
  -1  -3   1 44.7853  2.7918   4
   2   3  -1 188.696  10.155   6
   2   3  -1 172.696   9.379   5
   3  -2  -1 182.865   7.588   4
  -3   2  -1 197.288   7.487   4
  -2  -3  -1 181.362   7.318   4
   2   3  -1 182.579   7.492   4
  -2  -3  -1 191.091   9.165   5
   3  -2  -1 172.904   9.427   5
  -3   2  -1 197.199   9.049   5
  -2  -3  -1 177.207   9.741   6
  -2  -3  -1 148.410   9.973   6
   3  -2  -1 163.214  10.240   6
  -3   2  -1 183.320   8.919   5
  -2  -3  -1 169.094   8.806   5
  -2  -3  -1 184.623   9.879   3
   2   3  -1 198.535   9.316   5
   3  -2  -1 183.008   9.333   5
  -3   2  -1 176.109   8.007   1
  -2  -3   1 174.235   9.326   5
   3  -2   1 185.823   7.473   4
  -3   2   1 165.371   8.411   1
  -3   2   1 168.104   9.233   5
  -3   2   1 179.124   7.862   4
   2   3   1 171.352   7.412   4
  -2  -3   1 175.312   7.357   4
   2   3   1 168.682   9.419   5
   3  -2   1 164.414  10.159   3
  -3   2   1 167.635  10.819   6
  -2  -3   1 173.301   7.652   4
   2   3   1 175.013   7.616   4
   3  -2   1 168.264   9.174   5
  -3  -3  -1 2.64962 1.92883   3
  -3   3  -1 -0.0752  2.0894   1
  -3   3  -1 0.74239 1.15973   4
  -3   3  -1 2.85769 2.14777   6
   3  -3  -1 1.80146 2.66688   6
   3  -3  -1 3.28942 2.74244   5
  -3   3  -1 -0.3544  1.1652   4
   3   3  -1 -0.0203  0.9807   2
   3   3  -1 -2.2384  2.0758   5
   3   3  -1 0.28813 1.62232   4
  -3  -3  -1 -5.5846  2.5705   6
   3  -3  -1 1.61761 1.99964   4
  -3   3  -1 0.95914 2.00524   5
  -3  -3  -1 2.22487 1.39904   4
   3   3  -1 -1.9065  2.5396   5
  -3   3  -1 -2.4154  1.5113   5
   3   3  -1 2.29458 1.65163   4
   3   3  -1 -1.6468  2.2445   6
  -3  -3  -1 1.58815 2.20154   6
   3  -3  -1 2.42134 1.70711   5
  -3  -3  -1 -0.8671  1.5226   5
  -3  -3  -1 0.30132 1.56785   5
  -3   3  -1 0.27410 1.66929   6
  -3  -3   1 -2.9237  3.3120   6
  -3   3   1 -0.5566  1.3118   5
  -3  -3   1 0.49725 1.21011   4
  -3   3   1 0.97146 2.10114   4
   3   3   1 0.37413 2.39084   5
  -3   3   1 2.20884 2.21066   1
  -3  -3   1 -2.7904  1.8228   5
   3  -3   1 -0.2040  2.5430   3
  -3   3   1 2.78474 3.52777   6
   3  -3   1 -0.7813  1.8175   4
   3  -3   1 0.43496 1.25576   5
   3   3   1 -0.1291  1.1369   4
  -3  -3   1 0.29112 2.07522   4
   3   3   1 0.68021 2.02810   4
   4   3  -1 215.043   9.086   4
  -3   4  -1 216.409   9.172   4
  -3   4  -1 196.880  11.921   6
   4   3  -1 203.677  11.808   5
   4   3  -1 206.621  12.593   6
   3  -4  -1 205.901  11.476   5
  -3   4  -1 215.595  11.721   5
  -4  -3  -1 211.897   8.912   4
   3  -4  -1 216.996  12.131   5
  -4  -3  -1 231.950  11.212   5
  -3   4  -1 185.449  12.311   6
   4   3  -1 223.421   9.507   4
  -3   4  -1 209.237  11.402   5
  -4  -3  -1 194.889  12.307   6
  -4  -3  -1 226.040  12.188   6
   3  -4  -1 222.502   9.287   4
  -3   4  -1 214.660   9.340   4
   3  -4  -1 216.703  13.025   6
  -4  -3  -1 219.626  10.803   5
  -3   4  -1 209.465  10.292   1
   4   3  -1 235.257  11.988   5
   4   3   1 213.164  12.782   6
   3  -4   1 202.711  12.455   6
   4   3   1 209.031   9.497   4
   4   3   1 216.784   9.045   4
  -4  -3   1 201.747  11.335   5
  -3   4   1 219.427   9.688   4
   4   3   1 209.924  11.380   5
  -3   4   1 206.591  11.631   5
   3  -4   1 209.834  11.447   5
   3  -4   1 210.094   9.205   4
  -4  -3   1 217.481  13.936   6
  -3   4   1 197.367  13.759   6
  -4  -3   1 211.076  11.410   5
  -3   4   1 209.657  10.508   1
  -4  -3   1 217.486   9.120   4
   3  -4   1 207.506  14.069   3
  -3   4   1 205.101  11.654   5
   2  -4  -1 81.9683  4.5336   4
  -4  -2  -1 77.8508  4.2721   4
   4   2  -1 79.7265  6.3864   6
   4   2  -1 85.3695  5.7028   5
   2  -4  -1 79.2408  5.5697   5
  -2   4  -1 78.6947  5.5011   6
  -2   4  -1 79.0966  5.4052   1
  -4  -2  -1 83.6198  5.0636   5
  -2   4  -1 89.6283  5.7430   5
  -2   4  -1 79.4257  4.5465   4
   4   2  -1 89.3979  6.2473   5
   2  -4  -1 92.3759  6.8952   6
  -4  -2  -1 75.0022  5.7698   6
   4   2  -1 87.2201  4.8440   4
  -2   4  -1 82.5504  6.1940   6
   4   2  -1 86.0098  5.0338   4
  -2   4  -1 80.4252  4.7736   4
  -2   4  -1 80.9330  6.2650   5
  -4  -2  -1 81.7785  5.8792   6
  -4  -2  -1 88.7956  5.3204   5
   2  -4  -1 84.1796  6.5182   5
  -2   4   1 75.2457  7.6962   6
   4   2   1 76.8895  5.7738   5
   2  -4   1 78.0904  4.9441   4
   4   2   1 75.9715  4.6088   4
  -4  -2   1 77.7578  6.0311   5
   2  -4   1 81.5035  5.5483   5
  -4  -2   1 81.6203  4.4546   4
  -2   4   1 81.9322  5.4378   1
  -4  -2   1 80.6378  7.9700   6
  -2   4   1 80.5694  5.4719   5
  -2   4   1 84.1800  4.5745   4
   2  -4   1 73.0654  7.1467   3
  -1   4  -1 5581.18  187.98   4
   1  -4  -1 5744.98  186.42   4
   4   1  -1 5063.44  235.76   5
  -4  -1  -1 4428.98  233.03   5
  -1   4  -1 5549.70  202.81   1
  -4  -1  -1 5400.54  231.58   2
   1  -4  -1 4864.40  245.61   3
  -1   4  -1 5201.35  233.57   5
   1  -4  -1 5375.00  233.65   5
   4   1  -1 5413.08  186.36   4
  -1   4  -1 5253.22  235.69   5
   4   1  -1 5464.77  186.39   4
   4   1  -1 5120.55  233.84   5
  -4  -1  -1 4814.38  187.34   4
  -1   4  -1 5462.51  188.09   4
   1  -4  -1 5314.54  265.98   6
  -4  -1  -1 4652.43  235.33   5
  -1   4  -1 4816.53  266.11   6
   1  -4  -1 5406.17  233.85   5
   1  -4   1 5586.50  186.45   4
  -4  -1   1 5629.00  186.48   4
  -1   4   1 5414.87  186.47   4
   4   1   1 5240.95  233.64   5
  -1   4   1 5031.65  264.86   6
  -1   4   1 5432.03  233.85   5
   1  -4   1 5171.17  233.69   5
  -4  -1   1 5045.93  264.71   6
   1  -4   1 5683.21  245.70   3
  -1   4   1 5336.79  202.86   1
   1  -4   1 5694.51  186.43   4
   4   1   1 5251.82  187.97   4
  -4  -1   1 5038.68  233.66   5
  -1   4   1 5664.99  186.42   4
  -4  -1   1 5139.37  202.88   1
   0  -4  -1 298.467  16.296   6
   0   4  -1 298.972  11.686   4
   0  -4  -1 288.256  14.514   5
   0   4  -1 274.220  12.736   1
  -4   0  -1 320.914  14.140   5
   4   0  -1 302.585  11.910   4
  -4   0  -1 306.488  14.213   5
   4   0  -1 289.352  14.973   5
   0  -4  -1 275.934  16.161   3
   0   4  -1 319.372  14.689   5
   0   4  -1 303.045  15.976   6
   4   0  -1 287.897  14.580   5
  -4   0  -1 300.641  11.477   4
  -4   0  -1 280.118  14.071   2
   0   4  -1 299.308  11.621   4
   0   4  -1 283.488  14.626   5
   4   0  -1 307.275  16.285   6
   0  -4  -1 288.819  11.747   4
   0  -4  -1 294.659  14.712   5
  -4   0   1 287.163  16.457   6
   4   0   1 308.165  11.633   4
   0  -4   1 296.708  11.873   4
   0  -4   1 320.581  16.404   3
   0   4   1 287.447  14.807   5
   0   4   1 308.062  11.725   4
  -4   0   1 279.009  14.595   5
   0   4   1 285.631  12.755   1
   0  -4   1 299.252  11.738   4
   0   4   1 295.829  11.663   4
   4   0   1 288.046  14.546   5
  -4   0   1 272.344  12.934   1
   0  -4   1 288.996  14.482   5
  -4   0   1 304.022  11.990   4
   1   4  -1 5109.73  235.65   5
  -1  -4  -1 5130.57  269.52   6
  -4   1  -1 5496.16  233.53   2
   4  -1  -1 5626.21  188.15   4
  -4   1  -1 5510.37  204.48   1
  -1  -4  -1 5070.21  247.12   3
  -1  -4  -1 5238.64  235.69   5
   1   4  -1 5422.52  204.58   1
   4  -1  -1 5371.13  236.03   5
  -1  -4  -1 5483.06  187.83   4
   1   4  -1 4760.82  268.84   6
   1   4  -1 5195.65  238.99   5
  -1  -4  -1 5336.54  235.38   5
   1   4  -1 5221.20  187.82   4
   4  -1  -1 5163.81  268.34   6
  -4   1  -1 4570.43  236.54   5
  -4   1  -1 5457.56  189.36   4
  -4   1  -1 5048.11  236.76   5
  -1  -4  -1 5343.33  187.86   4
   4  -1  -1 5304.73  238.08   5
   1   4   1 5198.88  235.76   5
   4  -1   1 5738.63  189.86   4
  -4   1   1 5164.68  266.95   6
  -4   1   1 5306.74  235.70   5
  -1  -4   1 5933.46  247.70   3
   1   4   1 5359.08  204.65   1
  -4   1   1 5357.25  204.70   1
  -1  -4   1 5141.22  235.72   5
   1   4   1 5418.75  189.83   4
  -4   1   1 5596.45  188.16   4
   4  -1   1 5190.45  235.65   5
  -1  -4   1 5320.69  189.85   4
  -1  -4   1 5597.22  267.48   6
   1   4   1 5516.88  189.90   4
  -1  -4   1 5467.82  188.00   4
   4  -2  -1 82.7393  6.5882   5
   2   4  -1 83.5954  5.6153   1
  -2  -4  -1 82.8594  4.2216   4
   4  -2  -1 78.7945  5.7268   5
   2   4  -1 85.4572  5.9083   5
  -2  -4  -1 81.3597  6.7672   3
  -4   2  -1 82.0680  5.3435   5
  -2  -4  -1 86.8713  5.6676   5
  -4   2  -1 63.1369  5.2196   6
  -4   2  -1 79.1701  5.1440   6
   2   4  -1 89.6516  6.3053   5
  -4   2  -1 82.8396  5.1730   1
  -2  -4  -1 78.9048  5.6656   5
  -4   2  -1 87.7820  4.3844   4
  -4   2  -1 88.8956  5.8218   5
  -2  -4  -1 86.5984  6.6194   6
   2   4  -1 79.3408  4.2954   4
  -2  -4  -1 86.0679  4.3988   4
   2   4  -1 87.0813  6.2970   6
   4  -2  -1 87.5987  5.2060   4
   4  -2  -1 76.7857  6.5546   6
  -2  -4   1 80.3612  4.3701   4
  -4   2   1 87.3050  7.6039   6
  -4   2   1 80.3406  5.1813   4
  -4   2   1 73.5463  5.0595   1
  -4   2   1 86.0516  7.2236   5
   4  -2   1 84.5178  4.8558   4
  -4   2   1 85.6878  5.7864   5
   2   4   1 95.5150  5.1957   4
   2   4   1 79.2696  4.3048   4
  -2  -4   1 83.3227  7.3978   6
  -2  -4   1 79.3722  5.0573   4
   4  -2   1 77.5183  5.3176   5
  -2  -4   1 91.0696  6.4419   5
   2   4   1 83.0023  5.7080   5
  -3  -4  -1 224.124  11.516   5
   4  -3  -1 214.218  11.772   5
  -3  -4  -1 221.760  13.236   6
   3   4  -1 229.430  12.904   6
  -3  -4  -1 224.625  12.063   3
  -3  -4  -1 218.966  12.728   6
   4  -3  -1 218.559   9.731   4
  -3  -4  -1 218.338   8.986   4
   3   4  -1 221.408  11.854   5
  -4   3  -1 214.155   9.313   4
   4  -3  -1 218.931  13.118   6
  -4   3  -1 209.887  11.919   6
  -3  -4  -1 221.593  11.245   5
   4  -3  -1 238.371  12.539   5
  -4   3  -1 203.886  11.301   5
   3   4  -1 206.074   9.421   4
  -4   3  -1 216.453  11.612   5
   3   4  -1 213.349   9.371   4
   3   4  -1 223.083  12.145   5
  -4   3  -1 220.116   9.412   4
  -4   3  -1 207.367  10.376   1
   3   4   1 212.199  13.196   6
   3   4   1 222.311   9.669   4
  -3  -4   1 204.431  13.761   6
  -4   3   1 217.567  10.835   1
  -3  -4   1 208.958  11.849   5
   3   4   1 224.294   9.230   4
   4  -3   1 185.816  13.253   6
  -4   3   1 214.192  12.444   5
  -4   3   1 217.005  11.784   5
  -4   3   1 226.124   9.887   4
   4  -3   1 207.560  11.417   5
  -3  -4   1 208.923   9.351   4
  -3  -4   1 205.628   9.290   4
   4  -3   1 225.674   9.422   4
   3   4   1 216.945  11.653   5
  -4   3   1 202.024  13.853   6
   4  -4  -1 0.12844 3.68635   5
  -4   4  -1 -0.7690  2.2374   4
  -4   4  -1 -2.5481  3.3050   6
  -4  -4  -1 0.14001 1.80997   4
   4  -4  -1 -4.8322  3.6813   6
  -4  -4  -1 -1.2870  2.0824   5
  -4  -4  -1 -1.5375  2.9680   6
   4   4  -1 -3.2357  3.5468   5
  -4   4  -1 0.71175 3.06849   5
   4   4  -1 3.37121 2.34633   4
   4   4  -1 -1.0037  2.1161   5
  -4   4  -1 1.08889 2.89177   6
  -4   4  -1 -1.2774  1.4035   4
   4   4  -1 2.27129 2.66888   4
  -4  -4  -1 0.85104 2.72757   3
  -4  -4  -1 3.15725 2.36282   5
   4  -4  -1 -3.0254  2.6382   4
  -4  -4  -1 1.29862 4.41744   6
  -4   4  -1 -3.0201  2.7500   1
   4   4  -1 0.42564 1.08518   2
  -4   4  -1 0.61421 2.47286   5
   4  -4  -1 -4.0636  3.0620   5
   4   4  -1 0.43020 3.42832   6
  -4   4   1 0.31139 4.76100   6
  -4  -4   1 3.39371 2.90878   4
  -4   4   1 1.35943 2.69697   4
  -4   4   1 -4.3972  2.9209   1
  -4  -4   1 -2.9689  2.4392   5
  -4   4   1 5.16803 3.90018   5
   4  -4   1 -0.3593  2.4004   5
   4  -4   1 -1.9381  1.6774   4
   4  -4   1 2.25008 4.99229   3
   4   4   1 1.96320 3.48656   6
  -4  -4   1 -2.6980  3.4826   5
  -4   4   1 -0.3656  1.8656   5
   4   4   1 -3.0161  2.6921   4
  -4  -4   1 -3.4652  4.9469   6
   4  -4   1 -1.1797  3.4156   6
   4   4   1 -2.2388  2.1099   4
  -4  -4   1 -0.2944  2.1256   4
  -5  -4  -1 1557.51   79.90   6
  -5  -4  -1 1521.44   56.83   4
  -4   5  -1 1550.31   57.25   4
   4  -5  -1 1662.13   72.24   5
   5   4  -1 1594.23   80.71   6
  -5  -4  -1 1621.57   71.02   5
  -4   5  -1 1541.90   71.54   5
  -5  -4  -1 1707.19   74.78   3
  -4   5  -1 1586.15   62.48   1
   4  -5  -1 1530.78   57.33   4
   4  -5  -1 1609.02   72.19   5
  -4   5  -1 1534.40   57.17   4
   5   4  -1 1604.37   72.02   5
   5   4  -1 1579.39   57.24   4
  -4   5  -1 1634.47   71.76   5
   5   4  -1 1584.56   71.90   5
  -4   5  -1 1557.30   79.79   6
   5   4  -1 1635.43   57.41   4
  -5  -4  -1 1612.85   71.41   5
  -5  -4  -1 1470.79   80.18   6
   4  -5  -1 1556.79   80.84   6
  -4   5   1 1593.33   81.24   6
  -5  -4   1 1576.44   71.98   5
   5   4   1 1528.09   80.74   6
   4  -5   1 1454.81   76.62   3
  -5  -4   1 1583.74   81.11   6
  -5  -4   1 1501.54   71.74   5
  -4   5   1 1513.19   72.18   5
   4  -5   1 1623.61   57.52   4
  -4   5   1 1544.82   71.89   5
   4  -5   1 1513.77   80.77   6
  -4   5   1 1560.92   62.66   1
   5   4   1 1615.63   57.40   4
   5   4   1 1592.07   57.32   4
  -4   5   1 1528.53   57.43   4
  -5  -4   1 1605.99   57.24   4
  -3   5  -1 245.018  10.800   4
  -5  -3  -1 278.545  13.412   5
   5   3  -1 258.008  11.079   4
  -3   5  -1 244.872  10.992   4
   3  -5  -1 246.458  11.261   4
  -5  -3  -1 260.067  12.889   5
  -5  -3  -1 250.128  14.621   6
   5   3  -1 258.129  13.732   5
  -3   5  -1 280.758  14.219   5
  -3   5  -1 197.698  14.792   6
   3  -5  -1 247.153  13.786   5
   5   3  -1 267.838  15.175   6
   5   3  -1 260.143  14.247   5
  -3   5  -1 248.323  14.334   6
  -3   5  -1 265.843  13.816   5
   3  -5  -1 242.752  15.483   6
  -3   5  -1 246.855  12.241   1
   5   3  -1 248.350  11.156   4
   3  -5  -1 259.145  14.193   5
  -5  -3  -1 236.308  10.298   4
  -5  -3  -1 259.707  14.492   6
  -3   5   1 258.634  13.857   5
  -5  -3   1 237.494  13.770   5
  -3   5   1 240.821  11.983   1
  -3   5   1 266.468  16.356   6
   3  -5   1 243.583  15.807   3
   3  -5   1 244.648  11.240   4
   5   3   1 239.754  10.827   4
   5   3   1 257.480  13.565   5
  -3   5   1 258.323  11.033   4
  -5  -3   1 235.681  13.482   5
  -5  -3   1 260.517  16.478   6
  -5  -3   1 246.627  10.715   4
   5   3   1 235.455  14.991   6
  -3   5   1 247.754  14.282   5
  -3   5   1 257.700  11.233   4
   3  -5   1 255.866  15.375   6
   5   3   1 243.040  10.915   4
  -2   5  -1 853.092  33.731   1
  -2   5  -1 837.175  42.587   6
  -5  -2  -1 826.523  37.811   5
   2  -5  -1 851.415  43.339   6
   5   2  -1 856.283  30.952   4
   5   2  -1 835.337  43.183   6
   2  -5  -1 833.182  38.731   5
   5   2  -1 820.552  30.809   4
  -2   5  -1 854.872  30.853   4
   5   2  -1 812.662  38.651   5
  -2   5  -1 811.683  30.678   4
   2  -5  -1 814.683  30.780   4
  -5  -2  -1 907.215  38.275   5
  -5  -2  -1 716.409  42.317   6
  -2   5  -1 871.118  38.644   5
  -5  -2  -1 843.540  42.492   6
   2  -5  -1 844.093  38.677   5
   5   2  -1 824.039  38.644   5
  -2   5  -1 779.718  43.025   6
  -2   5  -1 856.628  38.666   5
  -5  -2  -1 841.308  30.486   4
   5   2   1 849.287  30.808   4
   5   2   1 833.472  38.632   5
  -5  -2   1 845.894  38.914   5
  -2   5   1 828.798  30.882   4
  -2   5   1 789.741  38.716   5
  -2   5   1 846.946  30.968   4
  -2   5   1 791.973  38.636   5
  -5  -2   1 814.156  43.738   6
  -2   5   1 826.375  43.911   6
   2  -5   1 816.233  38.509   5
   2  -5   1 816.140  30.816   4
   2  -5   1 796.017  41.952   3
   5   2   1 828.874  43.109   6
   2  -5   1 814.921  43.152   6
  -2   5   1 790.242  33.665   1
  -5  -2   1 830.771  30.775   4
  -5  -2   1 806.620  38.420   5
  -1   5  -1 100.925   5.483   4
  -5  -1  -1 96.4376  5.4849   2
  -1   5  -1 101.828   8.257   6
  -1   5  -1 101.467   7.005   5
  -1   5  -1 100.436   6.789   5
   1  -5  -1 107.879   9.012   6
  -5  -1  -1 94.6264  6.7693   6
  -1   5  -1 107.715   5.673   4
   5   1  -1 97.0676  7.4201   5
  -5  -1  -1 89.8225  6.4851   6
   1  -5  -1 109.643   7.408   5
  -5  -1  -1 107.765   6.524   5
   5   1  -1 98.9649  7.9308   6
   1  -5  -1 101.127   9.705   3
   1  -5  -1 95.9642  6.9094   5
  -1   5  -1 106.745   5.927   1
  -5  -1  -1 92.8825  4.9079   4
   5   1  -1 99.7899  5.3476   4
   1  -5  -1 98.4918  5.9154   4
   5   1  -1 110.017   7.106   5
  -5  -1  -1 109.946   6.480   5
  -1   5   1 109.722   5.504   4
  -5  -1   1 93.9640  7.9724   6
  -5  -1   1 107.813   7.438   5
  -1   5   1 104.202   6.523   1
  -1   5   1 99.5576  8.9839   6
   1  -5   1 97.8045  8.6072   3
   1  -5   1 97.5437  8.1368   6
  -5  -1   1 96.8079  7.0173   5
   5   1   1 97.7493  6.5218   5
  -5  -1   1 100.544   5.882   4
   1  -5   1 110.325   7.162   5
  -1   5   1 91.2386  6.4856   5
  -1   5   1 103.263   5.407   4
   1  -5   1 100.366   5.331   4
   5   1   1 102.345   5.270   4
   1  -5   1 108.259   5.538   4
  -5  -1   1 102.656   6.849   1
   5   0  -1 -2.8754  3.0854   6
  -5   0  -1 1.59716 1.38507   2
  -5   0  -1 0.27811 2.21952   5
   0  -5  -1 2.48283 4.40325   3
   0   5  -1 0.66167 2.44810   1
   0   5  -1 -1.4992  2.9153   6
   5   0  -1 -0.4250  3.1601   5
  -5   0  -1 -2.0012  1.5895   4
   5   0  -1 0.66657 2.10146   5
   0  -5  -1 5.59291 4.12166   6
   0   5  -1 -0.1617  1.8086   4
   0   5  -1 0.28190 2.02476   5
   0   5  -1 -0.2326  1.6206   5
  -5   0  -1 -2.8071  2.0205   6
  -5   0  -1 -2.3328  1.6539   5
   0  -5  -1 -0.0323  2.3539   4
   5   0  -1 2.49950 2.25291   4
   0  -5  -1 -0.0245  1.5628   5
   0  -5  -1 0.44512 2.96909   5
   0   5  -1 -0.2604  1.2834   4
  -5   0  -1 -1.1461  1.8824   6
  -5   0   1 -3.9051  1.9048   5
   0   5   1 3.09099 2.48420   1
  -5   0   1 1.43837 1.75247   5
  -5   0   1 0.48511 2.22040   4
   5   0   1 3.36964 2.50457   5
  -5   0   1 -0.3824  2.6427   1
   0  -5   1 15.0720  2.8345   4
   0  -5   1 -1.5616  4.2553   3
   0   5   1 0.86687 1.64179   4
   0  -5   1 -1.1626  3.3705   6
   0  -5   1 2.86640 2.01047   4
   5   0   1 -2.2827  1.8641   4
   0   5   1 0.95995 1.49343   4
  -5   0   1 -0.1003  3.9873   6
   0   5   1 2.58319 2.75575   6
   5  -1  -1 101.918   5.522   4
  -1  -5  -1 92.9274  5.1771   4
  -5   1  -1 98.6652  5.4776   4
   1   5  -1 117.030   7.809   6
  -5   1  -1 110.822   6.966   5
  -1  -5  -1 107.344   7.962   6
   1   5  -1 100.315   7.450   5
   5  -1  -1 92.9271  7.9614   6
  -5   1  -1 102.274   6.524   2
  -5   1  -1 109.704   6.317   1
  -1  -5  -1 94.8983  5.2557   4
   1   5  -1 95.1678  5.8696   1
   5  -1  -1 91.7888  6.8919   5
  -1  -5  -1 92.6123  8.6540   3
  -1  -5  -1 100.545   7.316   5
   5  -1  -1 106.553   8.032   5
   1   5  -1 109.950   5.594   4
  -1  -5  -1 107.460   7.263   5
  -5   1  -1 100.321   6.565   6
   1   5  -1 116.412   7.344   5
  -5   1  -1 98.9809  6.3496   5
   1   5   1 93.4758  8.4817   6
  -5   1   1 91.8895  8.8013   6
   1   5   1 94.3606  6.0408   1
   5  -1   1 99.4511  6.5231   5
  -5   1   1 101.573   6.866   5
   1   5   1 97.8907  5.9251   4
  -1  -5   1 99.8514  8.6932   6
  -5   1   1 107.190   6.139   4
  -1  -5   1 98.4057  5.6306   4
  -5   1   1 108.429   6.848   1
   1   5   1 104.794   5.706   4
  -5   1   1 96.5445  7.0748   5
  -1  -5   1 103.242   5.553   4
  -1  -5   1 106.213   9.558   3
   5  -1   1 108.617   5.775   4
  -5   2  -1 835.362  34.043   1
  -2  -5  -1 877.060  43.869   6
   5  -2  -1 832.176  31.545   4
   5  -2  -1 858.291  39.382   5
   2   5  -1 831.935  31.143   4
   2   5  -1 889.979  43.927   6
  -2  -5  -1 878.684  39.170   5
   5  -2  -1 834.395  39.446   5
  -2  -5  -1 839.901  31.205   4
  -2  -5  -1 823.728  41.606   3
  -5   2  -1 871.407  38.912   5
   2   5  -1 895.208  39.440   5
  -5   2  -1 784.469  42.929   6
   2   5  -1 831.099  39.096   5
  -5   2  -1 864.227  31.155   4
  -2  -5  -1 837.642  31.074   4
  -2  -5  -1 851.471  38.828   5
  -5   2  -1 888.368  38.893   5
   2   5  -1 815.949  34.330   1
   5  -2  -1 843.314  43.972   6
  -2  -5   1 838.292  31.308   4
   5  -2   1 818.097  43.784   6
   5  -2   1 809.537  39.134   5
  -5   2   1 848.561  34.385   1
  -5   2   1 819.192  39.820   5
   2   5   1 873.533  31.288   4
  -2  -5   1 804.048  39.076   5
  -2  -5   1 819.911  31.232   4
   2   5   1 796.804  34.237   1
   2   5   1 830.356  44.202   6
  -5   2   1 842.254  44.394   6
  -2  -5   1 827.719  39.472   5
   2   5   1 837.585  31.357   4
   5  -2   1 833.214  31.302   4
  -5   2   1 848.669  31.486   4
  -5   2   1 815.797  39.067   5
  -2  -5   1 934.371  42.213   3
  -2  -5   1 793.014  44.248   6
  -5   3  -1 253.445  13.362   5
   3   5  -1 254.791  14.006   5
  -3  -5  -1 256.836  15.731   6
  -5   3  -1 230.581  14.098   6
  -3  -5  -1 257.291  10.568   4
  -3  -5  -1 260.290  14.491   3
   5  -3  -1 259.052  14.067   5
   3   5  -1 249.266  12.763   1
  -3  -5  -1 255.554  13.579   5
   5  -3  -1 253.016  13.915   5
   3   5  -1 257.205  11.002   4
   5  -3  -1 259.888  11.068   4
  -5   3  -1 263.478  11.074   4
   3   5  -1 265.966  14.115   5
  -3  -5  -1 245.453  13.430   5
  -5   3  -1 243.038  12.232   1
   5  -3  -1 266.036  15.505   6
  -5   3  -1 250.251  13.821   5
  -3  -5  -1 263.460  14.948   6
   3   5  -1 270.333  15.377   6
   3   5  -1 265.865  10.868   4
  -3  -5   1 255.641  15.475   6
  -3  -5   1 253.421  10.804   4
   5  -3   1 242.098  15.263   6
   3   5   1 247.483  10.986   4
   5  -3   1 251.355  11.261   4
  -3  -5   1 250.103  11.333   4
  -5   3   1 250.110  13.745   5
   5  -3   1 242.498  13.618   5
  -5   3   1 250.942  11.131   4
  -5   3   1 241.007  14.587   5
  -3  -5   1 269.508  15.365   3
  -5   3   1 237.185  15.389   6
  -5   3   1 246.644  12.618   1
   3   5   1 244.104  10.899   4
  -3  -5   1 247.531  13.706   5
   3   5   1 249.524  15.619   6
   4   5  -1 1621.30   71.91   5
  -4  -5  -1 1623.15   71.40   5
  -5   4  -1 1512.28   57.02   4
  -4  -5  -1 1623.36   74.96   3
  -4  -5  -1 1489.02   56.72   4
   4   5  -1 1668.77   80.62   6
  -5   4  -1 1629.68   71.37   5
   5  -4  -1 1606.88   72.05   5
  -5   4  -1 1563.41   71.38   5
  -5   4  -1 1568.39   57.07   4
   5  -4  -1 1610.77   80.62   6
  -5   4  -1 1590.67   62.46   1
   4   5  -1 1530.79   71.54   5
   4   5  -1 1509.09   69.83   2
   5  -4  -1 1600.43   71.99   5
  -4  -5  -1 1468.26   80.12   6
   5  -4  -1 1575.15   57.37   4
  -5   4  -1 1408.90   79.40   6
   4   5  -1 1610.60   57.19   4
  -4  -5  -1 1633.77   80.03   6
  -4  -5  -1 1593.80   70.94   5
   4   5  -1 1617.72   57.19   4
  -5   4   1 1569.07   72.12   5
   4   5   1 1518.87   80.65   6
  -4  -5   1 1499.96   71.55   5
   4   5   1 1594.25   57.17   4
  -5   4   1 1528.19   71.70   5
   5  -4   1 1522.09   80.64   6
  -4  -5   1 1542.43   80.84   6
  -5   4   1 1634.36   57.56   4
  -4  -5   1 1536.01   71.72   5
   5  -4   1 1564.74   57.26   4
   4   5   1 1583.52   57.13   4
  -4  -5   1 1571.33   57.25   4
  -4  -5   1 1590.35   57.08   4
  -5   4   1 1600.99   62.75   1
  -5   4   1 1534.82   81.10   6
  -5   5  -1 1.67578 2.80490   4
   5   5  -1 4.03235 3.29422   4
   5   5  -1 3.91572 4.45486   5
   5  -5  -1 -2.0611  4.0151   5
  -5   5  -1 1.31291 3.18394   6
   5   5  -1 2.39418 2.90063   5
  -5  -5  -1 -5.4133  4.4565   6
  -5  -5  -1 -1.7926  2.8881   5
  -5  -5  -1 0.05542 2.20148   4
   5   5  -1 -3.5622  4.2895   6
  -5   5  -1 4.80306 3.36650   5
  -5   5  -1 -0.7555  4.6199   6
  -5  -5  -1 -0.1371  3.4676   3
   5  -5  -1 1.64779 4.72223   5
   5  -5  -1 -4.1149  3.0420   4
   5  -5  -1 -5.0895  4.7874   6
  -5  -5  -1 1.32004 5.12488   6
  -5  -5  -1 3.03593 2.83609   5
  -5   5  -1 0.23804 3.57675   5
  -5   5  -1 -0.8580  1.7372   4
   5   5  -1 -1.2404  2.7314   4
  -5   5  -1 2.08549 3.79973   1
   5  -5   1 -2.7803  2.9902   4
  -5  -5   1 0.05831 6.25517   6
  -5   5   1 -5.2975  5.3200   6
  -5   5   1 -1.3871  4.2057   5
  -5   5   1 2.04373 3.99284   1
  -5  -5   1 0.84989 2.31484   5
   5  -5   1 0.94390 4.32870   6
   5   5   1 -1.1793  4.3392   6
   5   5   1 -2.3264  2.2402   4
  -5   5   1 -3.2445  3.1338   4
   5   5   1 1.64618 4.31527   5
  -5  -5   1 4.38043 2.68204   4
   5   5   1 0.54704 2.68069   4
   6   5  -1 358.013  19.731   5
   6   5  -1 340.896  15.690   4
  -6  -5  -1 401.679  18.789   5
  -6  -5  -1 332.296  20.775   6
   6   5  -1 387.234  21.864   6
  -5   6  -1 386.170  20.123   6
   5  -6  -1 345.181  15.619   4
  -5   6  -1 370.246  20.664   6
   5  -6  -1 393.732  19.835   5
  -6  -5  -1 399.056  20.253   3
  -5   6  -1 356.186  15.606   4
   6   5  -1 372.428  20.404   5
  -5   6  -1 374.038  17.869   1
   6   5  -1 361.744  15.571   4
  -5   6  -1 391.257  19.452   5
  -5   6  -1 397.842  19.719   5
  -5   6  -1 345.370  15.241   4
  -6  -5  -1 349.037  14.959   4
  -6  -5  -1 386.417  19.517   5
   5  -6  -1 389.505  22.403   6
   5  -6  -1 343.746  20.470   5
   5  -6   1 369.489  22.008   6
  -5   6   1 364.462  15.790   4
  -5   6   1 346.435  20.465   5
   6   5   1 364.752  15.825   4
  -5   6   1 365.231  18.002   1
   5  -6   1 369.699  16.072   4
   6   5   1 357.946  16.029   4
  -6  -5   1 357.923  19.698   5
  -5   6   1 330.977  15.767   4
   6   5   1 360.352  21.870   6
  -5   6   1 352.819  22.663   6
  -6  -5   1 361.973  22.983   6
  -6  -5   1 345.167  15.585   4
   6   4  -1 25.1629  5.4024   6
   6   4  -1 24.7791  3.3186   4
  -6  -4  -1 21.8593  4.9703   6
   6   4  -1 18.2506  5.1981   5
  -6  -4  -1 21.8824  3.5290   5
  -4   6  -1 21.2717  4.4979   1
  -6  -4  -1 33.2553  5.1135   6
  -6  -4  -1 18.8243  2.9690   4
  -4   6  -1 26.1370  3.7410   6
  -4   6  -1 19.1427  3.4088   4
  -4   6  -1 24.3682  3.3940   4
   6   4  -1 21.1542  3.0004   4
   4  -6  -1 22.4161  6.4082   6
  -4   6  -1 15.2185  4.2534   6
   4  -6  -1 12.9083  5.4313   5
  -6  -4  -1 18.2746  3.6142   5
   4  -6  -1 14.4273  3.8191   4
   6   4  -1 16.0016  3.9929   5
  -4   6  -1 21.7056  4.7193   5
  -4   6  -1 19.1153  4.1626   5
   4  -6  -1 25.0730  5.0593   5
  -4   6   1 16.9473  5.2055   5
   4  -6   1 16.6021  4.1925   6
  -4   6   1 16.4474  4.4886   1
  -4   6   1 21.6652  3.7182   4
  -6  -4   1 17.6718  3.3900   4
   6   4   1 19.2084  4.1443   6
  -4   6   1 17.9734  6.3291   6
   6   4   1 15.2632  3.3084   4
  -4   6   1 19.0567  3.1663   4
   4  -6   1 22.1408  4.2188   5
  -6  -4   1 32.7760  7.1185   6
   6   4   1 21.1669  3.2100   4
   4  -6   1 10.6187  7.1174   3
   4  -6   1 20.2220  3.1803   4
  -6  -4   1 18.5729  4.4165   5
   6   3  -1 47.6108  4.0258   4
  -3   6  -1 52.1186  4.0707   4
   3  -6  -1 55.2127  6.0604   5
  -6  -3  -1 46.6816  3.8428   4
  -6  -3  -1 59.0809  5.7397   6
   3  -6  -1 44.0130  4.7384   4
   6   3  -1 41.4024  6.0280   5
  -3   6  -1 49.3903  5.6201   5
  -3   6  -1 46.7550  6.5067   6
   6   3  -1 59.0464  6.4717   6
  -6  -3  -1 53.0250  5.4585   5
  -6  -3  -1 39.2021  5.7494   6
  -3   6  -1 46.8167  5.5052   6
   3  -6  -1 49.5710  6.7283   5
  -6  -3  -1 52.4876  4.7072   5
  -3   6  -1 43.0723  5.1903   1
   6   3  -1 52.5066  6.0911   5
   6   3  -1 62.6621  5.0831   4
  -3   6  -1 53.1878  5.8164   5
   3  -6  -1 46.1734  6.9419   6
  -3   6  -1 43.6010  4.1916   4
  -3   6   1 46.5989  7.3433   6
   3  -6   1 51.5825  4.8555   4
   3  -6   1 48.6310  5.3769   5
  -3   6   1 42.7381  6.2502   5
   6   3   1 61.6428  5.0983   4
   6   3   1 51.9622  4.5381   4
  -6  -3   1 41.5446  5.5022   5
   3  -6   1 46.6422  7.2555   3
  -3   6   1 56.2774  4.8743   4
   6   3   1 52.2795  6.2079   6
  -3   6   1 48.3868  4.6172   4
  -3   6   1 55.9604  5.6986   1
  -6  -3   1 46.1336  4.0013   4
  -6  -3   1 49.9709  7.6061   6
  -6  -3   1 52.7713  5.9997   5
   3  -6   1 50.6832  6.4850   6
  -3   6   1 47.9456  5.9735   5
   2  -6  -1 117.289  10.090   6
  -2   6  -1 114.870   6.650   4
   6   2  -1 103.599   7.960   5
  -2   6  -1 117.435   8.631   5
   2  -6  -1 105.628  10.399   3
  -2   6  -1 120.144   8.935   5
  -6  -2  -1 109.375   6.063   4
   6   2  -1 114.188   7.161   4
   2  -6  -1 121.486   9.577   5
  -6  -2  -1 110.275   8.142   6
  -2   6  -1 99.5402  8.9814   6
   6   2  -1 98.6031  6.5845   4
  -6  -2  -1 95.4109  7.7871   6
   2  -6  -1 112.226   7.075   4
  -2   6  -1 104.906   6.848   1
  -6  -2  -1 116.323   7.298   5
  -6  -2  -1 113.430   8.120   5
  -2   6  -1 113.864   8.391   6
  -2   6  -1 115.859   6.450   4
   2  -6  -1 124.793   8.729   5
   6   2   1 108.979   8.958   6
   2  -6   1 123.643   7.211   4
  -2   6   1 104.082   8.136   5
   6   2   1 121.158   8.967   5
  -6  -2   1 114.678   8.061   5
  -6  -2   1 126.021   6.838   4
   2  -6   1 104.709   9.606   6
  -2   6   1 124.635   6.912   4
  -6  -2   1 99.7037  8.2509   5
  -6  -2   1 99.8561 10.6287   6
  -2   6   1 112.959   7.756   1
  -2   6   1 105.453   8.033   5
   2  -6   1 127.647  10.660   3
  -2   6   1 104.285  10.428   6
   6   2   1 121.307   6.222   4
  -2   6   1 100.581   6.785   4
  -1   6  -1 814.284  42.765   6
  -1   6  -1 896.272  38.645   5
   6   1  -1 788.928  38.355   5
   6   1  -1 817.776  38.601   5
  -6  -1  -1 676.747  41.598   6
   1  -6  -1 880.638  38.513   5
  -6  -1  -1 823.428  41.917   6
   1  -6  -1 869.107  43.106   6
  -1   6  -1 784.593  30.331   4
  -1   6  -1 825.816  33.448   1
   1  -6  -1 754.126  41.591   3
  -6  -1  -1 829.543  37.591   5
  -6  -1  -1 770.178  36.389   2
  -6  -1  -1 806.021  30.239   4
  -6  -1  -1 822.284  37.763   5
  -1   6  -1 849.920  30.583   4
   1  -6  -1 817.491  30.697   4
   1  -6  -1 828.839  38.540   5
   6   1  -1 795.694  42.889   6
   6   1  -1 802.833  30.651   4
  -1   6  -1 809.765  38.308   5
   1  -6   1 841.409  43.258   6
  -6  -1   1 777.957  38.515   5
  -6  -1   1 807.821  43.294   6
  -6  -1   1 807.379  33.778   1
  -1   6   1 800.412  30.563   4
  -1   6   1 837.871  30.614   4
   6   1   1 809.785  30.493   4
  -1   6   1 798.510  43.474   6
  -1   6   1 785.151  38.382   5
  -6  -1   1 844.577  30.791   4
  -1   6   1 826.147  38.646   5
   6   1   1 775.664  38.175   5
   1  -6   1 845.752  30.739   4
  -1   6   1 852.776  33.698   1
   6   1   1 794.012  42.544   6
   1  -6   1 831.483  42.128   3
   1  -6   1 816.358  30.806   4
  -6  -1   1 824.543  38.200   5
   0   6  -1 258.837  15.450   6
   0   6  -1 265.207  12.445   1
  -6   0  -1 266.806  13.593   5
  -6   0  -1 220.358  13.986   6
  -6   0  -1 256.638  10.799   4
   0  -6  -1 240.996  13.602   5
   6   0  -1 253.014  15.560   6
   6   0  -1 261.416  14.512   5
  -6   0  -1 270.293  13.285   5
   0  -6  -1 242.774  11.253   4
   0   6  -1 257.428  11.010   4
   6   0  -1 267.227  14.848   5
   0  -6  -1 273.878  15.710   6
   6   0  -1 239.433  10.931   4
   0   6  -1 259.574  14.116   5
   0  -6  -1 229.389  15.798   3
   0  -6  -1 265.796  14.188   5
  -6   0  -1 225.140  14.178   6
  -6   0  -1 240.097  12.569   2
   0   6  -1 281.909  13.972   5
  -6   0   1 262.499  15.473   6
   0  -6   1 244.956  16.835   3
  -6   0   1 270.691  14.638   5
   6   0   1 240.219  15.072   6
  -6   0   1 256.009  12.848   1
   0  -6   1 255.542  11.167   4
   0  -6   1 243.496  15.999   6
   0   6   1 252.184  13.844   5
   0   6   1 261.230  16.228   6
   0   6   1 248.465  12.502   1
  -6   0   1 250.578  11.053   4
   0  -6   1 257.853  11.509   4
   0   6   1 241.327  10.871   4
   0  -6   1 252.340  13.753   5
   6   0   1 257.540  11.164   4
   6   0   1 243.990  13.586   5
  -6   0   1 255.398  13.437   5
   0   6   1 265.930  11.280   4
   1   6  -1 882.211  39.005   5
  -6   1  -1 694.268  42.011   6
   1   6  -1 810.310  38.590   5
  -1  -6  -1 907.873  43.426   6
  -6   1  -1 797.799  33.612   1
   6  -1  -1 852.479  31.170   4
   6  -1  -1 830.979  43.447   6
  -6   1  -1 836.745  30.640   4
   6  -1  -1 830.328  38.896   5
  -6   1  -1 871.100  38.349   5
  -6   1  -1 880.729  38.219   5
   1   6  -1 811.291  33.823   1
  -1  -6  -1 866.037  38.864   5
   1   6  -1 854.285  43.544   6
  -6   1  -1 748.471  42.181   6
  -1  -6  -1 832.773  30.884   4
   6  -1  -1 827.843  39.000   5
   1   6  -1 824.744  30.720   4
  -1  -6  -1 768.139  41.685   3
  -1  -6  -1 829.006  38.560   5
  -6   1  -1 795.211  37.903   2
   1   6   1 791.353  30.751   4
   1   6   1 823.658  33.957   1
  -6   1   1 789.148  43.620   6
  -6   1   1 860.991  31.260   4
  -1  -6   1 805.514  43.768   6
   6  -1   1 784.676  43.094   6
  -6   1   1 831.193  39.307   5
  -1  -6   1 829.767  30.910   4
  -1  -6   1 853.573  39.913   5
  -1  -6   1 926.793  42.505   3
   1   6   1 784.071  43.434   6
  -1  -6   1 789.291  30.876   4
  -6   1   1 800.512  38.390   5
   1   6   1 847.462  39.063   5
  -1  -6   1 780.471  38.570   5
   6  -1   1 797.361  30.807   4
   1   6   1 854.104  30.998   4
   6  -1   1 807.886  38.735   5
  -6   1   1 830.317  34.169   1
   2   6  -1 114.963   6.096   4
  -6   2  -1 100.770   7.824   6
   2   6  -1 122.009   9.512   6
   2   6  -1 116.562   8.904   5
  -2  -6  -1 118.309  10.389   3
  -6   2  -1 94.4827  7.5586   6
   2   6  -1 116.989   8.796   5
   6  -2  -1 117.790   8.414   5
   2   6  -1 113.323   6.064   4
  -6   2  -1 115.955   8.075   5
  -2  -6  -1 108.188   5.834   4
  -6   2  -1 122.153   7.805   1
  -2  -6  -1 124.593   7.737   5
   6  -2  -1 113.312   7.032   4
  -6   2  -1 110.038   6.444   4
  -6   2  -1 107.017   7.892   5
  -2  -6  -1 125.417   9.870   6
   6  -2  -1 115.897   9.444   5
   6  -2  -1 112.943   9.253   6
  -2  -6  -1 121.875   8.829   5
  -2  -6  -1 110.560   6.784   4
   2   6  -1 112.183   7.866   1
  -6   2   1 110.916   9.164   6
  -2  -6   1 120.958   6.553   4
  -2  -6   1 106.666   9.597   3
   6  -2   1 111.205   6.282   4
   2   6   1 106.695   9.195   5
   2   6   1 110.986   7.998   1
  -6   2   1 124.184   8.675   5
  -2  -6   1 112.929   8.288   5
  -6   2   1 99.6990  7.2277   5
   2   6   1 111.462   6.337   4
  -6   2   1 133.486   8.534   1
  -2  -6   1 115.451   6.142   4
   6  -2   1 115.366   8.264   5
   2   6   1 114.679  10.001   6
  -6   2   1 118.011   7.099   4
   2   6   1 105.955   6.581   4
  -2  -6   1 108.410   7.979   5
  -2  -6   1 116.976  10.797   6
   3   6  -1 52.0614  4.0887   4
  -3  -6  -1 50.3159  5.4727   5
  -3  -6  -1 51.3090  4.1437   4
   3   6  -1 66.3898  5.9518   5
   6  -3  -1 42.9024  4.6327   4
  -3  -6  -1 60.1056  7.4377   6
  -6   3  -1 52.1864  5.3962   1
   3   6  -1 61.6659  6.8814   6
   6  -3  -1 63.7856  6.9218   6
  -6   3  -1 57.2112  5.2954   6
   3   6  -1 40.6302  3.7855   4
  -6   3  -1 39.7590  4.8043   6
  -3  -6  -1 45.7174  4.4199   4
   6  -3  -1 45.1511  6.3790   5
  -6   3  -1 48.1482  5.2560   5
  -6   3  -1 50.5882  4.3925   4
  -3  -6  -1 46.4703  6.6407   3
  -3  -6  -1 58.1707  8.0747   6
   3   6  -1 51.9521  5.7697   1
   3   6  -1 47.8762  5.7904   5
   6  -3  -1 46.3269  6.2045   5
  -6   3  -1 57.2935  5.1777   5
  -3  -6  -1 49.8370  5.3621   5
   3   6   1 44.4143  6.2545   5
   6  -3   1 53.4938  6.3918   6
   3   6   1 48.1486  5.7166   1
  -3  -6   1 57.3328  7.9575   3
  -3  -6   1 51.6822  4.0545   4
  -3  -6   1 53.5473  4.3518   4
  -6   3   1 51.3058  5.9875   5
  -6   3   1 42.9630  6.1514   6
   3   6   1 51.7886  4.2783   4
  -3  -6   1 47.7100  5.1108   5
   3   6   1 66.2127  7.2398   6
  -6   3   1 54.7739  5.8836   1
  -6   3   1 49.2753  5.4640   5
   6  -3   1 50.8616  4.2520   4
  -6   3   1 39.6360  4.0675   4
  -3  -6   1 52.2685  7.7164   6
   3   6   1 51.3373  4.1393   4
   6  -4  -1 23.6596  5.5380   5
  -6   4  -1 17.6534  3.1851   4
   4   6  -1 25.5460  5.1845   5
  -6   4  -1 19.3320  3.5944   6
   4   6  -1 22.2909  3.0719   4
  -6   4  -1 15.6620  3.8095   6
  -6   4  -1 18.8330  4.0626   5
  -4  -6  -1 21.9530  5.1138   3
   4   6  -1 27.9873  5.0932   5
   4   6  -1 23.8564  3.6137   4
  -4  -6  -1 12.7522  5.4950   6
   6  -4  -1 21.6919  5.6182   6
  -6   4  -1 19.1878  4.4243   1
   4   6  -1 25.9475  6.5188   6
  -4  -6  -1 21.6503  2.6304   4
   4   6  -1 14.6326  4.7125   1
  -6   4  -1 29.2070  3.1771   4
  -6   4  -1 22.5541  4.3820   5
   6  -4  -1 21.1479  3.2361   4
  -4  -6  -1 22.8587  4.1755   5
   6  -4  -1 16.0218  5.0562   5
  -4  -6  -1 20.3177  4.1639   5
  -4  -6  -1 21.9918  6.8579   6
   4   6   1 16.8830  3.4729   4
   4   6   1 16.3563  3.8440   4
  -4  -6   1 16.1643  2.6906   4
   6  -4   1 20.8193  3.1412   4
  -6   4   1 20.0068  4.8330   1
  -6   4   1 18.7559  5.4589   5
   4   6   1 21.7325  4.4825   6
  -4  -6   1 30.1862  7.1133   6
  -4  -6   1 13.7723  4.0025   5
  -4  -6   1 25.4199  4.1670   4
  -6   4   1 21.4529  6.5221   6
  -6   4   1 20.3847  3.9563   4
   6  -4   1 20.7066  5.1852   6
   4   6   1 19.9576  4.3122   5
  -4  -6   1 25.4948  6.2909   3
   6  -5  -1 362.628  16.309   4
  -5  -6  -1 383.572  19.565   5
   5   6  -1 365.100  15.688   4
   5   6  -1 363.982  16.033   4
  -6   5  -1 381.335  15.830   4
   5   6  -1 393.708  22.191   6
  -6   5  -1 421.084  19.630   5
  -5  -6  -1 372.089  20.978   3
   6  -5  -1 359.731  20.675   5
  -6   5  -1 362.364  20.204   6
  -6   5  -1 371.918  20.570   6
   5   6  -1 373.514  20.419   5
  -5  -6  -1 353.200  15.420   4
  -6   5  -1 360.951  15.821   4
   6  -5  -1 381.262  22.275   6
  -6   5  -1 379.338  17.998   1
  -5  -6  -1 395.524  21.629   6
   6  -5  -1 380.287  20.724   5
  -5  -6  -1 399.222  22.671   6
  -5  -6  -1 376.175  19.205   5
   5   6  -1 400.059  20.735   5
  -6   5  -1 362.531  19.577   5
   5   6   1 374.738  16.053   4
  -5  -6   1 406.350  22.664   3
  -5  -6   1 365.589  19.964   5
  -6   5   1 355.485  22.954   6
   6  -5   1 354.328  22.109   6
  -6   5   1 359.764  20.272   5
   6  -5   1 342.905  15.764   4
   5   6   1 352.278  15.806   4
   5   6   1 376.398  22.467   6
  -6   5   1 385.538  17.960   1
  -6   5   1 377.875  16.456   4
  -5  -6   1 380.062  22.659   6
  -5  -6   1 346.307  15.538   4
   6  -6  -1 4.41957 6.04084   6
  -6  -6  -1 -0.5197  4.4041   6
  -6   6  -1 -2.3324  3.7081   5
  -6  -6  -1 5.14360 5.82307   6
  -6   6  -1 -2.9374  3.5994   6
   6   6  -1 -6.0585  5.0176   6
   6  -6  -1 -2.9138  4.5923   5
  -6   6  -1 3.83990 4.63950   1
  -6  -6  -1 6.46330 4.28068   3
   6   6  -1 3.46873 2.40387   4
   6   6  -1 1.67594 4.96720   5
  -6  -6  -1 0.06363 3.44755   5
  -6  -6  -1 -0.9805  3.1923   5
  -6   6  -1 -2.7912  4.2434   5
  -6   6  -1 2.01235 3.05170   6
   6  -6  -1 0.66447 2.53169   4
  -6   6   1 4.66422 4.85326   1
  -6  -6   1 3.20635 7.45956   6
  -6   6   1 -3.0497  3.5013   5
  -6  -6   1 3.38250 4.05656   5
   6   6   1 0.81744 5.11729   6
  -6   6   1 0.87191 6.34215   6
   6  -6   1 -1.4221  5.1715   6
   6   6   1 -6.9366  3.5350   4
  -7  -6  -1 531.764  27.705   6
  -6   7  -1 574.318  26.797   5
  -6   7  -1 537.819  26.938   6
   6  -7  -1 555.033  28.046   5
  -6   7  -1 572.451  27.276   5
   7   6  -1 504.636  21.549   4
  -6   7  -1 523.888  24.487   1
  -7  -6  -1 528.599  28.087   3
   7   6  -1 492.657  27.713   5
   7   6  -1 512.154  30.078   6
   6  -7  -1 493.912  22.059   4
   6  -7  -1 536.579  30.819   6
  -6   7  -1 540.746  27.049   6
  -7  -6  -1 537.181  26.884   5
  -7  -6  -1 514.121  25.796   5
   6  -7   1 489.815  30.316   6
   7   6   1 502.827  30.434   6
  -6   7   1 502.147  28.136   5
  -6   7   1 533.017  25.000   1
  -7  -6   1 498.622  27.316   5
  -7  -6   1 515.366  31.146   6
  -6   7   1 497.275  30.689   6
   5  -7  -1 277.597  18.907   6
  -7  -5  -1 277.165  15.639   5
   5  -7  -1 296.317  17.058   5
   5  -7  -1 247.199  13.297   4
  -5   7  -1 291.822  16.454   6
  -5   7  -1 285.859  15.729   6
  -7  -5  -1 273.890  15.945   6
   7   5  -1 264.933  16.169   5
  -5   7  -1 261.909  14.981   1
  -7  -5  -1 272.818  14.920   5
   7   5  -1 291.800  17.928   6
  -7  -5  -1 281.827  16.334   3
   7   5  -1 275.660  13.175   4
  -5   7  -1 293.806  16.549   5
  -5   7  -1 303.784  16.322   5
  -5   7   1 234.395  14.909   1
   5  -7   1 253.447  18.221   6
  -5   7   1 256.014  13.313   4
  -7  -5   1 266.376  19.333   6
  -5   7   1 276.758  18.904   6
  -5   7   1 286.223  17.490   5
   7   5   1 267.163  18.001   6
  -7  -5   1 286.766  16.128   5
   7   5   1 254.103  13.314   4
  -7  -4  -1 2267.99   82.76   4
  -7  -4  -1 2418.90  103.81   5
  -4   7  -1 2245.60  116.45   6
   4  -7  -1 2257.16  117.53   6
  -4   7  -1 2153.82   82.93   4
   4  -7  -1 2323.24  104.62   5
   7   4  -1 2238.42   83.14   4
   7   4  -1 2294.98  117.28   6
  -4   7  -1 2323.70   90.76   1
  -4   7  -1 2351.89  116.05   6
  -7  -4  -1 2297.34  103.13   5
   7   4  -1 2324.99  104.45   5
  -4   7  -1 2429.14  104.15   5
   4  -7  -1 2551.15  104.64   5
   7   4  -1 2171.53   83.16   4
  -4   7  -1 2449.46  104.27   5
   7   4  -1 2191.64  104.52   5
  -4   7  -1 2270.74   83.11   4
  -7  -4  -1 2317.21  115.89   6
   4  -7  -1 2278.59   83.42   4
  -4   7   1 2352.58   91.13   1
  -4   7   1 2422.25  118.15   6
  -7  -4   1 2236.33  104.43   5
   4  -7   1 2131.25  111.24   3
   4  -7   1 2325.44  117.68   6
   7   4   1 2269.25   83.32   4
   7   4   1 2259.80  117.42   6
  -7  -4   1 2277.39  117.62   6
   4  -7   1 2278.66   83.52   4
  -4   7   1 2306.25   83.43   4
  -4   7   1 2253.14   83.46   4
  -7  -4   1 2154.91   83.00   4
  -4   7   1 2233.93  104.85   5
   3  -7  -1 310.324  19.676   6
  -7  -3  -1 252.095  17.107   6
   3  -7  -1 287.702  13.861   4
   7   3  -1 333.920  17.360   5
  -3   7  -1 295.990  13.402   4
  -3   7  -1 293.851  13.445   4
  -7  -3  -1 314.689  15.824   5
  -3   7  -1 320.602  14.959   1
  -3   7  -1 289.488  18.607   6
   7   3  -1 305.396  13.698   4
  -7  -3  -1 318.881  17.349   6
  -7  -3  -1 297.944  12.985   4
  -3   7  -1 312.820  17.029   5
   3  -7  -1 303.342  18.063   5
  -3   7  -1 315.871  17.119   5
   7   3  -1 315.250  18.686   6
   7   3  -1 308.175  17.067   5
  -7  -3  -1 349.637  16.579   5
   3  -7  -1 335.532  17.484   5
   7   3  -1 305.712  13.423   4
  -7  -3   1 282.232  17.158   5
   3  -7   1 284.034  20.792   3
  -7  -3   1 326.097  19.882   6
  -3   7   1 311.692  15.095   1
  -3   7   1 326.481  19.898   6
  -3   7   1 299.810  13.403   4
   7   3   1 305.065  18.675   6
   7   3   1 291.969  13.570   4
   3  -7   1 292.596  16.622   5
   3  -7   1 279.137  13.831   4
  -3   7   1 310.436  13.546   4
   7   3   1 303.096  13.994   4
  -3   7   1 301.952  17.165   5
   3  -7   1 293.026  19.064   6
  -7  -3   1 318.018  13.401   4
  -2   7  -1 1654.49   63.97   1
  -2   7  -1 1565.03   73.27   5
   7   2  -1 1620.97   58.57   4
   2  -7  -1 1654.75   73.48   5
   2  -7  -1 1544.20   58.47   4
  -7  -2  -1 1587.32   81.02   6
  -7  -2  -1 1604.39   72.26   5
  -2   7  -1 1639.90   58.45   4
  -7  -2  -1 1661.93   72.86   5
  -7  -2  -1 1577.80   58.02   4
  -2   7  -1 1543.40   58.29   4
   2  -7  -1 1747.71   73.58   5
   7   2  -1 1519.95   73.35   5
   2  -7  -1 1586.70   82.50   6
   7   2  -1 1575.97   58.51   4
  -2   7  -1 1620.01   73.15   5
   2  -7  -1 1526.89   78.76   3
   2  -7   1 1608.38   58.73   4
  -2   7   1 1600.21   58.62   4
  -2   7   1 1562.76   73.53   5
   2  -7   1 1607.27   78.74   3
   7   2   1 1543.30   82.23   6
   2  -7   1 1614.55   82.75   6
  -7  -2   1 1623.07   73.84   5
  -7  -2   1 1591.51   82.48   6
  -7  -2   1 1604.25   58.49   4
   7   2   1 1535.59   58.45   4
  -2   7   1 1635.69   83.06   6
  -2   7   1 1539.44   58.55   4
  -2   7   1 1598.97   64.03   1
   2  -7   1 1598.69   73.38   5
   7   1  -1 41.6257  6.3952   5
  -7  -1  -1 32.4387  4.6869   5
  -7  -1  -1 32.5742  3.5855   4
  -7  -1  -1 33.0026  4.7453   6
  -1   7  -1 49.7001  5.2785   1
   7   1  -1 39.9976  3.8841   4
   1  -7  -1 36.6063  6.0643   5
  -1   7  -1 32.0366  3.7847   4
   7   1  -1 40.8868  6.2764   6
  -1   7  -1 34.2340  5.1422   5
   1  -7  -1 43.1767  5.5056   5
   1  -7  -1 47.6344  7.2559   6
   7   1  -1 29.8180  5.4494   5
  -1   7  -1 31.5823  6.5511   6
  -1   7  -1 41.8230  5.5116   5
  -1   7  -1 32.9426  3.4355   4
   1  -7  -1 30.2779  6.6935   3
   1  -7  -1 37.2699  3.8722   4
  -7  -1  -1 34.2158  4.5962   6
  -7  -1  -1 39.8896  4.5709   5
  -7  -1   1 22.2663  4.9350   1
  -7  -1   1 39.4895  6.9530   6
  -1   7   1 40.9915  5.0652   1
   1  -7   1 40.8806  4.6424   4
  -7  -1   1 37.6500  5.6936   5
  -1   7   1 36.3800  5.0947   5
  -1   7   1 40.4697  4.2930   4
   1  -7   1 34.8193  6.5914   6
   1  -7   1 32.2332  3.9928   4
   7   1   1 43.8505  5.8884   6
   1  -7   1 44.5281  8.2942   3
   1  -7   1 31.5496  4.3429   5
  -1   7   1 35.4355  5.6950   6
   7   1   1 27.3807  3.9087   4
  -1   7   1 39.7953  4.2620   4
  -7  -1   1 34.7281  3.6365   4
   7   0  -1 -4.6467  4.0081   5
   7   0  -1 0.44547 4.47365   6
   0   7  -1 -1.0738  2.4957   4
   0   7  -1 -2.0309  3.6796   5
   7   0  -1 7.14206 4.78543   5
  -7   0  -1 0.18642 2.84548   6
  -7   0  -1 -0.5972  2.3869   5
   0  -7  -1 0.10527 6.13412   3
  -7   0  -1 5.73240 2.52754   4
   0   7  -1 -1.4594  0.5721   4
   0  -7  -1 -6.1705  3.0466   5
  -7   0  -1 -2.1025  3.0560   6
   0   7  -1 4.77979 3.73086   1
   0   7  -1 -3.5046  4.4014   6
   0   7  -1 -0.6222  3.6342   5
  -7   0  -1 1.24213 1.87059   2
  -7   0  -1 1.18830 3.34487   5
   7   0  -1 -1.5810  2.9487   4
   0  -7  -1 2.35885 3.19327   4
   0  -7  -1 3.84991 5.27670   6
   0   7   1 0.33418 2.72688   4
  -7   0   1 15.9270  3.8793   5
  -7   0   1 2.20649 5.36962   6
   0   7   1 -2.6567  5.0094   6
   0  -7   1 -1.7798  5.1519   6
   0   7   1 3.43094 4.41575   5
   0   7   1 0.44910 2.64327   1
   0   7   1 1.66907 2.05494   4
   0  -7   1 5.79460 6.37615   3
  -7   0   1 -1.0139  3.9615   1
   7   0   1 1.96867 3.94438   6
   0  -7   1 3.39226 2.05740   4
  -7   0   1 -1.9615  2.0449   4
   0  -7   1 0.93155 3.33303   4
   7   0   1 1.37029 2.81440   4
   0  -7   1 0.08060 2.12200   5
  -7   1  -1 28.5390  4.2297   5
  -1  -7  -1 44.3250  5.8942   5
  -1  -7  -1 30.2462  4.8455   5
  -1  -7  -1 32.4473  7.3579   3
  -7   1  -1 30.6882  3.9085   5
   7  -1  -1 42.7372  3.9672   4
  -7   1  -1 38.7187  5.1106   1
  -7   1  -1 28.1339  4.1691   6
   7  -1  -1 32.5229  5.8553   5
   7  -1  -1 38.3680  6.1212   5
   1   7  -1 34.5844  6.1280   6
  -7   1  -1 32.5696  3.9671   2
  -7   1  -1 39.3462  3.8681   4
   1   7  -1 35.6020  3.4547   4
  -1  -7  -1 29.0463  4.1654   4
  -1  -7  -1 45.7721  6.7359   6
   1   7  -1 33.0823  4.8573   1
   1   7  -1 37.1655  5.4590   5
  -7   1  -1 22.3655  3.6268   6
   1   7  -1 41.3635  5.0307   5
   7  -1  -1 40.0196  6.4171   6
   7  -1   1 35.6314  5.5748   6
  -7   1   1 33.1162  5.2680   1
  -1  -7   1 41.0242  7.8292   3
   1   7   1 40.8356  5.1566   5
  -1  -7   1 39.9406  4.5756   5
   1   7   1 36.6456  6.6996   6
  -7   1   1 31.5113  6.6842   6
   7  -1   1 30.6881  3.5087   4
   1   7   1 38.5849  3.7068   4
  -7   1   1 34.7837  6.0248   5
  -7   1   1 38.0800  3.9018   4
  -1  -7   1 36.6668  4.0132   4
   1   7   1 35.9070  4.3793   1
  -1  -7   1 39.8377  7.2635   6
  -1  -7   1 30.2655  3.7561   4
   1   7   1 35.2953  4.2707   4
  -2  -7  -1 1592.33   58.96   4
   2   7  -1 1605.40   64.63   1
  -7   2  -1 1544.58   73.53   5
  -2  -7  -1 1562.83   78.46   3
   7  -2  -1 1627.07   74.45   5
  -7   2  -1 1552.29   81.61   6
   2   7  -1 1596.01   58.92   4
  -2  -7  -1 1705.01   83.32   6
  -2  -7  -1 1546.12   73.55   5
  -7   2  -1 1623.14   58.95   4
   7  -2  -1 1604.00   59.26   4
  -2  -7  -1 1675.13   74.03   5
   2   7  -1 1761.63   74.61   5
  -2  -7  -1 1437.31   58.64   4
  -7   2  -1 1665.16   64.70   1
  -7   2  -1 1728.47   73.39   5
   2   7  -1 1672.90   83.32   6
   7  -2  -1 1649.09   83.31   6
  -7   2  -1 1551.59   73.33   2
   7  -2  -1 1601.69   74.35   5
   2   7  -1 1586.33   58.94   4
   2   7  -1 1568.01   73.75   5
   2   7   1 1637.70   59.18   4
   7  -2   1 1568.54   59.20   4
   2   7   1 1671.27   83.81   6
  -2  -7   1 1615.13   83.83   6
  -7   2   1 1653.73   64.85   1
   2   7   1 1599.13   64.78   1
   2   7   1 1534.18   58.94   4
  -7   2   1 1583.60   83.63   6
  -7   2   1 1674.89   74.89   5
  -2  -7   1 1574.69   73.98   5
  -7   2   1 1619.96   59.43   4
  -2  -7   1 1647.74   59.08   4
  -2  -7   1 1615.52   59.27   4
  -2  -7   1 1720.29   79.17   3
   2   7   1 1582.00   74.30   5
  -3  -7  -1 292.245  19.022   3
   3   7  -1 318.191  19.134   6
   3   7  -1 319.502  13.310   4
   3   7  -1 302.112  15.575   1
  -3  -7  -1 286.586  13.516   4
   7  -3  -1 305.361  13.610   4
  -7   3  -1 339.724  16.330   5
   7  -3  -1 328.584  19.093   6
   3   7  -1 304.635  13.564   4
  -7   3  -1 305.254  13.198   4
  -3  -7  -1 335.561  18.885   6
  -7   3  -1 304.849  16.725   6
  -7   3  -1 273.770  16.583   6
  -7   3  -1 313.969  15.526   1
   7  -3  -1 298.495  17.255   5
  -7   3  -1 303.765  16.499   5
   3   7  -1 312.280  17.233   5
  -3  -7  -1 320.652  16.906   5
   7  -3  -1 305.604  17.746   5
  -3  -7  -1 292.448  12.986   4
   3   7  -1 335.286  17.771   5
  -3  -7  -1 305.928  16.779   5
   3   7   1 300.149  13.644   4
   3   7   1 300.431  17.067   5
  -3  -7   1 304.936  16.670   5
  -7   3   1 316.446  14.081   4
   3   7   1 306.171  13.880   4
   7  -3   1 298.937  13.496   4
   3   7   1 309.123  19.384   6
   3   7   1 300.051  15.817   1
   7  -3   1 305.781  18.964   6
  -7   3   1 289.170  19.672   6
  -3  -7   1 293.291  19.104   6
  -3  -7   1 291.686  13.513   4
  -7   3   1 306.085  15.223   1
  -7   3   1 315.305  18.225   5
  -3  -7   1 315.947  13.594   4
  -3  -7   1 316.186  20.013   3
  -7   4  -1 2218.13  115.72   6
   4   7  -1 2235.43   83.39   4
  -7   4  -1 2274.94  104.05   5
   4   7  -1 2336.39   91.57   1
  -7   4  -1 2228.07   83.29   4
   4   7  -1 2414.38  117.91   6
   4   7  -1 2376.34  105.07   5
  -4  -7  -1 2264.12  110.05   3
  -4  -7  -1 2383.60  117.17   6
  -4  -7  -1 2184.57   83.17   4
  -7   4  -1 2314.22   91.22   1
   4   7  -1 2246.68   83.44   4
   4   7  -1 2261.89  104.38   5
  -7   4  -1 2280.00  115.78   6
   7  -4  -1 2426.12  117.85   6
  -4  -7  -1 2364.31  104.38   5
   7  -4  -1 2351.15   83.81   4
   7  -4  -1 2362.69  105.24   5
  -4  -7  -1 2366.09  103.97   5
  -7   4  -1 2510.34  104.00   5
   4   7   1 2268.20   83.58   4
  -7   4   1 2331.33  105.34   5
   4   7   1 2258.23  118.14   6
   4   7   1 2236.99   91.57   1
  -4  -7   1 2271.15  104.74   5
  -7   4   1 2281.29   83.71   4
  -7   4   1 2242.01  118.24   6
  -4  -7   1 2248.82   83.43   4
   7  -4   1 2225.11  117.95   6
  -4  -7   1 2490.24  111.20   3
  -4  -7   1 2303.87  118.31   6
  -4  -7   1 2214.71   83.46   4
  -7   4   1 2304.99   91.59   1
   4   7   1 2197.30   83.39   4
   7  -5  -1 269.460  13.418   4
  -5  -7  -1 268.290  17.575   3
   5   7  -1 286.129  18.120   6
  -7   5  -1 290.324  15.292   1
   5   7  -1 278.305  16.835   5
  -7   5  -1 280.687  14.380   6
  -5  -7  -1 291.118  17.519   6
   7  -5  -1 290.726  17.582   5
  -5  -7  -1 273.779  15.598   5
  -7   5  -1 309.700  15.621   5
   5   7  -1 275.128  17.788   5
  -7   5  -1 283.419  15.831   5
  -5  -7  -1 280.591  16.089   5
   7  -5  -1 274.754  18.140   6
   5   7  -1 290.333  14.967   1
  -7   5  -1 246.642  14.288   6
   5   7  -1 260.017  12.593   4
  -5  -7   1 226.363  15.825   5
  -5  -7   1 301.288  20.270   6
  -7   5   1 292.294  17.676   5
  -7   5   1 274.860  18.997   6
   5   7   1 282.815  17.719   6
   7  -5   1 291.527  18.510   6
  -7   5   1 279.697  15.611   1
   5   7   1 270.790  13.377   4
  -5  -7   1 294.717  18.216   3
   6   7  -1 485.963  21.533   4
   7  -6  -1 533.437  30.603   6
   7  -6  -1 548.443  28.064   5
  -6  -7  -1 528.435  26.122   5
  -7   6  -1 578.386  26.409   5
   6   7  -1 524.347  25.364   1
  -6  -7  -1 535.338  28.461   6
   6   7  -1 503.946  27.530   5
  -7   6  -1 527.895  26.343   5
   7  -6  -1 482.981  21.974   4
  -6  -7  -1 494.191  28.634   6
  -6  -7  -1 526.759  28.275   3
  -6  -7  -1 539.137  26.754   5
  -7   6  -1 529.617  24.520   1
   6   7  -1 540.407  30.289   6
   7  -6   1 497.665  30.272   6
  -7   6   1 514.729  28.274   5
  -6  -7   1 501.817  27.238   5
  -7   6   1 537.014  31.003   6
  -6  -7   1 581.031  30.514   3
  -7   6   1 558.910  25.141   1
   6   7   1 488.680  30.467   6
  -6  -7   1 500.110  31.349   6
   7  -7  -1 4.53953 5.78055   5
  -7  -7  -1 6.37056 4.05133   5
  -7  -7  -1 4.10703 4.07669   5
  -7   7  -1 2.75185 4.13512   5
  -7   7  -1 -0.4155  3.7099   5
   7   7  -1 -2.8648  5.8860   5
  -7   7  -1 -0.2190  5.4746   1
   7  -7  -1 4.21234 7.05627   6
   7   7  -1 -5.8587  7.0736   6
  -7  -7  -1 -1.0608  4.6894   3
  -7   7   1 7.64676 6.20917   5
  -7  -7   1 7.56883 8.24798   6
   7  -7   1 0.49159 6.42779   6
  -7   7   1 2.88277 5.80604   1
   7   7   1 -10.266   6.207   6
  -7   7   1 -1.7286  7.2887   6
  -7  -7   1 0.85624 4.62840   5
  -7  -7   1 1.10722 4.88760   3
  -8  -7  -1 133.396   9.594   5
   8   7  -1 106.148  11.528   5
   8   7  -1 156.799  13.642   6
  -7   8  -1 115.051  10.522   1
  -7   8  -1 137.793  10.604   5
   7  -8  -1 144.570  13.352   6
  -7   8  -1 135.418  10.096   5
  -8  -7  -1 140.528  11.441   5
   7  -8  -1 121.603  11.085   5
  -8  -7   1 107.581  10.980   5
   8   7   1 129.480  13.413   6
  -7   8   1 149.983  14.001   6
   7  -8   1 145.423  13.694   6
  -8  -7   1 156.915  14.169   3
  -7   8   1 124.171  12.072   5
  -8  -7   1 106.858  13.398   6
  -7   8   1 118.923  10.391   1
   8   6  -1 82.3100  9.7692   5
  -6   8  -1 78.1514  7.5048   5
  -8  -6  -1 88.7105  8.5982   3
   6  -8  -1 81.2077 10.2434   6
   8   6  -1 91.7596 10.0758   6
  -6   8  -1 64.7215  7.1395   5
   6  -8  -1 96.4102  8.9153   5
  -8  -6  -1 68.6241  7.1963   5
  -8  -6  -1 76.4999  7.3551   5
  -6   8  -1 82.7396  8.8117   1
   6  -8   1 94.9438 10.8151   6
  -6   8   1 71.7702  8.6801   1
  -6   8   1 107.948  11.857   6
  -8  -6   1 85.9477  9.1263   5
  -6   8   1 77.1192  9.3780   5
   8   6   1 87.9960 10.4061   6
  -8  -6   1 84.0226 11.2221   6
  -5   8  -1 85.8322  8.2275   5
  -5   8  -1 88.9035  7.9254   1
  -8  -5  -1 98.7937  7.7759   5
   8   5  -1 90.0865  9.6867   5
   8   5  -1 104.523  10.213   6
  -5   8  -1 96.1684  6.8683   6
   5  -8  -1 108.464  12.050   6
  -8  -5  -1 86.4227  8.3402   5
  -5   8  -1 100.117   9.120   5
  -8  -5  -1 86.8363  8.7022   3
  -5   8  -1 92.7980  7.5294   6
   5  -8  -1 96.4668  8.7626   5
  -5   8   1 77.9379  8.6251   1
   8   5   1 91.7220 10.2242   6
  -8  -5   1 84.1184  8.8678   5
  -8  -5   1 93.3787  9.9820   6
   5  -8   1 91.8064 10.5354   6
  -5   8   1 98.7469 11.3429   6
  -5   8   1 79.3983  9.4066   5
   4  -8  -1 114.080   8.996   5
  -4   8  -1 118.759   9.296   1
   4  -8  -1 118.105  11.662   6
  -8  -4  -1 102.705   8.622   5
   4  -8  -1 86.6846  7.4088   4
  -8  -4  -1 92.5996  7.8670   5
   8   4  -1 100.302   9.913   5
   8   4  -1 101.211   7.360   4
  -4   8  -1 111.723   9.894   5
  -4   8  -1 113.554   9.223   6
  -4   8  -1 105.995   9.658   5
  -8  -4   1 106.479   9.557   5
   4  -8   1 83.5983 11.1794   3
   4  -8   1 105.264  10.192   6
  -4   8   1 91.4922  8.7852   1
  -4   8   1 101.560   9.530   5
   8   4   1 103.555  10.778   6
  -8  -4   1 112.516  11.432   6
  -4   8   1 117.499  11.657   6
  -8  -3  -1 10.0004  3.3196   5
   3  -8  -1 13.4794  4.8244   5
   3  -8  -1 6.33232 8.23543   6
  -3   8  -1 6.72346 4.70293   5
   8   3  -1 17.1284  3.8892   4
   8   3  -1 16.6060  6.1249   5
  -8  -3  -1 11.0814  3.7886   5
  -3   8  -1 33.6313  5.9697   6
   3  -8  -1 13.1677  4.9165   5
  -3   8  -1 24.0291  5.1584   5
  -3   8  -1 13.5876  5.1417   1
   3  -8  -1 15.2614  3.3661   4
  -3   8   1 6.40112 5.48328   5
  -3   8   1 16.9197  7.0034   6
   3  -8   1 11.1511  6.5489   6
  -8  -3   1 17.9572  7.0750   6
   8   3   1 14.6111  5.6045   6
   8   3   1 13.0042  4.3062   4
   3  -8   1 8.50824 5.96800   3
  -3   8   1 12.8949  3.9311   1
  -8  -3   1 10.9092  3.9390   5
  -2   8  -1 -5.8638  5.5279   6
  -2   8  -1 -0.6037  4.3216   5
   8   2  -1 4.21971 3.33561   4
   2  -8  -1 0.62854 4.05744   5
   2  -8  -1 1.98675 5.53131   3
  -8  -2  -1 -1.0470  3.1845   5
   2  -8  -1 3.84435 5.39047   5
   8   2  -1 -1.0960  5.1718   6
  -8  -2  -1 -2.7458  2.5702   5
   2  -8  -1 5.43424 6.39520   6
   2  -8  -1 3.02957 3.64574   4
  -8  -2  -1 -1.2508  2.0214   6
  -2   8  -1 3.43783 3.03945   4
  -2   8  -1 2.10374 4.22099   5
  -2   8  -1 2.38953 4.30259   1
  -2   8   1 -4.8420  4.2770   1
  -2   8   1 4.84126 6.31242   6
  -2   8   1 2.82375 5.04360   5
   2  -8   1 -0.9753  5.0852   3
  -2   8   1 2.43739 3.23190   4
  -2   8   1 2.55371 3.35720   4
   2  -8   1 -5.6770  5.7423   6
  -8  -2   1 0.43579 2.19505   4
   8   2   1 4.29503 4.86791   6
  -8  -2   1 0.29440 4.17262   6
  -8  -2   1 0.97452 3.14714   5
   8   1  -1 441.091  19.280   4
   1  -8  -1 419.974  27.730   3
   1  -8  -1 523.227  24.194   5
  -8  -1  -1 439.491  18.507   4
  -8  -1  -1 458.308  23.212   5
   1  -8  -1 426.722  19.138   4
   8   1  -1 470.093  26.505   6
   8   1  -1 441.303  24.772   5
   1  -8  -1 477.316  26.993   6
  -1   8  -1 481.636  24.231   5
  -1   8  -1 455.774  18.891   4
  -8  -1  -1 487.512  22.709   5
  -1   8  -1 481.402  23.777   5
   8   1  -1 436.075  19.129   4
  -1   8  -1 407.960  26.297   6
   1  -8  -1 473.412  24.485   5
  -1   8  -1 479.265  21.278   1
  -1   8  -1 468.560  18.969   4
  -8  -1   1 465.635  24.553   5
  -8  -1   1 444.112  19.153   4
   1  -8   1 443.257  23.471   5
  -1   8   1 470.072  27.261   6
   1  -8   1 432.043  19.322   4
   1  -8   1 471.152  27.206   3
   1  -8   1 442.003  27.118   6
  -1   8   1 439.428  21.184   1
  -1   8   1 442.954  23.839   5
  -1   8   1 459.122  18.917   4
  -8  -1   1 454.017  26.145   6
   8   1   1 469.089  26.350   6
  -1   8   1 447.872  19.075   4
   8   0  -1 60.7663  5.2462   4
   0  -8  -1 68.9872  5.9796   4
   0   8  -1 72.8221  8.9498   6
   0  -8  -1 78.0476  6.8903   5
  -8   0  -1 76.1143  7.0285   5
   0  -8  -1 87.4466 10.1102   6
   8   0  -1 70.8632  8.1796   5
   0   8  -1 67.0057  7.1969   5
   8   0  -1 88.6745  8.9463   6
  -8   0  -1 72.9984  6.3748   5
   0   8  -1 74.7474  5.7373   4
   0   8  -1 74.3331  7.6687   5
   0  -8  -1 68.0248  9.0385   3
  -8   0  -1 65.9142  5.1979   4
   0   8  -1 83.8767  6.8513   1
   8   0   1 80.9683  8.1772   6
   0  -8   1 75.1729  6.6530   5
   0  -8   1 62.5587 10.3727   3
  -8   0   1 72.1805  8.0442   5
  -8   0   1 69.2797  9.0060   6
   0  -8   1 90.9913  9.7837   6
   0   8   1 72.9230  5.8654   4
   0  -8   1 82.6244  6.4768   4
   8   0   1 72.3830  5.8831   4
  -8   0   1 74.6169  7.7673   1
   0   8   1 70.9310  5.7834   4
   0   8   1 77.7267  7.1167   1
  -8   0   1 73.6495  5.9539   4
   0   8   1 76.7071  7.4227   5
   0   8   1 85.2063  9.3871   6
   0  -8   1 69.6188  5.3821   4
  -1  -8  -1 472.170  24.186   5
  -8   1  -1 499.024  22.842   5
   8  -1  -1 486.065  25.172   5
   1   8  -1 452.443  26.479   6
   1   8  -1 447.925  23.810   5
  -1  -8  -1 435.329  27.376   3
   1   8  -1 466.795  24.377   5
  -1  -8  -1 492.302  24.038   5
   8  -1  -1 467.112  26.871   6
  -8   1  -1 431.691  22.508   2
   1   8  -1 482.762  21.541   1
  -1  -8  -1 496.340  26.863   6
  -8   1  -1 442.548  18.740   4
   8  -1  -1 448.623  19.310   4
  -8   1  -1 472.492  21.583   1
  -8   1  -1 435.884  23.247   5
   1   8  -1 454.366  19.031   4
  -1  -8  -1 451.813  19.173   4
   1   8   1 429.415  20.851   1
   8  -1   1 447.541  26.424   6
  -1  -8   1 433.770  19.038   4
   1   8   1 450.422  18.876   4
  -1  -8   1 451.534  26.881   6
  -8   1   1 478.537  22.055   1
   1   8   1 433.719  23.765   5
  -1  -8   1 432.348  23.491   5
  -1  -8   1 454.618  19.139   4
   1   8   1 461.639  19.257   4
  -8   1   1 466.072  19.494   4
  -1  -8   1 490.311  28.033   3
  -8   1   1 459.752  24.836   5
   1   8   1 533.745  27.838   6
  -8   1   1 463.455  27.189   6
   2   8  -1 -8.2256  4.9033   6
   8  -2  -1 -4.0733  5.1053   6
  -8   2  -1 -3.8374  2.9526   5
  -2  -8  -1 -0.5954  3.3440   4
   2   8  -1 2.63578 2.26532   4
   2   8  -1 2.41677 4.45889   5
   8  -2  -1 0.11340 2.28979   4
  -2  -8  -1 0.30786 4.56194   5
  -8   2  -1 -0.9407  4.3570   1
  -2  -8  -1 3.92546 6.00311   6
   2   8  -1 -2.2104  4.2822   1
  -2  -8  -1 10.0448  6.8137   3
  -8   2  -1 0.55131 2.87851   5
   2   8  -1 0.26695 4.39147   5
   8  -2  -1 0.95637 3.82532   5
  -8   2  -1 -1.1906  3.5756   2
  -2  -8  -1 -1.2864  3.6758   5
  -2  -8   1 7.38367 6.95003   6
   8  -2   1 -1.8208  4.5782   6
   2   8   1 0.48489 4.38385   1
   2   8   1 3.48549 5.94050   6
   2   8   1 -3.9190  3.2555   4
  -2  -8   1 2.20017 6.76637   3
   2   8   1 0.48368 5.05420   5
  -8   2   1 0.27314 3.41462   4
  -2  -8   1 -4.6891  3.3220   5
  -8   2   1 3.87221 6.43987   6
  -8   2   1 1.54449 4.93582   5
  -2  -8   1 1.66923 2.66459   4
  -2  -8   1 2.70908 2.22491   4
  -8   2   1 3.29288 4.82697   1
   3   8  -1 6.85283 5.03806   1
   8  -3  -1 6.81933 3.80305   4
   3   8  -1 15.7865  3.6748   4
  -3  -8  -1 14.0542  5.2336   5
   3   8  -1 10.5692  5.0405   5
   8  -3  -1 -0.2163  5.3780   5
   8  -3  -1 10.6318  5.6741   6
  -3  -8  -1 14.1221  6.0849   6
  -8   3  -1 11.5067  3.8766   5
  -8   3  -1 10.8964  3.4288   5
  -3  -8  -1 13.9370  4.4394   5
  -8   3  -1 7.73850 4.16459   2
  -3  -8  -1 13.2277  6.6298   3
  -8   3  -1 10.2696  5.0211   1
  -3  -8  -1 7.52458 3.73336   4
   3   8  -1 6.43149 4.80129   5
   3   8  -1 16.7276  7.3286   6
   3   8   1 12.5159  4.0103   4
  -8   3   1 13.8158  6.9882   6
  -3  -8   1 9.20440 7.67644   6
   3   8   1 14.4568  5.3297   1
  -8   3   1 7.84966 4.24134   5
  -8   3   1 6.14273 5.21652   1
   8  -3   1 6.68636 4.06541   6
   3   8   1 18.4688  6.7280   6
  -3  -8   1 7.40990 7.01050   3
  -3  -8   1 7.59963 4.15101   5
  -4  -8  -1 98.0790  9.8127   6
   8  -4  -1 102.198   7.130   4
   8  -4  -1 112.409   9.944   5
   4   8  -1 99.9334  7.3182   4
  -4  -8  -1 120.163   9.711   5
  -4  -8  -1 112.641   9.858   5
   4   8  -1 119.885  11.788   6
   4   8  -1 111.151   9.535   1
  -8   4  -1 111.705   9.302   1
  -8   4  -1 107.967   8.909   5
  -8   4  -1 109.635   9.101   5
   4   8  -1 81.5106  8.7307   5
  -4  -8  -1 101.307  10.886   3
   4   8  -1 112.337  10.439   5
   8  -4  -1 110.459  11.649   6
  -8   4   1 105.593   9.752   5
   4   8   1 107.556  11.178   6
  -4  -8   1 122.211  12.727   6
   8  -4   1 117.009  11.504   6
  -4  -8   1 101.610   8.539   5
   4   8   1 103.004   9.258   1
  -8   4   1 102.775   9.248   1
  -4  -8   1 115.225  12.286   3
  -8   4   1 119.146  11.870   6
  -8   5  -1 89.8969  8.2355   5
   8  -5  -1 103.377  10.244   6
   5   8  -1 113.919  11.407   6
  -5  -8  -1 84.8295  7.9079   5
  -8   5  -1 90.3651  7.7572   5
  -5  -8  -1 75.1189  8.5528   6
   5   8  -1 88.7147  9.0271   5
   5   8  -1 87.5381  9.0536   1
  -8   5  -1 95.8075  8.8984   1
  -5  -8  -1 95.8536  8.3686   5
  -5  -8  -1 77.6683  8.8260   3
   8  -5  -1 86.0263  9.4915   5
  -8   5   1 97.4338 10.8175   6
   5   8   1 101.947  10.894   6
  -8   5   1 82.8539  8.7601   1
   8  -5   1 95.7032 10.1837   6
  -5  -8   1 82.6510  8.6908   5
  -5  -8   1 91.6140 10.1627   3
   5   8   1 81.2611  8.1349   1
  -5  -8   1 86.5882 11.8518   6
  -8   5   1 81.4727  9.5322   5
   8  -6  -1 98.6257  9.3871   5
  -6  -8  -1 79.9967  8.1168   6
   6   8  -1 92.3204 10.0992   1
  -6  -8  -1 80.6854  8.1926   6
  -6  -8  -1 92.5452 10.0517   3
  -8   6  -1 83.9845  7.9410   5
  -6  -8  -1 70.8264  7.5381   5
  -8   6  -1 83.8170  7.6982   5
   6   8  -1 76.3317  9.0182   5
   8  -6  -1 94.9683 11.4400   6
   6   8  -1 103.534  11.146   6
  -8   6  -1 90.0787  8.9422   1
  -6  -8  -1 87.3466  7.7365   5
  -8   6   1 91.1051 10.9941   6
  -8   6   1 87.8828  8.3194   1
  -6  -8   1 76.3620  8.7568   5
   8  -6   1 93.2462 10.5689   6
  -8   6   1 75.2305  9.6526   5
  -6  -8   1 76.9056 12.0397   6
   6   8   1 85.7764 10.7138   6
   6   8   1 93.1666 10.0222   1
  -6  -8   1 84.3856 10.0778   3
  -7  -8  -1 142.731  10.116   5
  -8   7  -1 134.279   9.671   5
   8  -7  -1 157.682  13.863   5
  -8   7  -1 136.021  11.086   1
  -8   7  -1 144.494  10.195   5
   7   8  -1 141.722  14.850   6
  -7  -8  -1 125.300  12.120   3
   8  -7  -1 107.099  12.028   6
  -7  -8  -1 134.900  10.570   5
   7   8  -1 97.8090 11.1401   1
   7   8  -1 121.234  11.518   5
  -8   7   1 128.727  12.163   5
  -8   7   1 134.789  11.826   1
  -7  -8   1 115.871  10.472   5
  -8   7   1 135.483  13.278   6
   8  -7   1 115.473  12.851   6
   7   8   1 145.473  13.759   6
  -7  -8   1 127.402  12.653   3
  -7  -8   1 112.808  14.061   6
  -8   8  -1 2.28612 4.51521   5
   8  -8  -1 -4.1245  7.4980   6
   8   8  -1 2.24631 7.98798   1
   8  -8  -1 2.51307 7.05505   5
   8   8  -1 -2.5798  7.0491   5
  -8  -8  -1 -2.7770  4.8366   5
   8   8  -1 2.42168 6.81907   6
  -8  -8  -1 -5.0919  4.8315   5
  -8   8  -1 3.33506 6.45717   1
  -8   8  -1 3.66715 4.06799   5
  -8  -8   1 -3.6477  5.4034   5
  -8   8   1 -5.6839  6.4137   5
  -8   8   1 3.80171 5.16512   1
  -8  -8   1 0.66176 9.58573   6
  -8   8   1 6.22850 8.39935   6
   8  -8   1 -8.5880  7.5569   6
  -8  -8   1 -8.8464  7.1378   3
   8   8   1 -0.5928  7.9699   6
   8  -9  -1 70.5889 11.7373   6
   9   8  -1 63.9183 10.2978   5
  -8   9  -1 79.0314  5.8501   5
   9   8  -1 88.6728 10.4680   1
  -9  -8  -1 70.1901  6.5325   5
   8  -9  -1 82.9563 10.4984   5
  -8   9  -1 78.8179  5.9022   5
  -9  -8  -1 81.0990  7.1900   5
  -8   9  -1 80.1739  8.6159   1
   9   8   1 74.5593 12.0655   6
  -9  -8   1 71.4485  9.5651   5
  -8   9   1 86.8710 11.4764   6
  -8   9   1 64.1987 10.1652   5
   8  -9   1 79.6067 12.2653   6
  -9  -8   1 73.7761 11.8381   3
  -8   9   1 106.127  11.529   1
  -9  -8   1 72.6739 11.7617   6
  -9  -7  -1 130.445   9.188   5
  -9  -7  -1 122.942   9.782   5
   7  -9  -1 146.136  12.422   5
  -7   9  -1 108.196   9.972   1
  -7   9  -1 139.915   9.978   5
  -7   9  -1 135.843  10.062   5
   9   7  -1 105.059  12.107   5
   7  -9  -1 125.897  14.224   6
  -7   9   1 120.145  12.125   5
   9   7   1 109.852  13.113   6
  -9  -7   1 114.910  13.045   3
  -7   9   1 124.203  12.000   1
  -9  -7   1 120.397  13.724   6
  -7   9   1 143.902  13.930   6
  -9  -7   1 111.989  11.402   5
   7  -9   1 123.447  13.966   6
   9   6  -1 31.9386  8.7817   5
  -6   9  -1 35.5931  7.6840   1
   6  -9  -1 39.7096 10.8566   6
  -6   9  -1 35.7676  6.7235   5
   6  -9  -1 40.6806  8.1636   5
  -9  -6  -1 40.6643  5.7015   5
  -6   9  -1 41.8458  6.6807   5
  -9  -6  -1 39.0262  6.1811   5
   9   6   1 35.4338  8.8178   6
  -6   9   1 45.2974  8.4936   5
   6  -9   1 38.1578  7.9367   6
  -6   9   1 42.3237  8.2396   1
  -9  -6   1 38.4883  6.3470   5
  -6   9   1 46.7023  9.8339   6
  -9  -6   1 43.7325  9.7612   6
   5  -9  -1 238.305  18.404   6
  -5   9  -1 214.299  14.525   1
  -9  -5  -1 233.333  13.537   5
   5  -9  -1 227.307  16.079   5
  -5   9  -1 242.692  14.608   5
  -5   9  -1 234.311  14.647   5
   9   5  -1 224.994  17.171   5
  -9  -5  -1 228.638  13.682   5
  -9  -5   1 210.189  18.128   6
  -5   9   1 215.807  16.522   5
  -9  -5   1 217.315  15.845   5
   5  -9   1 218.213  18.332   6
  -5   9   1 219.320  15.016   1
  -5   9   1 252.420  18.856   6
   9   5   1 211.455  16.057   6
   4  -9  -1 632.262  31.419   5
  -4   9  -1 611.961  28.013   1
  -4   9  -1 680.183  31.990   6
  -9  -4  -1 601.795  29.314   5
  -9  -4  -1 577.859  29.834   5
   9   4  -1 566.231  31.979   5
  -4   9  -1 625.279  31.194   5
  -4   9  -1 601.363  30.518   5
  -4   9   1 562.133  31.376   5
  -4   9   1 604.384  28.279   1
   9   4   1 576.093  34.624   6
  -9  -4   1 584.350  34.995   6
  -4   9   1 642.734  35.684   6
   4  -9   1 536.358  36.195   3
   4  -9   1 617.412  35.625   6
  -9  -4   1 606.934  31.246   5
  -3   9  -1 111.868   9.147   6
   3  -9  -1 94.5886 11.1426   6
   9   3  -1 104.541  10.451   6
  -9  -3  -1 91.5227  8.2631   5
   9   3  -1 90.4922 10.0487   5
   3  -9  -1 99.6327  9.2462   5
  -9  -3  -1 80.3369  7.8869   5
  -3   9  -1 99.9679  9.0403   5
  -3   9  -1 88.7683  8.8555   1
  -3   9  -1 99.9912  8.7313   5
  -9  -3   1 91.4633 10.7158   6
  -3   9   1 94.8608  9.0992   1
  -3   9   1 102.965  11.661   6
  -3   9   1 92.0561  9.2141   5
   9   3   1 87.8493 10.1233   6
   3  -9   1 74.2056 12.6042   3
  -9  -3   1 83.6292  9.2498   5
   3  -9   1 90.3904 11.3023   6
   9   2  -1 645.906  28.857   4
   2  -9  -1 719.641  39.685   6
  -9  -2  -1 690.119  33.536   5
  -2   9  -1 699.568  35.589   5
   2  -9  -1 661.101  40.143   3
  -2   9  -1 704.932  34.762   5
  -2   9  -1 723.514  38.047   6
   9   2  -1 744.977  39.310   6
  -9  -2  -1 707.173  34.023   5
  -2   9  -1 728.132  31.425   1
   2  -9  -1 741.592  35.210   5
   9   2   1 688.468  39.138   6
  -9  -2   1 701.042  35.446   5
  -2   9   1 682.603  35.382   5
  -2   9   1 666.022  30.816   1
   2  -9   1 714.074  40.320   6
  -9  -2   1 728.367  39.593   6
  -2   9   1 734.936  40.037   6
   2  -9   1 670.603  39.334   3
  -1   9  -1 4.08523 4.84608   5
   1  -9  -1 9.21934 5.88742   5
  -9  -1  -1 8.94834 4.23133   5
   9   1  -1 4.56793 5.97979   6
   1  -9  -1 7.71252 3.74113   5
   1  -9  -1 15.5977  6.8145   3
   1  -9  -1 2.54270 8.56282   6
  -1   9  -1 7.11533 4.82402   5
   9   1  -1 5.70825 2.90341   4
  -9  -1  -1 9.16255 3.83920   5
   9   1  -1 5.24893 6.69907   5
  -1   9  -1 0.30628 6.10498   6
  -1   9  -1 6.86196 5.07404   1
   9   1   1 10.9450  5.7323   6
   1  -9   1 9.14674 5.52650   6
   1  -9   1 12.3834  8.3097   3
  -1   9   1 5.84187 4.99448   1
  -9  -1   1 3.74836 5.20474   5
  -1   9   1 6.43523 4.33619   5
  -1   9   1 7.06513 6.89532   6
  -9  -1   1 -4.5451  6.7387   6
   0  -9  -1 5.50776 4.42693   5
   0  -9  -1 8.59454 8.26734   6
   9   0  -1 -1.1701  2.4817   4
   9   0  -1 -5.5838  4.1499   5
  -9   0  -1 1.97049 3.58111   5
   0  -9  -1 4.45122 5.83558   3
  -9   0  -1 5.09184 3.45442   5
   0   9  -1 -4.2188  6.1435   6
   0   9  -1 -1.7087  4.8305   1
   0   9  -1 11.1432  5.2810   5
   0  -9  -1 0.18072 5.92255   5
   9   0  -1 0.71999 5.95489   6
   0   9  -1 -2.6985  4.6570   5
   0   9   1 0.61678 4.91237   1
  -9   0   1 0.05613 6.65493   6
   9   0   1 3.30719 5.40015   6
   0  -9   1 19.4205  6.7170   3
   0   9   1 5.12503 6.75559   6
  -9   0   1 2.73843 5.03581   5
   0  -9   1 5.39311 7.54798   6
  -9   0   1 -1.2272  5.2585   1
   1   9  -1 3.82638 6.56982   6
   9  -1  -1 2.62327 7.38103   6
   1   9  -1 6.20881 5.17723   5
  -1  -9  -1 -2.2211  8.2726   6
   1   9  -1 5.30563 4.98589   5
  -1  -9  -1 10.1490  4.5419   5
  -1  -9  -1 6.41128 5.68112   5
   1   9  -1 9.13891 3.90213   1
   9  -1  -1 2.64811 6.37628   5
  -9   1  -1 4.18990 3.10981   5
  -9   1  -1 5.11519 3.40921   5
   9  -1  -1 10.8501  3.0942   4
  -1  -9  -1 3.60741 5.44407   3
  -1  -9   1 11.9669  8.3881   3
  -9   1   1 6.12282 7.04659   6
   1   9   1 8.04482 5.22063   6
  -9   1   1 1.90068 5.40330   5
  -1  -9   1 4.30102 7.99131   6
  -9   1   1 5.68308 5.62647   1
   1   9   1 5.63802 5.12288   1
   2   9  -1 654.458  38.307   6
  -2  -9  -1 735.315  39.139   6
   2   9  -1 741.666  35.564   5
   9  -2  -1 704.421  38.720   6
  -2  -9  -1 665.694  38.023   3
  -9   2  -1 641.161  33.572   5
  -2  -9  -1 698.395  34.322   5
   2   9  -1 712.721  34.903   5
  -9   2  -1 764.526  33.552   5
   2   9  -1 731.053  31.370   1
  -9   2  -1 676.938  31.136   1
  -2  -9  -1 682.118  34.622   5
   9  -2  -1 662.323  35.862   5
  -9   2   1 695.500  31.114   1
   9  -2   1 686.917  39.020   6
   2   9   1 688.015  30.697   1
   2   9   1 675.869  38.938   6
  -9   2   1 725.161  39.520   6
  -9   2   1 691.258  35.751   5
  -2  -9   1 713.190  39.388   3
  -2  -9   1 718.880  40.297   6
  -3  -9  -1 109.585   9.915   5
  -9   3  -1 93.7008  8.1741   5
  -9   3  -1 87.6478  8.7777   2
  -3  -9  -1 91.7067  8.9866   5
  -9   3  -1 99.7624  8.0329   5
   9  -3  -1 90.4514 10.0931   5
   3   9  -1 80.4206  8.6962   5
   3   9  -1 99.3246  9.9530   6
  -3  -9  -1 76.8341  9.6353   6
   9  -3  -1 98.9356 10.2782   6
  -9   3  -1 80.0407  8.9351   1
  -3  -9  -1 78.1653 10.8493   3
   3   9  -1 101.550   9.344   1
  -3  -9   1 85.0117 11.8129   3
   3   9   1 102.523   9.202   1
  -9   3   1 90.5816  9.3982   1
  -9   3   1 106.494  11.559   6
   9  -3   1 88.8839 10.3875   6
   3   9   1 100.907  11.186   6
  -9   3   1 91.4411  9.7798   5
  -3  -9   1 91.9770 12.3217   6
  -9   4  -1 563.942  31.820   2
  -4  -9  -1 572.779  34.514   3
  -4  -9  -1 624.329  30.949   5
   4   9  -1 607.457  35.278   6
   9  -4  -1 618.780  34.904   6
   9  -4  -1 571.747  32.436   5
  -4  -9  -1 623.556  33.791   6
  -9   4  -1 668.017  29.726   5
  -9   4  -1 611.702  28.485   1
  -4  -9  -1 649.414  31.594   5
   4   9  -1 584.854  28.334   1
   4   9  -1 586.994  31.429   5
  -4  -9   1 627.195  36.668   6
  -9   4   1 621.696  32.591   5
   9  -4   1 609.588  35.339   6
  -9   4   1 636.221  35.880   6
  -4  -9   1 653.275  35.909   3
   4   9   1 567.042  27.903   1
   4   9   1 633.194  35.982   6
  -9   4   1 633.133  29.095   1
   9  -5  -1 201.548  16.747   5
   9  -5  -1 204.736  16.518   6
   5   9  -1 223.678  15.124   1
  -5  -9  -1 213.083  14.229   5
  -9   5  -1 234.479  13.543   5
   5   9  -1 195.495  15.420   5
  -5  -9  -1 238.784  15.320   5
  -9   5  -1 245.459  13.284   5
  -5  -9  -1 214.689  14.189   6
   5   9  -1 222.891  17.770   6
  -5  -9  -1 198.649  17.120   3
  -9   5  -1 224.475  14.654   1
   5   9   1 223.007  16.262   6
   5   9   1 218.600  13.934   1
  -9   5   1 218.195  15.361   1
   9  -5   1 200.981  17.260   6
  -5  -9   1 218.687  17.061   3
  -9   5   1 228.668  16.626   5
  -9   5   1 220.454  17.922   6
  -5  -9   1 251.268  20.159   6
   6   9  -1 22.7488  8.7173   6
  -6  -9  -1 28.4740  6.8299   5
  -9   6  -1 24.9505  5.0048   5
  -9   6  -1 44.3481  6.4951   1
  -6  -9  -1 29.5894  8.1681   3
   9  -6  -1 28.1514  8.1370   5
   6   9  -1 35.2964  7.5553   5
   9  -6  -1 37.4139  9.9311   6
   6   9  -1 19.5445  7.7622   1
  -9   6  -1 38.9767  5.0233   5
  -6  -9  -1 44.9843  7.2771   5
  -9   6   1 38.1427  8.2307   5
  -6  -9   1 23.6796  7.1257   3
   6   9   1 38.7833  8.3458   1
  -6  -9   1 39.8641 11.4777   6
  -9   6   1 31.7393  8.9205   6
  -9   6   1 42.3940  6.9274   1
   6   9   1 39.4370  9.5357   6
   9  -6   1 44.4968  9.0425   6
   9  -7  -1 94.0790 12.9106   6
   9  -7  -1 135.464  12.671   5
   7   9  -1 150.148  15.270   6
   7   9  -1 119.881  12.219   1
  -7  -9  -1 119.963  10.302   5
  -7  -9  -1 121.774  10.644   5
   7   9  -1 107.446  11.294   5
  -9   7  -1 127.421   8.645   5
  -9   7  -1 131.089   8.665   5
  -9   7  -1 112.046  10.748   1
  -9   7   1 112.025  12.007   5
  -7  -9   1 123.485  14.533   6
   9  -7   1 130.559  13.462   6
  -9   7   1 122.412  12.891   6
  -7  -9   1 117.197  12.736   3
   7   9   1 111.818  10.868   1
  -9   7   1 110.074  11.680   1
   7   9   1 136.751  14.300   6
   9  -8  -1 86.4202 10.7060   5
   9  -8  -1 84.3283 11.6779   6
   8   9  -1 69.3469 11.2612   1
  -8  -9  -1 72.8965  7.2458   5
  -8  -9  -1 76.7675  7.0833   5
  -9   8  -1 78.1601  9.5873   1
   8   9  -1 85.3623  9.9518   6
   8   9  -1 70.3046 10.0755   5
  -9   8   1 104.685  11.529   6
  -8  -9   1 79.8710 11.9307   3
   8   9   1 60.0517 10.9903   1
  -9   8   1 61.8654 10.1256   5
  -9   8   1 67.5657  8.7873   1
   9  -8   1 86.7818 12.0466   6
  -8  -9   1 74.9173  9.3603   5
   8   9   1 68.2161 12.1227   6
  -8  -9   1 79.8304 12.5324   6
   9   9  -1 -11.136   8.987   1
   9  -9  -1 -0.4665  7.3486   5
   9   9  -1 -1.3482  7.5661   5
  -9   9  -1 8.82611 7.48275   1
   9  -9  -1 -15.159   9.250   6
  -9  -9   1  4.7763 11.5180   6
  -9  -9   1 -0.4090  6.4469   5
  -9  -9   1 -2.6077  8.2380   3
  -9   9   1 -5.3910  7.9968   1
  -9   9   1 -2.1743  9.1551   6
   9   9   1 -1.9065  9.4653   1
  -9   9   1 -10.506   6.834   5
   9  -9   1 -4.1590  9.7917   6
   9   9   1 -1.8931  9.5562   6
  -9  10  -1 154.045  13.933   1
   9 -10  -1 175.086  16.122   5
  10   9  -1 214.749  16.260   6
  10   9  -1 180.743  16.803   5
   9 -10  -1 203.325  17.474   6
  10   9  -1 177.725  16.836   1
  -9  10   1 188.414  15.820   6
  -9  10   1 187.847  15.966   1
 -10  -9   1 188.052  16.029   5
  10   9   1 175.723  16.922   1
  -9  10   1 170.956  16.500   5
   9 -10   1 162.458  17.743   6
  10   9   1 214.165  20.210   6
 -10  -9   1 202.288  19.315   6
  10   8  -1 62.8535 10.7008   6
  -8  10  -1 70.9559  9.9125   1
  10   8  -1 66.4574 10.6799   5
   8 -10  -1 58.3279 10.7995   6
   8 -10  -1 85.2828 10.4866   5
  10   8  -1 60.0218 11.8923   1
 -10  -8   1 85.4473 10.2650   5
  -8  10   1 86.3905 10.8969   6
   8 -10   1 66.1856 12.7546   6
 -10  -8   1 81.7629 13.3565   6
  -8  10   1 68.9538 11.2194   1
  10   8   1 79.5599 12.7682   6
  -8  10   1 67.8226 10.6356   5
 -10  -8   1 78.3035 12.1646   3
  -7  10  -1 655.238  31.262   5
  10   7  -1 666.604  39.056   6
   7 -10  -1 681.964  38.316   6
  10   7  -1 663.660  36.434   5
  -7  10  -1 655.303  31.889   1
   7 -10  -1 659.179  35.392   5
  -7  10  -1 674.164  31.259   5
  -7  10   1 662.731  36.308   5
   7 -10   1 684.325  40.851   6
 -10  -7   1 645.972  35.657   5
 -10  -7   1 652.458  39.189   6
  -7  10   1 713.340  39.098   6
  10   7   1 673.356  39.976   6
 -10  -7   1 729.028  38.982   3
  -7  10   1 665.269  32.722   1
  10   6  -1 216.933  19.217   6
 -10  -6  -1 241.648  12.161   5
  10   6  -1 248.666  19.243   5
  -6  10  -1 206.947  15.534   1
  -6  10  -1 231.036  14.120   5
  -6  10  -1 233.378  13.986   5
 -10  -6  -1 214.837  12.419   5
   6 -10  -1 217.227  19.888   6
   6 -10  -1 229.416  16.925   5
 -10  -6   1 216.731  16.652   5
  -6  10   1 224.033  17.768   5
  -6  10   1 227.221  19.234   6
  10   6   1 222.723  18.985   6
  -6  10   1 225.436  16.566   1
 -10  -6   1 208.607  20.738   6
   6 -10   1 223.941  19.732   6
   5 -10  -1 345.896  22.144   6
  10   5  -1 315.235  21.557   5
  -5  10  -1 304.404  18.357   5
  -5  10  -1 313.120  18.430   5
 -10  -5  -1 283.516  16.635   5
  10   5  -1 317.704  21.678   6
 -10  -5  -1 330.554  16.419   5
  -5  10  -1 290.021  18.169   1
   5 -10  -1 326.192  20.117   5
 -10  -5   1 287.885  19.738   5
  -5  10   1 330.239  23.150   6
   5 -10   1 302.171  23.208   6
  10   5   1 293.963  21.793   6
 -10  -5   1 325.442  22.371   6
  -5  10   1 307.674  18.911   1
  -4  10  -1 70.7934  8.1229   5
  10   4  -1 89.6890 10.7812   6
   4 -10  -1 88.3346 11.5736   6
  10   4  -1 76.9628 10.7605   5
   4 -10  -1 91.3263  9.8610   5
 -10  -4  -1 86.9441  7.4520   5
  -4  10  -1 83.5859  9.5558   1
  -4  10  -1 95.0880  8.8613   5
  -4  10   1 86.0046  9.9166   1
   4 -10   1 76.2690 12.1049   3
 -10  -4   1 99.7275 13.1373   6
  10   4   1 88.0239 10.9852   6
 -10  -4   1 85.3643  9.7956   5
   4 -10   1 82.6944 12.3745   6
  -4  10   1 109.974  12.471   6
  10   3  -1 102.103  11.336   5
  -3  10  -1 92.0154  9.2114   5
 -10  -3  -1 68.7015  7.2270   5
   3 -10  -1 76.2331 10.8522   6
  -3  10  -1 101.279   9.968   1
  -3  10  -1 103.766   7.891   6
 -10  -3  -1 97.4577  8.0274   5
  -3  10  -1 96.1760  9.9009   5
  10   3  -1 103.527  11.273   6
   3 -10  -1 109.221   9.949   5
 -10  -3   1 86.9185  9.9991   5
  -3  10   1 98.9686 12.2752   6
   3 -10   1 89.4333 14.6294   3
  10   3   1 102.276  11.348   6
  -3  10   1 94.8913  8.9887   1
   3 -10   1 96.2233 12.6300   6
 -10  -3   1 93.1479 11.6691   6
  10   2  -1 108.811  11.914   5
  -2  10  -1 115.669   9.980   6
  -2  10  -1 138.453  12.607   5
 -10  -2  -1 117.390   9.620   5
  10   2  -1 146.457  13.822   6
   2 -10  -1 134.045  14.344   6
  -2  10  -1 132.575  12.016   5
 -10  -2  -1 134.025   9.172   5
   2 -10  -1 130.708  11.154   5
  -2  10  -1 151.184  11.423   1
 -10  -2   1 128.333  13.160   6
  -2  10   1 119.323  10.782   1
  10   2   1 130.855  12.701   6
   2 -10   1 139.192  14.427   6
 -10  -2   1 120.735  11.563   5
  -2  10   1 144.326  14.013   6
   2 -10   1 123.081  13.993   3
  -1  10  -1 1106.42   44.80   1
  -1  10  -1 1046.69   50.65   5
 -10  -1  -1 968.922  48.529   5
  10   1  -1 1017.96   51.71   5
   1 -10  -1 1105.34   50.31   5
  -1  10  -1 1058.48   50.06   5
  10   1  -1 1073.81   56.86   6
   1 -10  -1 964.817  55.435   3
   1 -10   1 969.658  56.242   3
   1 -10   1 1060.97   57.71   6
 -10  -1   1 1039.29   56.61   6
  10   1   1 1053.28   56.63   6
  -1  10   1 1070.85   44.85   1
  -1  10   1 1087.75   57.48   6
 -10  -1   1 1022.08   50.76   5
   0  10  -1 625.306  27.729   1
   0 -10  -1 610.752  30.447   5
   0 -10  -1 523.611  34.109   3
   0 -10  -1 593.798  33.989   6
   0  10  -1 579.944  31.078   5
   0  10  -1 594.327  30.430   5
  10   0  -1 613.763  34.078   6
 -10   0  -1 568.336  28.722   5
 -10   0  -1 626.670  28.470   5
  10   0  -1 546.164  32.180   5
   0  10  -1 574.429  32.754   6
   0  10   1 621.112  35.183   6
   0  10   1 572.788  27.562   1
   0 -10   1 603.310  35.844   6
 -10   0   1 572.821  31.395   5
   0 -10   1 568.132  35.784   3
 -10   0   1 575.967  34.352   6
 -10   1  -1 1048.59   48.42   5
  -1 -10  -1 956.482  55.341   3
   1  10  -1 1114.32   44.71   1
   1  10  -1 1004.72   51.55   5
  -1 -10  -1 1087.00   49.93   5
   1  10  -1 1025.62   49.89   5
  -1 -10  -1 1090.06   50.58   5
  10  -1  -1 1057.36   55.91   6
  10  -1  -1 1002.20   51.30   5
  -1 -10   1 983.541  55.795   3
   1  10   1 1050.24   57.00   6
 -10   1   1 1039.83   56.54   6
 -10   1   1 1004.42   50.89   5
  10  -1   1 1032.08   56.49   6
  -1 -10   1 1081.60   57.62   6
 -10   1   1 1048.08   45.26   1
   1  10   1 1009.83   44.51   1
  -2 -10  -1 128.249  11.384   5
   2  10  -1 137.316  12.466   5
 -10   2  -1 146.377   9.222   5
  -2 -10  -1 151.473  13.015   6
  10  -2  -1 122.061  12.694   5
 -10   2  -1 137.304   9.578   5
   2  10  -1 153.555  11.477   1
  -2 -10  -1 128.481  11.179   5
  10  -2  -1 129.569  13.280   6
  -2 -10  -1 129.732  14.496   3
   2  10  -1 107.458  11.566   6
 -10   2   1 132.404  11.845   1
  10  -2   1 137.373  13.690   6
  -2 -10   1 152.295  15.235   6
 -10   2   1 138.719  13.719   6
  -2 -10   1 133.695  15.123   3
   2  10   1 115.594  13.426   6
 -10   2   1 120.936  11.133   5
   2  10   1 121.862  10.098   1
   3  10  -1 94.9188  9.6926   5
  -3 -10  -1 105.306  10.026   5
 -10   3  -1 107.130   8.175   5
   3  10  -1 80.6606  9.4866   1
 -10   3  -1 92.3448  8.0576   5
  10  -3  -1 98.5414 11.5946   6
  -3 -10  -1 76.9734 10.5246   3
  10  -3  -1 84.3045 11.1287   5
  -3 -10  -1 93.8978  9.9823   6
 -10   3  -1 94.1097  9.9966   1
  -3 -10  -1 93.0301  9.5431   5
   3  10  -1 85.6909 10.6846   6
  10  -3   1 101.587  11.510   6
   3  10   1 67.6428  8.9780   1
   3  10   1 92.1919 12.0560   6
 -10   3   1 83.9194  9.9556   1
 -10   3   1 114.094  10.204   5
  -3 -10   1 90.1257 11.7218   3
 -10   3   1 97.0845 11.8581   6
  -3 -10   1 97.5550 13.4742   6
 -10   4  -1 88.5978  7.4198   5
 -10   4  -1 101.064  10.190   2
   4  10  -1 82.4675 10.2299   6
  -4 -10  -1 81.3235  8.8474   5
  -4 -10  -1 102.212   9.660   5
  10  -4  -1 82.2792 10.3083   6
   4  10  -1 78.5530  9.3057   5
  -4 -10  -1 60.7913 11.2483   3
 -10   4  -1 91.4412  9.8722   1
  10  -4  -1 82.2313 11.2180   5
 -10   4  -1 84.9732  7.9510   5
   4  10  -1 104.109  10.445   1
  -4 -10  -1 94.8379  8.5957   6
   4  10   1 83.7035  9.8712   1
  -4 -10   1 84.2983 12.5908   3
 -10   4   1 96.6360 12.7409   6
  -4 -10   1 95.0117 13.8033   6
 -10   4   1 87.0416 10.2443   5
   4  10   1 88.0040 12.0529   6
 -10   4   1 87.6670 10.1938   1
  10  -4   1 73.6434 10.7533   6
   5  10  -1 312.044  20.368   6
 -10   5  -1 320.086  15.472   5
 -10   5  -1 331.030  15.792   5
  -5 -10  -1 295.612  22.219   3
  10  -5  -1 287.892  21.489   5
 -10   5  -1 275.139  19.910   2
  -5 -10  -1 330.012  18.489   5
  -5 -10  -1 291.656  17.890   5
   5  10  -1 279.576  18.632   1
   5  10  -1 303.955  19.710   5
 -10   5  -1 303.331  18.416   1
  10  -5  -1 300.283  21.939   6
 -10   5   1 290.034  19.002   5
 -10   5   1 327.178  21.976   6
  -5 -10   1 321.091  23.788   3
  10  -5   1 308.494  21.957   6
   5  10   1 305.963  23.228   6
   5  10   1 298.769  18.872   1
  -5 -10   1 308.893  24.561   6
 -10   5   1 311.010  19.328   1
  -6 -10  -1 238.085  14.671   5
   6  10  -1 225.933  17.745   6
   6  10  -1 203.242  16.698   5
  10  -6  -1 229.178  18.450   5
 -10   6  -1 203.505  17.607   2
  10  -6  -1 233.093  17.749   6
  -6 -10  -1 229.370  14.993   5
  -6 -10  -1 197.719  18.282   3
   6  10  -1 230.691  17.009   1
 -10   6  -1 235.649  15.994   1
  -6 -10   1 222.571  21.194   6
 -10   6   1 241.498  18.544   6
 -10   6   1 235.131  17.037   1
   6  10   1 218.479  20.154   6
  -6 -10   1 230.053  20.548   3
 -10   6   1 212.825  15.623   5
  10  -6   1 202.857  18.159   6
   6  10   1 226.012  15.208   1
 -10   7  -1 640.314  37.618   2
   7  10  -1 636.252  38.118   6
 -10   7  -1 692.577  32.322   1
  10  -7  -1 709.119  38.716   6
  10  -7  -1 654.928  36.319   5
   7  10  -1 680.507  33.448   1
   7  10  -1 652.381  35.614   5
  -7 -10  -1 687.947  33.086   5
  -7 -10  -1 705.765  32.732   5
 -10   7   1 681.902  33.182   1
  10  -7   1 695.760  40.278   6
   7  10   1 744.736  42.614   6
   7  10   1 654.400  33.434   1
  -7 -10   1 636.802  40.510   6
  -7 -10   1 679.400  39.100   3
 -10   7   1 686.416  38.688   6
 -10   7   1 660.058  36.225   5
   8  10  -1 75.5336 11.9762   1
 -10   8  -1 63.3432  9.8480   1
  10  -8  -1 61.3602 10.8710   6
   8  10  -1 56.8013  9.7296   5
  10  -8  -1 84.4755 10.9718   5
 -10   8  -1 60.9106 11.9093   2
 -10   8   1 81.4816 10.1837   6
 -10   8   1 70.5481 11.1995   1
  10  -8   1 83.3690 12.6725   6
 -10   8   1 78.9971 10.3925   5
  -8 -10   1 85.3896 12.9757   6
   8  10   1 78.6663 13.1554   6
  -8 -10   1 98.9723 13.8114   3
  -8 -10   1 77.2724 10.1008   5
   8  10   1 76.8778 12.0064   1
   9  10  -1 168.293  14.786   5
   9  10  -1 193.870  14.362   6
 -10   9  -1 204.838  16.232   1
  10  -9  -1 185.183  16.732   5
   9  10  -1 173.953  16.431   1
  10  -9  -1 173.192  18.112   6
  -9 -10   1 214.389  20.202   6
   9  10   1 185.313  19.947   6
 -10   9   1 200.914  16.835   6
  -9 -10   1 160.782  15.665   5
  -9 -10   1 186.067  18.570   3
  10  -9   1 204.779  20.328   6
 -10   9   1 170.978  16.058   5
 -10   9   1 192.391  16.296   1
   9  10   1 201.346  17.324   1
 -10  10  -1 10.9729 10.5806   2
  10 -10  -1 -9.0699  6.2382   6
  10  10  -1 -9.1201  6.6272   1
 -10  10   1 5.96481 6.08959   6
 -10 -10   1 -8.1000 10.0707   6
  10  10   1  2.6476 10.5226   6
  10  10   1 -10.370  10.538   1
  10 -10   1 -5.0768 10.6109   6
 -10  10   1 10.8463  9.8741   1
 -10  11  -1  7.1602 10.9585   2
  11  10  -1  9.2458 10.9383   1
  10 -11   1 -13.622  11.414   6
  11  10   1 -2.4116 11.2175   1
 -10  11   1 -4.2055  9.5351   1
  11  10   1  5.4940 13.5345   6
  -9  11  -1 68.6967 11.0626   1
  11   9  -1 64.5691 13.3585   1
  -9  11   1 61.7753  9.8511   1
  11   9   1 84.7099 11.9064   1
  -9  11   1 90.6793  9.4024   6
  11   9   1 101.880  16.103   6
   9 -11   1 58.0245 13.6288   6
 -11  -9   1 66.5331 10.7870   6
  11   8  -1 8.90849 8.68238   6
   8 -11  -1 6.18477 7.48149   5
   8 -11  -1 0.29318 7.93801   6
  -8  11  -1 9.26728 8.23187   1
  11   8  -1 -4.4667  8.0131   5
  11   8   1 11.5972 10.4687   6
   8 -11   1 13.6587 11.4423   6
  -8  11   1 2.83929 9.28513   6
 -11  -8   1 9.40605 9.77173   6
  -8  11   1 2.93907 7.76142   5
 -11  -8   1 8.29297 6.85348   5
  -8  11   1 10.8647  9.5914   1
  11   7  -1 65.3641 10.7329   6
  11   7  -1 49.6263 10.6533   5
  -7  11  -1 63.0670 10.0960   1
   7 -11  -1 67.9081  9.3879   5
   7 -11  -1 51.6939 10.0292   6
  11   7   1 62.0101 12.1959   6
   7 -11   1 55.4639 14.9578   6
 -11  -7   1 66.0054 12.2109   6
  -7  11   1 78.5832 11.0729   5
  -7  11   1 70.4111 11.2732   1
 -11  -7   1 86.0826 10.2957   5
  -7  11   1 62.1314 11.9741   6
  -6  11  -1 53.8210  5.1772   5
  -6  11  -1 42.1225  9.1276   1
  11   6  -1 37.1356 10.1640   5
   6 -11  -1 48.6980 10.5126   6
  -6  11  -1 40.2977  4.7350   5
   6 -11  -1 37.8935  8.3826   5
  11   6  -1 50.8929  9.4877   6
  -6  11   1 48.7628  9.8866   5
 -11  -6   1 35.7204  8.5016   5
   6 -11   1 36.8772 12.0854   6
  -6  11   1 48.7833  9.9335   1
  -6  11   1 49.7933 10.3398   6
 -11  -6   1 54.7234 11.7758   6
  11   6   1 42.7528 11.0087   6
   5 -11  -1 5.75620 9.82802   6
  -5  11  -1 -6.0939  4.7579   5
  -5  11  -1 -0.0490  7.2732   1
  11   5  -1 4.83119 7.81608   6
  11   5  -1 0.48606 8.80612   5
  -5  11  -1 5.55240 5.47814   5
   5 -11  -1 -1.2761  6.5949   5
  -5  11   1 -5.8010  7.3889   1
  11   5   1 3.42758 8.76150   6
 -11  -5   1 -4.7025  8.5309   6
  -5  11   1 1.46238 8.94187   6
   5 -11   1 -5.2826 10.1590   6
 -11  -5   1 -4.6032  6.2800   5
  11   4  -1 16.2378  8.2653   6
  -4  11  -1 16.9275  6.6057   5
  -4  11  -1 19.6484  6.8917   5
  11   4  -1 11.9113  8.7633   5
   4 -11  -1 27.3177 10.0110   6
   4 -11  -1 22.1548  7.3659   5
  -4  11  -1 12.1483  7.6578   1
  -4  11   1 16.8725  7.9146   1
  11   4   1 17.9046  8.7513   6
 -11  -4   1 30.8684  7.6435   5
 -11  -4   1 16.4135  9.2536   6
  -4  11   1 14.4043  9.5955   6
   4 -11   1 25.0503 11.0694   6
  -3  11  -1 -1.0011  5.6659   5
   3 -11  -1 10.0152  8.1259   5
  11   3  -1 1.26113 5.93818   5
  11   3  -1 -9.9828  7.5822   6
   3 -11  -1 4.93278 9.35761   6
  -3  11  -1 4.30592 6.63556   5
 -11  -3  -1 5.54394 1.96050   5
 -11  -3  -1 8.21228 2.62975   5
  -3  11  -1 0.02452 6.62990   1
 -11  -3   1 0.05396 8.48877   6
 -11  -3   1 -0.4959  6.1492   5
  -3  11   1 -0.5400  7.0922   1
   3 -11   1  0.7019 10.3508   6
  11   3   1 12.8701  8.3253   6
   3 -11   1 11.9251 11.4785   3
  -3  11   1 5.56326 9.15542   6
   2 -11  -1 9.92780 9.73735   6
  11   2  -1 5.51416 7.78576   6
  11   2  -1 2.26327 5.79852   5
   2 -11  -1 10.3185  6.1723   5
  -2  11  -1 -5.2003  6.6282   5
  -2  11  -1 6.16605 7.00187   1
  -2  11  -1 -8.6406  5.6796   5
 -11  -2  -1 0.13642 2.94851   5
 -11  -2  -1 1.96603 3.15317   5
  -2  11   1 2.72503 6.59542   1
   2 -11   1 -7.5705  9.8672   6
 -11  -2   1 2.10428 8.27928   6
  -2  11   1 -6.2207  8.7504   6
 -11  -2   1 -5.9835  6.0884   5
  11   2   1 -7.8903  7.2083   6
   2 -11   1  6.2868 10.3170   3
  -1  11  -1 1.18271 6.65510   1
  -1  11  -1 -6.4865  6.0307   5
   1 -11  -1 3.93653 7.35522   3
  -1  11  -1 -9.8465  5.1889   5
  -1  11  -1 -0.1163  4.1966   6
   1 -11  -1 0.86488 9.47232   6
   1 -11  -1 9.68090 5.89209   5
  11   1  -1 -3.4716  7.3082   6
 -11  -1   1 -4.0339  8.6038   6
  -1  11   1 -6.5746  4.3846   1
 -11  -1   1 -0.6397  6.2679   5
   1 -11   1 -9.3839  9.9057   3
  -1  11   1 -4.9567  8.4334   6
   1 -11   1 -18.877   9.824   6
  11   0  -1 -5.1219  8.8869   6
   0  11  -1 -0.3928  4.5100   1
   0  11  -1 -3.5896  6.3918   5
  11   0  -1 -14.894   8.678   5
   0 -11  -1 -0.1363  8.6230   6
   0 -11  -1 3.66397 5.49597   5
   0 -11  -1 -1.0430  9.8398   3
   0  11  -1 5.35333 6.01250   5
   0  11  -1 0.97819 5.10670   6
 -11   0   1 -3.1966  8.3240   6
  11   0   1 4.67434 7.40477   6
   0  11   1 2.08219 8.51598   6
   0  11   1 -2.4643  6.2016   1
   0 -11   1  8.9108 10.6019   3
 -11   0   1 4.98072 6.67316   5
   0 -11   1 -3.9054 10.4486   6
  11  -1  -1 1.83918 7.04514   6
  -1 -11  -1 3.97733 5.63851   5
  11  -1  -1 -12.300   8.774   5
   1  11  -1 -7.7701  5.6265   5
 -11   1  -1 4.16451 2.94960   5
  -1 -11  -1 5.06804 9.52612   3
   1  11  -1 1.54201 6.56293   1
  -1 -11  -1 -9.8559  7.5250   6
   1  11  -1 -8.3222  5.5527   6
 -11   1   1 -0.5028  6.3605   5
  11  -1   1 6.41839 7.69602   6
 -11   1   1 -12.713   9.761   6
  -1 -11   1 -8.0768 10.1157   3
   1  11   1 -1.1805  6.7204   1
  -1 -11   1  8.3358 10.9848   6
   1  11   1 -4.0561  8.8454   6
   2  11  -1 2.68171 6.07232   6
  -2 -11  -1 -0.3936  7.9098   6
  11  -2  -1 -3.6382  6.6677   6
   2  11  -1 -7.0035  6.4206   1
  -2 -11  -1 6.84077 6.78722   5
  -2 -11  -1 -3.3995  6.2617   3
   2  11  -1 -2.5906  6.0475   5
 -11   2  -1 0.70121 2.25458   5
 -11   2  -1 3.74885 2.22188   5
  11  -2  -1 -14.168   8.322   5
   2  11   1 9.72233 7.04520   1
 -11   2   1 -5.5913  6.2869   5
   2  11   1 6.04853 9.04065   6
 -11   2   1  3.5127 10.3438   6
  -2 -11   1 -4.6117  9.7275   3
  -2 -11   1  9.5397 10.9855   6
  11  -2   1 -3.1764  7.5462   6
 -11   2   1 -11.964   7.380   1
  -3 -11  -1 0.40750 5.53050   6
   3  11  -1 12.3392  7.3411   1
  11  -3  -1 7.50909 7.55653   6
   3  11  -1 8.67489 6.80065   6
  11  -3  -1 4.22836 8.85975   5
  -3 -11  -1 3.81002 6.65668   5
  -3 -11  -1 4.38416 6.36897   5
  -3 -11  -1 2.63473 8.96947   3
   3  11  -1 3.16682 6.09752   5
   3  11   1 -5.1324  6.7805   1
  -3 -11   1 -8.1146 11.0926   6
 -11   3   1 0.48174 6.74234   5
 -11   3   1 4.82113 7.88302   6
  11  -3   1 3.66913 8.21082   6
  -3 -11   1 -1.1763 10.1605   3
   3  11   1 4.75168 9.19771   6
 -11   3   1 5.87222 7.84422   1
  -4 -11  -1 25.6880  7.3273   5
 -11   4  -1 1.88650 7.45240   1
   4  11  -1 27.6267  7.2194   5
  11  -4  -1 24.3829  8.0817   6
  11  -4  -1 16.0224  7.0797   5
   4  11  -1 17.3925  8.1669   1
  -4 -11  -1 15.7949  6.4442   5
  -4 -11  -1 14.1309  9.4845   3
   4  11  -1 18.5229  6.9891   6
  -4 -11   1 23.6579  8.3643   3
  -4 -11   1 20.3661 12.2964   6
   4  11   1 20.4672 10.1161   6
   4  11   1 27.6517  8.2863   1
 -11   4   1 7.55423 8.22081   1
 -11   4   1 11.6138  7.3990   5
 -11   4   1 15.7813  8.3649   6
  11  -4   1 23.5786  8.9399   6
   5  11  -1 -2.0873  7.4804   6
  -5 -11  -1 -1.9800  6.3484   5
 -11   5  -1 -0.7880  7.3771   1
  11  -5  -1 7.15342 7.16545   6
  -5 -11  -1 -4.2131  8.2411   3
   5  11  -1 3.75196 7.79472   1
  -5 -11  -1 -9.9462  5.9175   5
   5  11  -1 4.26661 6.66652   5
  11  -5  -1 -5.1906  8.8632   5
  -5 -11   1 -0.8669  6.6423   3
 -11   5   1 0.92972 8.09231   1
 -11   5   1 2.73853 7.62195   6
   5  11   1 -7.8672  7.0322   1
  11  -5   1 3.28961 8.50042   6
  -5 -11   1 -0.7585 13.8101   6
   5  11   1 -9.3251  9.2933   6
 -11   5   1 -8.1389  6.7918   5
   6  11  -1 57.4723 10.0448   1
  -6 -11  -1 46.6533  6.6455   5
  -6 -11  -1 39.2809  6.5012   5
   6  11  -1 42.1918  9.5852   5
 -11   6  -1 36.9142  9.1746   1
  11  -6  -1 21.7898  9.7858   5
  11  -6  -1 42.6573 10.6338   6
   6  11  -1 40.5351  8.7094   6
 -11   6   1 45.4450 10.5375   1
   6  11   1 33.6438  9.5579   1
  11  -6   1 45.0215 10.6937   6
  -6 -11   1 51.9399 12.6041   6
 -11   6   1 58.1539 10.4903   6
   6  11   1 44.0732 11.6596   6
 -11   6   1 28.9684  8.3728   5
  -6 -11   1 38.2086 11.7776   3
 -11   7  -1 40.1517  9.4639   1
   7  11  -1 64.8066 10.9822   1
  11  -7  -1 65.1266 10.8738   5
 -11   7  -1 65.1626 10.9409   2
   7  11  -1 58.9645 10.5071   5
  11  -7  -1 58.4071 10.6337   6
  11  -7   1 55.8774 11.5045   6
  -7 -11   1 50.5751 12.4066   3
   7  11   1 53.6339 10.9155   1
  -7 -11   1 58.2693 12.6423   6
 -11   7   1 69.6102 10.7178   6
 -11   7   1 62.8033  9.7824   5
 -11   7   1 63.5252 11.1016   1
   7  11   1 63.7424 12.7493   6
 -11   8  -1 8.35692 8.32113   1
   8  11  -1 1.48928 9.90371   1
   8  11  -1 -6.2723  7.0117   5
  11  -8  -1 8.13138 8.83535   5
 -11   8  -1 11.6385  9.1376   2
  11  -8  -1 -1.0654  9.4831   6
  -8 -11   1 30.0473 12.8993   6
  11  -8   1  8.8364 10.1746   6
 -11   8   1 7.78424 7.41369   5
   8  11   1  7.3438 10.6729   6
  -8 -11   1 14.1927  7.4687   5
 -11   8   1 27.7450  7.8032   6
   8  11   1  4.4261 10.1193   1
  -8 -11   1  5.6868 10.0155   3
 -11   8   1 12.9744  9.6546   1
  11  -9  -1 86.7299 10.0853   6
 -11   9  -1 67.3518 12.9386   2
   9  11  -1 98.0351 13.2154   1
  -9 -11   1 79.3671 11.8470   6
 -11   9   1 91.3639 10.6024   1
   9  11   1 86.1580 14.3517   6
  11  -9   1 107.685  14.686   6
   9  11   1 80.8177 11.1627   1
 -11   9   1 88.0089  9.2994   6
 -11  10  -1  7.7141 10.3830   2
  10  11  -1  3.4320 10.6873   1
  11 -10   1 -8.4150 11.2325   6
 -11  10   1 14.1184  9.9824   1
  10  11   1  1.9441 13.0576   6
  10  11   1 -2.0317 10.6326   1
  11  11  -1 -13.801   9.587   1
 -11  11  -1 -3.9450 10.1299   2
  11 -11   1 -16.904  10.756   6
  11  11   1 -10.681  10.675   1
  11  11   1 -18.134  12.563   6
 -11  11   1 -2.8552  9.5076   1
 -11  12  -1 31.7839 12.2715   2
  11 -12   1  3.8047 12.9735   6
 -10  12  -1 33.4458 10.0496   2
  12  10  -1 35.9417 12.0089   1
 -10  12   1 43.0255  8.8340   1
  12  10   1 21.7951 12.6110   1
  10 -12   1  7.9235 14.0423   6
  -9  12  -1 76.4896 15.9049   2
  12   9  -1 72.2163 13.5194   1
   9 -12   1 64.9333 16.1951   6
  12   9   1 65.7105 13.3552   6
  -9  12   1 62.4952 12.2552   1
  12   9   1 80.8296 12.1227   1
  12   8  -1 129.947  15.668   1
  -8  12  -1 128.445  13.435   1
  12   8   1 148.052  18.222   6
  -8  12   1 130.188  13.297   6
   8 -12   1 100.760  15.511   6
  -8  12   1 126.681  14.483   1
  12   7  -1 281.592  22.128   5
  -7  12  -1 322.571  18.727   1
  12   7  -1 352.891  21.838   6
  12   7   1 321.071  25.189   6
   7 -12   1 293.304  28.799   6
 -12  -7   1 334.821  22.116   6
  -7  12   1 318.245  21.836   5
 -12  -7   1 271.113  20.476   5
  -7  12   1 292.211  21.241   1
  -7  12   1 338.247  22.671   6
  12   6  -1 90.1038 11.3500   6
  12   6  -1 69.6726 11.7218   5
   6 -12  -1 89.0285 10.0529   5
  -6  12  -1 101.637  11.818   1
   6 -12  -1 85.4378  9.4392   6
 -12  -6   1 77.4938 11.4041   6
  -6  12   1 89.0313 12.5797   6
  -6  12   1 84.2154 11.5453   5
  12   6   1 98.3465 15.4919   6
 -12  -6   1 77.7213 10.2842   5
  -6  12   1 99.8423 10.7796   1
   6 -12   1 82.4096 14.7695   6
  12   5  -1 90.7307 12.9600   5
   5 -12  -1 99.8993 11.5610   6
  12   5  -1 110.183  11.755   6
   5 -12  -1 120.207  11.203   5
  -5  12  -1 101.829  11.701   1
  12   5   1 131.726  14.916   6
  -5  12   1 127.746  13.100   1
 -12  -5   1 98.6162 12.8878   6
 -12  -5   1 109.506  11.615   5
  -5  12   1 134.612  13.526   6
   5 -12   1 106.572  15.788   6
  -4  12  -1 1.31677 7.50960   1
  12   4  -1 6.60559 9.35077   5
  -4  12  -1 -6.8604  5.3987   5
  -4  12  -1 5.64755 5.26528   5
   4 -12  -1 5.29436 9.70840   6
  12   4  -1 -7.0816  9.0248   6
   4 -12  -1 0.71674 6.67323   5
 -12  -4   1 0.53892 6.75736   5
  -4  12   1 -7.9700  8.7613   6
 -12  -4   1  9.5949 10.5409   6
  -4  12   1 -0.3334  8.2181   1
   4 -12   1 -8.2061 11.3803   6
  12   4   1 0.09177 9.27303   6
  -3  12  -1 45.8608  9.1847   1
   3 -12  -1 43.3983 10.7809   6
   3 -12  -1 56.8841  9.4774   5
  12   3  -1 29.3111 10.3789   5
  -3  12  -1 42.8106  6.9873   5
  12   3  -1 50.4282 11.1133   6
  -3  12  -1 49.1832  7.7805   5
 -12  -3   1 47.7036 10.0121   6
   3 -12   1 50.1290 13.2654   6
  -3  12   1 36.3611 10.6455   6
 -12  -3   1 39.9220  8.3195   5
   3 -12   1 53.5708 14.9331   3
  -3  12   1 40.4983  9.4923   1
  12   2  -1 124.763  12.660   6
  12   2  -1 86.8451 12.8010   5
   2 -12  -1 130.025  11.037   5
  -2  12  -1 117.839  11.071   5
  -2  12  -1 114.953  12.010   1
  -2  12  -1 88.3069  9.2808   5
   2 -12  -1 132.349  12.652   6
 -12  -2   1 144.388  14.693   6
  -2  12   1 111.297  10.854   1
   2 -12   1 138.270  16.922   6
 -12  -2   1 117.320  11.972   5
  -2  12   1 123.234  14.530   6
   2 -12   1 108.261  17.275   3
  12   2   1 145.118  14.780   6
   1 -12  -1 332.803  21.234   6
  -1  12  -1 301.047  19.457   1
  -1  12  -1 290.996  19.410   5
  12   1  -1 292.528  22.547   5
   1 -12  -1 348.357  19.615   5
  12   1  -1 316.552  21.759   6
   1 -12   1 304.438  27.110   3
 -12  -1   1 311.048  23.762   6
 -12  -1   1 308.731  20.771   5
  12   1   1 318.995  23.114   6
  -1  12   1 296.137  19.689   1
   1 -12   1 318.054  27.046   6
  -1  12   1 317.747  24.564   6
   0 -12  -1 261.385  16.109   5
   0 -12  -1 232.922  22.588   3
   0  12  -1 231.348  16.754   1
  12   0  -1 216.246  17.778   6
   0  12  -1 207.961  15.545   5
   0 -12  -1 245.451  17.052   6
 -12   0   1 259.995  20.704   6
 -12   0   1 202.377  17.339   5
   0  12   1 228.278  16.821   1
   0  12   1 235.906  21.467   6
   0 -12   1 172.469  19.361   3
  12   0   1 222.608  19.467   6
   0 -12   1 219.601  23.463   6
  -1 -12  -1 318.698  17.297   6
   1  12  -1 284.114  19.138   5
  -1 -12  -1 268.508  22.937   3
  -1 -12  -1 331.159  18.975   5
   1  12  -1 324.680  17.941   1
  12  -1  -1 272.092  23.200   5
  12  -1  -1 302.348  22.333   6
  -1 -12   1 303.473  26.077   6
 -12   1   1 314.571  20.835   5
   1  12   1 331.599  24.261   6
  12  -1   1 301.411  23.031   6
  -1 -12   1 303.484  26.738   3
   1  12   1 290.844  19.216   1
  12  -2  -1 130.791  13.389   6
   2  12  -1 104.818  11.550   1
  -2 -12  -1 122.350  11.059   5
  -2 -12  -1 71.1679 14.1929   3
   2  12  -1 132.020   8.874   6
   2  12  -1 109.465  11.874   5
  12  -2  -1 95.1618 14.0570   5
 -12   2   1 119.599  12.227   6
  12  -2   1 135.813  14.555   6
   2  12   1 129.788  14.739   6
  -2 -12   1 148.444  17.220   6
   2  12   1 100.070  11.591   1
 -12   2   1 92.1336 11.2792   5
 -12   2   1 128.022  13.785   1
  -2 -12   1 96.9855 16.0672   3
  12  -3  -1 29.9189 10.9527   5
  -3 -12  -1 44.7522  7.0654   5
   3  12  -1 31.5641  7.6196   5
  -3 -12  -1 44.4354 12.0271   3
   3  12  -1 47.1705  9.4920   1
   3  12  -1 46.8863  5.9419   6
  12  -3  -1 56.9684  9.2118   6
  -3 -12  -1 29.4553  8.7667   5
 -12   3   1 40.4871 10.2058   1
  -3 -12   1 31.1403 12.7623   3
 -12   3   1 30.9424  9.8484   6
  12  -3   1 44.0830 10.7857   6
   3  12   1 36.1784  9.4419   1
   3  12   1 46.4146 13.5099   6
 -12   3   1 33.2350  8.5433   5
  -3 -12   1 45.8169 13.6093   6
   4  12  -1 3.78846 8.38148   1
  -4 -12  -1 5.67558 6.82121   5
   4  12  -1 -0.5829  6.5486   5
  -4 -12  -1 11.5378  6.4051   5
  12  -4  -1 -2.1932  8.5609   6
  12  -4  -1 0.64405 9.29050   5
  -4 -12  -1 -3.2497  9.0587   3
   4  12  -1 -6.2088  5.0371   6
 -12   4   1 -0.7648  8.7804   6
   4  12   1 -1.1567  7.9536   1
  -4 -12   1  2.4022 12.0981   6
   4  12   1 0.99021 9.90399   6
  -4 -12   1  2.9552 10.5779   3
  12  -4   1 6.56659 9.05244   6
 -12   4   1 1.92845 8.97438   1
 -12   4   1 -1.0224  7.1655   5
 -12   5  -1 109.623  12.175   1
  -5 -12  -1 117.976   9.702   5
  12  -5  -1 114.329  13.668   5
   5  12  -1 129.967  11.631   1
   5  12  -1 115.194  12.062   5
  12  -5  -1 126.362  13.295   6
  -5 -12  -1 114.145   9.626   5
  -5 -12  -1 89.0007 13.8119   3
   5  12   1 89.4718 12.0475   1
  -5 -12   1 122.344  16.828   3
 -12   5   1 86.4788 11.0338   5
  12  -5   1 110.380  14.098   6
  -5 -12   1 113.392  15.919   6
 -12   5   1 114.471  13.498   1
 -12   5   1 147.317  13.900   6
   5  12   1 131.557  15.346   6
 -12   6  -1 70.0905 10.8405   1
  12  -6  -1 66.2066 11.8730   5
   6  12  -1 79.6038 11.7358   1
   6  12  -1 69.5132 10.7280   5
  12  -6  -1 82.4615 11.4805   6
 -12   6   1 96.9793 10.1296   6
  12  -6   1 85.4024 12.7119   6
 -12   6   1 70.7756 11.1215   5
 -12   6   1 89.0115 10.8692   1
   6  12   1 109.029  14.805   6
  -6 -12   1 73.2583 14.2075   3
   6  12   1 74.9760 12.3074   1
  -6 -12   1 103.968  14.541   6
  12  -7  -1 293.152  22.161   5
   7  12  -1 312.748  21.838   1
  12  -7  -1 292.859  22.278   6
  -7 -12   1 339.944  26.162   6
  12  -7   1 333.568  25.456   6
   7  12   1 332.927  25.598   6
   7  12   1 315.380  22.499   1
  -7 -12   1 313.666  26.495   3
  -7 -12   1 335.122  21.185   5
 -12   7   1 335.432  19.399   6
 -12   7   1 303.276  20.170   1
   8  12  -1 126.720  14.355   1
  12  -8  -1 115.736  12.034   6
   8  12   1 114.685  15.108   6
  -8 -12   1 149.871  15.476   6
   8  12   1 128.256  14.761   1
 -12   8   1 127.170  14.843   1
  -8 -12   1 116.534  16.162   3
   9  12  -1 46.0366 11.4391   1
   9  12   1 83.1442 13.4737   6
 -12   9   1 73.3949 12.5540   1
  12  -9   1 71.4163 13.7576   6
   9  12   1 46.8840 12.0434   1
  10  12  -1 21.0807 11.2167   1
  12 -10   1 23.1393 12.2745   6
 -12  10   1 63.6216 12.1487   1
  10  12   1 59.5149 14.0688   6
  10  12   1 33.8644 12.4112   1
  12 -11   1 -15.392  12.788   6
  13   9  -1 71.3607 13.7877   1
  -9  13  -1 110.445  16.934   2
  -9  13   1 89.9097 12.9325   1
  13   9   1 107.421  15.949   6
  13   9   1 104.483  15.779   1
   9 -13   1 95.8647 16.0302   6
  13   8  -1 4.65131 8.28689   1
   8 -13   1 10.4251 11.7847   6
  -8  13   1 18.6797  7.8121   1
  -7  13   1 6.27914 6.20495   6
  -7  13   1 -11.721   9.265   1
   7 -13   1 -13.080  11.473   6
  -6  13  -1 52.8905 10.2686   1
  13   6  -1 54.0738  8.0946   6
  -6  13   1 41.3450 10.8835   1
  -6  13   1 53.4404 10.4323   6
   6 -13   1 27.5719 13.0992   6
  13   5  -1 78.3878 12.6624   5
  13   5  -1 104.971  11.929   6
  -5  13  -1 90.1350 11.6378   1
   5 -13   1 91.5327 15.3132   6
  -5  13   1 107.834  13.022   6
 -13  -5   1 84.0773 10.0153   6
  -5  13   1 100.605  11.126   1
  -5  13   1 89.0064 12.1100   5
  -4  13  -1 317.628  20.469   1
  13   4  -1 272.126  23.205   5
  13   4  -1 335.713  22.787   6
   4 -13  -1 301.409  19.233   5
 -13  -4   1 278.719  20.298   5
  13   4   1 329.725  27.035   6
   4 -13   1 318.887  29.584   6
 -13  -4   1 329.065  21.757   6
  -4  13   1 264.682  21.010   1
  -4  13   1 367.618  24.386   6
   3 -13  -1 143.315  13.439   5
  -3  13  -1 152.070  13.955   1
  13   3  -1 178.809  16.535   6
  -3  13  -1 169.117   9.537   5
  -3  13  -1 163.898   9.547   5
  13   3  -1 133.665  15.363   5
  13   3   1 174.787  17.239   6
  -3  13   1 165.378  17.189   6
 -13  -3   1 144.667  13.450   5
   3 -13   1 177.442  19.138   6
  -3  13   1 157.096  14.813   1
 -13  -3   1 156.363  15.447   6
  13   2  -1 258.550  22.002   5
  -2  13  -1 303.152  19.796   1
  13   2  -1 299.708  21.349   6
   2 -13  -1 315.137  18.327   5
  -2  13  -1 281.366  16.786   5
  -2  13  -1 261.305  16.406   5
   2 -13   1 246.232  24.207   3
  -2  13   1 279.617  20.046   1
   2 -13   1 287.512  25.941   6
 -13  -2   1 251.838  19.212   5
  -2  13   1 278.955  24.350   6
  13   2   1 322.140  24.242   6
 -13  -2   1 307.161  20.845   6
  13   1  -1 17.5034 10.2248   5
  -1  13  -1 35.4288  9.5735   1
  -1  13  -1 23.9701  7.0078   5
   1 -13  -1 32.4494  6.8372   5
  -1  13  -1 30.6684  6.7108   5
  13   1  -1 23.8574  8.1138   6
   1 -13   1 27.2775 10.7952   3
 -13  -1   1 39.2588  9.4620   6
  -1  13   1 12.2075  9.1695   1
  13   1   1 42.6507 11.2893   6
  -1  13   1 28.7897 10.4864   6
 -13  -1   1 24.1526  7.7751   5
   1 -13   1 28.5246 13.4099   6
   0  13  -1 -1.1353  6.9063   5
  13   0  -1 -13.531   8.816   5
  13   0  -1 4.25798 7.34761   6
   0  13  -1 -1.8464  7.2005   5
   0 -13  -1 6.08487 6.92693   5
   0  13  -1 -9.1766  7.7810   1
 -13   0   1 4.02144 8.79063   6
   0 -13   1 -13.613  11.860   6
  13   0   1 15.9162 10.2226   6
   0 -13   1  6.6264 12.0352   3
 -13   0   1 0.26293 6.64023   5
   0  13   1 -2.5323  9.8921   6
   0  13   1 -8.8672  8.3318   1
   1  13  -1 19.0509  6.5050   5
  -1 -13  -1 32.3811  7.4188   5
  13  -1  -1 31.1907  9.6368   6
   1  13  -1 36.5264  9.6214   1
  -1 -13  -1 36.8994 13.1655   3
  13  -1   1 50.2513 11.3067   6
   1  13   1 24.5420 10.9291   6
 -13   1   1 25.0270  7.8279   5
  -1 -13   1  6.9433 15.6195   6
   1  13   1 22.1921  9.3822   1
  -1 -13   1 29.5940 10.5519   3
 -13   1   1 34.5051  8.8388   6
  -2 -13  -1 249.329  25.225   3
   2  13  -1 252.413  18.472   5
  13  -2  -1 245.245  22.783   5
  -2 -13  -1 266.460  17.311   5
  13  -2  -1 297.075  19.905   6
   2  13  -1 255.382  19.486   1
  -2 -13  -1 301.523  17.487   5
 -13   2   1 301.201  19.847   5
  13  -2   1 311.183  24.105   6
   2  13   1 276.408  19.797   1
  -2 -13   1 285.661  26.056   6
  -2 -13   1 268.129  26.586   3
   2  13   1 316.295  23.896   6
 -13   2   1 316.358  21.042   6
  -3 -13  -1 131.140  17.627   3
  -3 -13  -1 150.712  12.909   5
   3  13  -1 153.107  14.419   5
   3  13  -1 147.733  14.016   1
  13  -3  -1 138.163  16.099   5
  -3 -13  -1 167.098  11.796   5
  13  -3  -1 156.841  15.930   6
  13  -3   1 165.574  16.899   6
 -13   3   1 124.549  13.184   5
  -3 -13   1 167.732  20.431   3
   3  13   1 151.803  14.707   1
   3  13   1 154.912  18.012   6
  -3 -13   1 165.150  18.422   6
 -13   3   1 176.987  15.610   6
  13  -4  -1 296.786  21.700   6
   4  13  -1 292.991  21.050   1
  -4 -13  -1 278.021  25.178   3
  13  -4  -1 287.996  23.332   5
   4  13  -1 307.138  19.942   5
  -4 -13  -1 300.709  16.180   5
  -4 -13  -1 322.390  16.199   5
  13  -4   1 315.504  25.086   6
  -4 -13   1 285.843  27.190   3
 -13   4   1 332.868  22.167   1
 -13   4   1 333.500  20.026   6
  -4 -13   1 308.618  28.322   6
   4  13   1 283.944  21.117   1
   4  13   1 323.636  24.981   6
  13  -5  -1 92.5484 11.2198   6
   5  13  -1 95.9989 12.5212   1
  13  -5  -1 77.9186 12.4470   5
  -5 -13   1 66.5226 15.9899   6
   5  13   1 98.7393 16.0924   6
  13  -5   1 89.5660 13.4606   6
 -13   5   1 94.6482 13.3603   1
   5  13   1 90.2803 10.8125   1
 -13   5   1 108.519   9.342   6
  -5 -13   1 68.3576 15.0799   3
  13  -6  -1 56.7801  9.4044   6
   6  13  -1 52.6574  8.9134   1
  -6 -13   1 54.8719 11.9058   6
 -13   6   1 38.2164 11.4090   1
   6  13   1 41.0858 13.9238   6
   6  13   1 26.0755 10.8625   1
  -6 -13   1 42.1615 10.7425   3
  13  -6   1 66.8005 12.5032   6
   7  13  -1 0.15780 9.83750   1
  -7 -13   1 -1.1970 11.1922   6
  13  -7   1 -1.4247 12.7047   6
   7  13   1  3.7223 10.5773   1
 -13   7   1  6.8878 10.2366   1
   7  13   1  7.3705 12.9959   6
  -7 -13   1 -12.904   9.974   3
   8  13  -1 9.15248 7.31397   1
   8  13   1 28.4714 11.1233   6
  13  -8   1 19.0261 11.2292   6
   8  13   1  8.0534 10.9101   1
 -13   8   1  2.8383 10.8187   1
   9  13  -1 91.1739 13.5772   1
   9  13   1 89.8941 13.9248   1
  13  -9   1 100.076  15.010   6
   9  13   1 121.125  15.472   6
 -13   9   1 116.940  14.203   1
  -8  14  -1 25.5661 10.2225   2
  14   8   1 20.8996 11.0010   6
   8 -14   1 22.6863 13.3556   6
   7 -14   1 -0.4026 13.8042   6
  14   7   1 -2.1109 11.0509   6
  -7  14   1 -4.0342  9.4578   1
  14   6   1 23.4357 11.3257   6
  -6  14   1 1.58659 9.90636   1
   6 -14   1 -3.9214 11.4510   6
  14   5   1 10.6753 13.8366   6
   5 -14   1 10.9955 15.0669   6
  -5  14   1 9.57039 7.74708   6
  -5  14   1 -0.6077  6.7911   1
  14   4  -1 44.5436  7.9446   6
  -4  14  -1 32.5549  9.8513   1
  14   4   1 43.4946 12.8225   6
  -4  14   1 38.8932 11.1846   1
  -4  14   1 33.4378 10.6243   6
   4 -14   1 53.0759 16.5479   6
  14   3  -1 3.14003 7.51063   6
  -3  14  -1 3.43349 9.15204   1
  14   3   1 24.1010 11.3849   6
   3 -14   1  3.9982 12.3210   6
  -3  14   1 -4.4915  9.8549   6
  -3  14   1 8.51573 7.14182   1
  -2  14  -1 3.23678 8.96514   1
  -2  14   1 19.7799 10.3114   1
   2 -14   1 -2.1399 12.5492   6
  -2  14   1 15.6634  9.0325   6
  14   2   1 31.0006 13.8017   6
   2 -14   1 -7.3940 13.3310   3
  -1  14  -1 1.37064 8.28784   1
   1 -14   1  1.6191 13.0758   3
  -1  14   1 0.39324 9.26134   1
  14   1   1 15.5844 10.6654   6
  -1  14   1 14.9466  9.4447   6
   1 -14   1 -12.594  12.371   6
   0  14  -1 5.42619 9.25288   1
   0 -14   1 -3.9013 15.4564   6
   0  14   1 4.75724 9.50773   1
   0  14   1 5.28374 9.53488   6
  14   0   1 14.5204 10.8791   6
   0 -14   1 -1.6686 12.7679   3
   1  14  -1 -3.5471  8.6118   1
  -1 -14   1 8.38690 9.41777   3
  -1 -14   1 14.9196 13.1154   6
  14  -1   1 10.5293 10.5849   6
   1  14   1 2.66463 6.90079   1
   1  14   1 15.1739  9.9936   6
  -2 -14  -1 0.60716 7.89417   3
   2  14  -1 6.73348 9.08823   1
  14  -2  -1 3.36705 8.85888   6
  -2 -14   1  6.6888 12.7541   6
   2  14   1 2.73937 9.13277   1
  14  -2   1 31.0827 11.0394   6
  -2 -14   1 10.8569 12.8335   3
   2  14   1  9.3985 12.7413   6
  14  -3  -1 -0.6647  8.1782   6
  -3 -14  -1 -2.2321  7.5036   3
   3  14  -1 10.1341  9.6642   1
   3  14   1 5.79998 9.92719   6
  -3 -14   1 -22.593  13.936   6
  -3 -14   1  1.0406 12.4510   3
  14  -3   1 14.5612 10.6316   6
   3  14   1 7.95225 9.57931   1
  14  -4  -1 38.3873  8.6999   6
   4  14  -1 51.2308 10.9125   1
  14  -4   1 43.4750 11.7410   6
  -4 -14   1 21.0476 13.2944   3
  -4 -14   1 24.7686 13.3612   6
   4  14   1 35.4207 11.5000   6
   4  14   1 46.1582 11.1076   1
   5  14  -1 15.5756  9.7470   1
  -5 -14   1 11.8709 11.7481   6
 -14   5   1 -8.1715  9.9163   1
  -5 -14   1 4.16540 8.68748   3
  14  -5   1  7.8582 10.6383   6
   5  14   1 10.6643 10.2074   6
   5  14   1 9.76045 9.99881   1
   6  14  -1 6.64709 9.06593   1
  -6 -14   1 11.7474 11.6424   3
  14  -6   1 17.9432 10.7837   6
   6  14   1 15.9662 10.3534   1
  -6 -14   1 -4.9629  8.5880   6
   6  14   1  9.6230 12.4742   6
 -14   6   1 -2.6307 10.0379   1
   7  14  -1 9.25339 9.86397   1
  14  -7   1 -14.665  10.160   6
 -14   7   1  1.6636 10.2281   1
   7  14   1  4.3743 11.0276   6
   7  14   1 1.35739 9.99011   1
   8  14   1 32.2557 11.0842   6
  14  -8   1 19.6481 13.4948   6
  -6  15  -1 26.4253 14.0628   2
  15   6   1 11.0012 12.8672   6
   6 -15   1  3.5600 11.5037   6
  15   5   1 82.6099 15.5129   6
  -5  15   1 87.5676 13.3302   1
   5 -15   1 86.4881 15.2794   6
  -4  15   1 137.390  15.151   1
  15   4   1 206.663  20.780   6
   4 -15   1 160.495  18.492   6
  -3  15   1 188.273  14.227   6
  15   3   1 232.675  22.157   6
   3 -15   1 234.607  24.417   6
  -3  15   1 228.607  18.401   1
  15   2   1 204.650  20.745   6
  -2  15   1 194.976  16.232   6
  -2  15   1 147.438  16.065   1
   2 -15   1 139.751  19.246   6
  -1  15  -1 52.1400 10.9360   1
  -1  15   1 49.8466  9.6095   6
   1 -15   1 40.2357 15.7230   3
   1 -15   1 36.0949 15.4753   6
  15   1   1 83.8542 14.9822   6
  -1  15   1 58.8177  9.8335   1
   0  15  -1 -4.0934  8.8082   1
  15   0   1 10.1652 11.1008   6
   0 -15   1 -2.1020  9.5447   3
   0 -15   1  5.5818 14.6747   6
   0  15   1  5.8149 10.2228   1
   1  15  -1 66.9967 11.5112   1
   1  15  -1 57.0026 12.7200   2
  -1 -15   1 46.6183 15.0583   6
  -1 -15   1 27.2601 14.6412   3
   1  15   1 39.8004  8.9416   1
  15  -1   1 54.8972 12.4677   6
  15  -2   1 190.505  20.023   6
   2  15   1 155.428  16.358   1
  -2 -15   1 205.151  19.003   6
  -2 -15   1 138.112  20.648   3
   3  15  -1 212.950  17.404   1
  15  -3   1 232.004  21.375   6
   3  15   1 191.855  17.555   1
  -3 -15   1 205.392  19.900   6
   3  15   1 211.131  19.791   6
   4  15  -1 155.080  15.167   1
  -4 -15   1 181.316  16.170   6
  15  -4   1 202.245  18.278   6
   4  15   1 193.552  18.721   6
   4  15   1 129.539  13.944   1
   5  15  -1 78.1602 12.0883   1
  15  -5   1 100.994  13.854   6
   5  15   1 65.1947 11.3872   6
   5  15   1 72.6222 12.6340   1
  15  -6   1 22.6968 11.1668   6
   6  15   1 16.1579  9.5760   6
  -3  16  -1 35.9399 13.8763   2
  16   3   1 19.8900 10.8190   6
  -2  16  -1 44.4829 13.9067   2
  -1  16  -1 60.8077 13.7981   2
  -1  16   1 41.9075 11.7415   1
   0 -16   1 74.5313 11.8927   6
   0  16   1 75.4479 12.8985   1
  -1 -16   1 40.4490  9.0107   6
  16  -1   1 59.4978 11.8724   6
  16  -2   1 23.6689 10.6639   6
  16  -3   1 20.0458 12.8706   6
   0   0  -2 2959.02  130.28   2
   0  -1  -2 0.06691 1.67751   2
   0   1  -2 -0.9734  1.5716   2
   1   0  -2 2.21582 1.55816   2
  -1   0  -2 -0.6375  1.5454   2
  -1   0   2 2.09130 0.54057   4
  -1   0   2 -0.6354  0.7234   1
  -1   0   2 0.02115 0.46847   4
   1   1  -2 2251.24  100.29   2
  -1   1  -2 2325.78  100.67   2
   1  -1  -2 2602.91  100.62   2
  -1  -1  -2 2235.70  100.37   2
  -1  -1   2 2345.35   81.42   4
  -1  -1   2 2205.47   87.21   1
  -1   1   2 2037.74   87.20   1
  -1  -1   2 2248.90   80.66   4
  -1   1   2 2205.68   80.70   4
   2   1  -2 1080.39   49.41   2
   2   1  -2 1069.48   39.29   4
   2   1  -2 1081.97   39.20   4
   1  -2  -2 1128.67   39.12   4
  -1   2  -2 1060.26   50.13   2
  -2  -1  -2 1109.17   49.70   2
   1  -2   2 1109.11   39.44   4
  -2  -1   2 1074.06   43.12   1
  -1   2   2 1056.31   43.07   1
  -1   2   2 1118.17   39.52   4
   1  -2   2 1116.39   39.34   4
   1  -2   2 1199.28   52.65   3
  -2  -1   2 1120.39   39.57   4
   2   1   2 1161.77   39.31   4
  -2  -1   2 1110.16   39.58   4
  -2   0  -2 5698.33  245.91   2
   0   2  -2 5654.10  243.93   2
   2   0  -2 5835.80  243.51   2
   2   0  -2 5327.71  197.05   4
   2   0  -2 5669.91  196.95   4
   2   0   2 5606.78  258.54   3
   0   2   2 5489.93  213.44   1
   0   2   2 5564.61  197.72   4
   0  -2   2 5579.32  197.51   4
  -2   0   2 5266.53  197.57   4
   2   0   2 5538.92  196.63   4
  -2   0   2 5162.60  214.61   1
   0  -2   2 5843.02  197.89   4
   1   2  -2 1096.58   43.66   1
   1   2  -2 1160.29   40.12   4
   1   2  -2 1087.24   50.72   2
   2  -1  -2 1131.22   40.03   4
   2  -1  -2 1107.81   40.01   4
   1   2  -2 1119.92   40.10   4
  -1  -2  -2 1304.91   51.03   2
  -2   1  -2 1098.03   50.99   2
  -2   1   2 1099.21   40.43   4
  -1  -2   2 1126.85   40.25   4
  -1  -2   2 1137.59   40.28   4
   1   2   2 1119.21   40.15   4
   2  -1   2 1118.37   40.04   4
   2  -1   2 1130.40   53.02   3
   1   2   2 1141.38   40.19   4
  -2   1   2 1069.95   44.00   1
   2  -1   2 1142.78   40.07   4
  -2   2  -2 124.725   4.993   1
  -2  -2  -2 113.489   6.620   2
  -2   2  -2 102.731   6.802   2
   2   2  -2 103.825   5.263   1
   2  -2  -2 106.730   4.711   4
   2   2  -2 93.9093  6.0685   2
   2   2  -2 107.964   4.523   4
   2   2  -2 105.675   4.535   4
  -2   2   2 110.680   4.879   4
   2  -2   2 109.310   4.718   4
   2   2   2 108.850   4.627   4
   2  -2   2 104.476   4.612   4
   2  -2   2 105.068   7.142   3
  -2   2   2 108.094   5.543   1
  -2  -2   2 103.349   4.988   4
  -2  -2   2 108.435   4.743   4
   3   2  -2 13.6812  2.0958   2
  -2   3  -2 10.3813  1.1825   4
  -2   3  -2 14.4464  2.1180   1
   3   2  -2 16.0912  1.9890   4
  -3  -2  -2 12.6638  1.1820   4
   3   2  -2 14.6363  1.7663   4
  -2   3  -2 13.3305  3.4346   2
   2  -3  -2 16.5354  1.8856   4
  -3  -2  -2 7.85069 2.16306   2
  -2   3  -2 15.5790  1.3126   4
  -2   3   2 14.4975  2.4224   1
  -3  -2   2 10.9922  2.1578   4
   3   2   2 10.1192  1.6192   4
   2  -3   2 13.8225  1.7548   4
   2  -3   2 10.7820  1.5577   4
  -2   3   2 12.3306  2.1329   4
   2  -3   2 15.5335  3.7164   3
  -3  -2   2 14.5638  1.6994   4
   3   1  -2 5.15940 1.51385   2
   1  -3  -2 2.88793 1.18810   4
   3   1  -2 4.14484 1.34128   4
  -1   3  -2 4.50270 2.00785   2
  -1   3  -2 4.31529 0.81412   4
  -1   3  -2 4.74530 0.95664   4
   3   1  -2 4.64356 1.42101   4
  -3  -1  -2 4.75800 1.86187   2
  -1   3  -2 5.38474 1.33050   1
  -3  -1   2 11.6521  1.7973   4
   1  -3   2 3.80225 3.08731   3
  -1   3   2 4.09149 1.65460   1
  -3  -1   2 6.85839 1.92370   1
   1  -3   2 8.58909 1.38561   4
  -1   3   2 6.03972 1.59465   4
   1  -3   2 4.90600 1.50429   4
   3   1   2 2.68856 1.15301   4
   0   3  -2 -0.2008  0.7684   4
   0   3  -2 0.73323 1.98838   2
   0   3  -2 0.82789 1.33290   1
   0  -3  -2 -0.1474  0.8359   4
   3   0  -2 -1.1133  1.1745   4
   3   0  -2 -0.5149  1.2184   4
  -3   0  -2 2.29850 1.88348   2
   0   3  -2 -0.8077  0.7205   4
   0   3   2 -1.5380  0.9096   4
   0  -3   2 -0.4511  1.3643   4
   3   0   2 -0.0706  0.9401   4
   0  -3   2 -1.3058  2.8031   3
  -3   0   2 1.53950 1.62226   1
  -3   0   2 -0.0484  1.4691   4
   0  -3   2 -1.2240  0.7014   4
   0   3   2 -0.6095  1.4084   1
   1   3  -2 6.23555 1.14415   4
   1   3  -2 5.62106 1.71602   1
   3  -1  -2 3.34289 1.41894   4
   1   3  -2 4.05329 1.00003   4
  -3   1  -2 7.69380 2.35655   2
   1   3  -2 3.83746 1.53587   2
   3  -1   2 4.93346 1.21388   4
  -3   1   2 4.67506 1.88083   1
   1   3   2 3.76465 1.00716   4
   3  -1   2 3.71560 1.85161   3
  -3   1   2 4.21154 1.31914   4
   1   3   2 4.75585 1.56990   4
  -1  -3   2 3.92356 1.20218   4
  -1  -3   2 3.68912 1.35777   4
  -3   2  -2 12.8704  1.0816   4
   2   3  -2 15.8969  2.5293   2
  -3   2  -2 16.8129  3.3197   2
   2   3  -2 12.4678  1.6470   4
  -3   2  -2 18.3135  2.0189   1
  -2  -3  -2 9.63652 2.42995   3
   3  -2  -2 15.9109  1.9890   4
   2   3  -2 13.9183  1.6214   4
   2   3  -2 11.7551  2.1827   1
   2   3   2 16.7692  1.8373   4
  -3   2   2 14.7673  2.1858   1
  -2  -3   2 13.4430  2.2203   4
   3  -2   2 18.9308  3.3769   3
   2   3   2 15.6289  2.0214   4
  -3   2   2 12.2821  2.2384   4
   3  -2   2 14.2108  1.8589   4
  -2  -3   2 10.7311  1.5587   4
   3   3  -2 8785.18  325.25   4
   3   3  -2 9356.38  401.72   2
   3  -3  -2 9962.88  406.30   5
   3   3  -2 8658.90  324.49   4
  -3   3  -2 9175.78  350.25   1
   3  -3  -2 9418.18  405.40   5
  -3  -3  -2 8716.13  322.54   4
  -3   3  -2 9428.63  400.55   2
  -3   3  -2 8930.68  323.52   4
  -3   3  -2 9314.87  323.14   4
   3  -3  -2 9509.51  324.36   4
   3   3  -2 8908.99  404.19   5
   3  -3   2 9322.73  325.39   4
  -3   3   2 8603.34  351.77   1
  -3  -3   2 8684.69  403.11   5
   3   3   2 9223.71  324.70   4
   3   3   2 9179.15  325.83   4
   3  -3   2 9256.07  425.46   3
  -3  -3   2 9152.93  324.19   4
  -3   3   2 8769.56  324.93   4
  -3  -3   2 9266.25  324.17   4
  -3   3   2 8974.04  403.25   5
  -3   4  -2 159.891   7.336   4
  -4  -3  -2 171.308   9.255   3
   4   3  -2 163.096   7.653   4
   4   3  -2 171.376  10.127   5
  -3   4  -2 166.024   8.380   1
   3  -4  -2 176.593   9.806   5
   3  -4  -2 167.378   7.935   4
   4   3  -2 157.786   8.556   2
   3  -4  -2 188.096   9.643   5
  -4  -3  -2 173.496   7.158   4
   4   3  -2 179.448   9.443   5
  -3   4  -2 178.823   7.334   4
   4   3  -2 182.479   7.624   4
  -3   4   2 151.884  10.098   5
   3  -4   2 172.062   8.016   4
  -4  -3   2 172.272   8.018   4
   4   3   2 164.248   7.470   4
  -4  -3   2 169.236  11.815   6
  -3   4   2 153.485   9.095   1
   4   3   2 172.652   8.070   4
  -3   4   2 162.157   7.854   4
  -4  -3   2 159.194   9.566   5
  -3   4   2 159.118  12.263   6
   3  -4   2 175.404  12.219   3
   4   2  -2 444.242  21.643   2
  -2   4  -2 466.342  19.600   1
  -4  -2  -2 444.771  22.247   2
   4   2  -2 464.321  17.930   4
  -2   4  -2 497.100  17.665   4
  -4  -2  -2 481.751  17.466   4
   4   2  -2 513.058  22.025   5
  -4  -2  -2 474.852  22.285   3
   2  -4  -2 516.609  21.625   5
   4   2  -2 473.138  18.042   4
   2  -4  -2 461.425  17.976   4
  -2   4  -2 470.250  17.762   4
   4   2  -2 442.357  22.186   5
   2  -4   2 473.907  18.091   4
  -2   4   2 474.487  18.284   4
   2  -4   2 461.481  25.083   3
  -2   4   2 444.403  19.914   1
   4   2   2 483.701  17.983   4
   2  -4   2 482.244  18.029   4
  -2   4   2 466.688  22.803   5
  -4  -2   2 485.198  18.188   4
  -4  -2   2 472.084  22.892   5
   4   1  -2 129.091   5.848   4
  -1   4  -2 117.251   5.424   4
   1  -4  -2 115.812   5.557   4
   4   1  -2 112.740   6.874   5
  -4  -1  -2 124.515   6.995   2
   4   1  -2 127.539   6.623   5
   4   1  -2 118.369   5.815   4
  -4  -1  -2 115.692   4.857   4
  -1   4  -2 116.471   5.193   4
  -1   4  -2 115.747   6.209   1
  -4  -1   2 117.579   7.630   5
  -1   4   2 112.641   6.492   1
   4   1   2 118.087   5.554   4
  -1   4   2 112.554   5.582   4
   1  -4   2 132.952   8.828   3
   1  -4   2 113.508   5.642   4
   1  -4   2 122.151   5.944   4
  -4  -1   2 118.646   6.066   4
  -4  -1   2 118.460   6.871   1
  -4   0  -2 3231.11  119.30   4
   0  -4  -2 3261.90  118.51   4
   0   4  -2 3359.46  148.91   2
   0   4  -2 3446.30  118.63   4
   4   0  -2 3386.64  118.78   4
  -4   0  -2 3414.00  147.96   2
   4   0  -2 3319.49  149.13   5
   0   4  -2 3266.74  129.17   1
   4   0  -2 3369.73  118.95   4
   0   4  -2 3376.92  118.51   4
   4   0  -2 3119.78  148.38   5
  -4   0   2 3268.02  129.57   1
   4   0   2 3445.22  118.74   4
   0  -4   2 3476.40  118.94   4
   0   4   2 3368.30  118.94   4
  -4   0   2 3069.98  149.40   5
   0  -4   2 3384.40  118.84   4
  -4   0   2 3379.13  119.09   4
   0   4   2 3319.04  129.47   1
   0  -4   2 3745.50  157.35   3
   0   4   2 3400.19  118.87   4
   1   4  -2 120.818   5.392   4
   1   4  -2 103.488   5.995   1
  -4   1  -2 113.703   7.537   2
   4  -1  -2 121.764   5.615   4
   4  -1  -2 130.766   6.702   5
  -1  -4  -2 96.2465  7.9008   3
   1   4  -2 116.636   5.298   4
  -4   1  -2 124.181   4.916   4
  -4   1  -2 119.960   4.791   4
  -1  -4  -2 113.297   5.217   4
   4  -1  -2 120.282   6.769   5
   1   4  -2 106.473   7.506   2
   1   4   2 103.978   6.513   1
  -4   1   2 111.672   6.742   1
  -1  -4   2 120.298   5.641   4
  -1  -4   2 117.007   5.686   4
  -4   1   2 105.730   7.122   5
   4  -1   2 117.714   5.521   4
  -1  -4   2 121.392   9.561   3
   1   4   2 112.952   5.815   4
   1   4   2 125.907   5.510   4
  -4   1   2 126.486   6.267   4
   4  -2  -2 462.913  18.002   4
  -4   2  -2 450.707  19.187   1
  -4   2  -2 486.166  17.282   4
   2   4  -2 456.889  17.606   4
   2   4  -2 460.747  19.516   1
   4  -2  -2 498.702  22.021   5
  -4   2  -2 460.197  23.162   2
   4  -2  -2 502.118  21.852   5
   2   4  -2 475.695  17.670   4
   2   4  -2 465.294  22.499   2
  -2  -4  -2 421.748  23.828   3
  -4   2   2 459.198  22.942   5
  -4   2   2 477.507  18.352   4
   2   4   2 458.377  17.929   4
  -2  -4   2 475.363  18.091   4
   4  -2   2 479.991  17.891   4
  -2  -4   2 467.634  17.917   4
  -2  -4   2 433.949  22.307   5
  -4   2   2 458.502  19.959   1
   2   4   2 481.437  17.876   4
   3   4  -2 176.195   7.726   4
  -3  -4  -2 171.852  10.579   3
  -3  -4  -2 176.888   7.393   4
   3   4  -2 165.047   7.406   4
   4  -3  -2 158.681   7.663   4
   3   4  -2 189.847   9.359   5
  -4   3  -2 169.060   7.219   4
   3   4  -2 161.553   9.270   2
   4  -3  -2 173.472   9.785   5
   4  -3  -2 182.016   9.983   5
   3   4  -2 177.252   9.583   5
  -4   3  -2 166.626   8.293   1
   3   4  -2 177.991   8.956   1
  -4   3  -2 174.283   7.285   4
  -4   3  -2 182.474  11.449   2
  -4   3   2 162.546  11.831   6
   3   4   2 179.556   8.139   4
  -4   3   2 173.442   8.069   4
  -4   3   2 173.225   9.294   1
   3   4   2 153.152   7.442   4
  -3  -4   2 150.987   7.681   4
   4  -3   2 170.512   8.002   4
   4  -3   2 145.888  11.341   3
  -4   3   2 172.662  10.081   5
  -3  -4   2 173.045   7.970   4
  -3  -4   2 168.741   9.593   5
  -4  -4  -2 277.310  14.649   3
   4  -4  -2 283.006  14.634   5
   4   4  -2 269.680  11.371   4
   4   4  -2 257.744  11.118   4
   4  -4  -2 270.753  14.310   5
  -4   4  -2 272.005  11.058   4
   4  -4  -2 269.666  11.747   4
  -4  -4  -2 264.768  10.908   4
   4  -4  -2 273.899  14.405   6
  -4   4  -2 276.920  11.024   4
   4   4  -2 268.081  13.260   2
  -4   4  -2 266.718  12.471   1
   4  -4  -2 277.348  14.663   6
   4   4  -2 312.406  14.984   5
   4   4  -2 271.133  13.753   5
   4  -4   2 274.375  11.728   4
  -4  -4   2 260.143  16.902   6
  -4  -4   2 264.808  14.530   5
  -4   4   2 253.197  14.905   5
  -4   4   2 275.765  12.108   4
  -4   4   2 265.932  16.322   6
   4   4   2 264.110  11.251   4
   4   4   2 263.210  11.680   4
  -4  -4   2 250.008  11.757   4
  -4   4   2 266.834  13.279   1
   4  -4   2 237.430  16.514   3
  -4  -4   2 269.247  11.410   4
   4  -5  -2 122.697   8.622   6
  -5  -4  -2 116.685   5.798   4
   5   4  -2 108.937   8.926   5
   4  -5  -2 100.320   8.566   5
  -4   5  -2 113.475   6.163   4
   4  -5  -2 118.746   6.416   4
   4  -5  -2 87.1154  8.6681   6
  -5  -4  -2 124.046   8.010   3
   5   4  -2 112.227   6.032   2
  -4   5  -2 116.088   7.382   1
   4  -5  -2 128.252  10.167   5
   5   4  -2 107.070   6.718   4
   5   4  -2 80.0101  7.7705   6
   5   4  -2 120.850   7.513   6
   5   4  -2 130.951   9.861   5
   5   4  -2 116.715   6.536   4
  -4   5   2 117.699   7.561   1
   5   4   2 115.352   7.174   4
  -5  -4   2 122.925  11.559   6
  -4   5   2 108.644   6.577   4
   4  -5   2 103.499   9.906   3
  -4   5   2 113.151  10.980   6
  -5  -4   2 110.857   6.277   4
   5   4   2 112.874   6.488   4
   4  -5   2 116.741   6.386   4
   5   3  -2 1354.26   63.18   2
  -3   5  -2 1432.44   51.67   4
   5   3  -2 1454.53   64.67   5
   3  -5  -2 1501.22   64.71   5
  -3   5  -2 1446.84   56.57   1
   5   3  -2 1405.13   51.85   4
   5   3  -2 1514.42   65.19   5
   5   3  -2 1396.14   51.84   4
   3  -5  -2 1425.32   51.90   4
  -5  -3  -2 1449.38   51.39   4
   3  -5  -2 1394.43   64.72   5
  -3   5  -2 1463.17   51.62   4
  -5  -3  -2 1458.74   66.90   3
   5   3  -2 1400.60   71.92   6
  -3   5   2 1448.04   52.17   4
  -5  -3   2 1360.97   65.36   5
   5   3   2 1422.03   51.90   4
  -3   5   2 1341.75   65.38   5
   3  -5   2 1431.16   52.04   4
   5   3   2 1449.18   51.91   4
  -5  -3   2 1419.66   52.00   4
  -3   5   2 1409.61   57.00   1
  -3   5   2 1389.15   73.92   6
   3  -5   2 1419.43   69.77   3
  -5  -3   2 1466.12   73.78   6
   5   2  -2 3.68654 2.22758   6
  -2   5  -2 2.37231 1.26978   4
   5   2  -2 3.15737 3.13384   5
  -5  -2  -2 4.96822 2.31491   2
  -2   5  -2 2.03292 2.95357   1
   5   2  -2 2.40287 2.13994   6
  -5  -2  -2 2.97594 1.40712   4
   5   2  -2 -0.3545  3.5709   5
   2  -5  -2 3.01850 1.76938   4
   5   2  -2 1.33156 1.59434   4
   2  -5  -2 -0.1894  2.6265   5
   5   2  -2 0.72084 2.46515   4
  -2   5  -2 0.52180 2.00327   4
   2  -5   2 2.55075 2.18097   4
  -5  -2   2 -0.1200  4.9994   6
   2  -5   2 1.85257 5.15965   3
  -2   5   2 2.27040 2.49955   4
   2  -5   2 6.32070 1.99495   4
  -2   5   2 10.4665  4.7627   6
  -2   5   2 4.28939 2.94234   1
   5   2   2 4.19657 1.57748   4
  -5  -2   2 3.63273 3.16041   5
  -2   5   2 4.69247 2.66203   5
  -5  -2   2 2.29250 2.44380   4
   5   1  -2 3548.27  159.58   5
  -5  -1  -2 3562.87  158.19   2
  -1   5  -2 3480.31  138.77   1
   5   1  -2 3504.41  127.53   4
  -1   5  -2 3601.58  127.40   4
   1  -5  -2 3689.75  159.02   5
   5   1  -2 3524.14  159.91   5
   1  -5  -2 3616.65  127.45   4
  -1   5  -2 3676.80  127.32   4
  -5  -1  -2 3510.69  126.98   4
   5   1  -2 3513.90  127.64   4
   5   1  -2 3549.69  179.73   6
  -1   5   2 3732.63  127.74   4
  -1   5   2 3503.83  160.18   5
  -5  -1   2 3513.56  181.38   6
   1  -5   2 3740.81  127.79   4
   5   1   2 3544.72  127.52   4
  -5  -1   2 3496.64  160.63   5
  -1   5   2 3683.25  139.17   1
  -5  -1   2 3580.67  139.28   1
  -5  -1   2 3613.84  127.84   4
   1  -5   2 3839.40  169.06   3
  -1   5   2 3489.74  127.74   4
   1  -5   2 3692.49  127.67   4
   5   0  -2 -1.1860  2.3553   4
   5   0  -2 3.09378 1.85735   6
   5   0  -2 -0.0434  3.0371   5
   0   5  -2 0.52693 1.76555   4
   0   5  -2 -1.3415  2.1563   1
   0   5  -2 0.45039 1.58815   4
   5   0  -2 1.16399 1.73136   6
   5   0  -2 4.78509 3.52255   5
   0  -5  -2 1.08415 2.00830   4
  -5   0  -2 0.67633 1.12189   4
   5   0  -2 -2.9452  2.0131   4
  -5   0  -2 0.75584 2.02627   2
   0   5   2 -1.6998  1.3384   4
   0   5   2 0.22194 3.11666   5
   0   5   2 -2.2434  2.3419   1
   0   5   2 -0.3717  1.5806   4
   0  -5   2 -0.2449  3.4060   3
   5   0   2 -0.8606  1.8074   4
  -5   0   2 0.50341 1.92424   1
  -5   0   2 1.68945 4.43884   6
  -5   0   2 2.02995 3.14742   5
  -5   0   2 -5.2094  2.2246   4
   0  -5   2 1.27552 1.93666   4
   0  -5   2 -0.4608  2.3656   4
   1   5  -2 3643.58  127.57   4
   5  -1  -2 3908.20  160.04   5
   1   5  -2 3646.76  159.96   2
   5  -1  -2 3689.51  128.04   4
  -5   1  -2 3564.23  159.16   2
   5  -1  -2 3550.28  160.14   5
   5  -1  -2 3668.23  180.17   6
   5  -1  -2 3355.17  180.12   6
   1   5  -2 3609.59  127.58   4
   1   5  -2 3646.34  139.08   1
  -1  -5  -2 3603.70  127.48   4
  -5   1  -2 3608.17  127.20   4
  -1  -5  -2 3275.53  168.85   3
  -1  -5   2 3516.18  160.34   5
  -5   1   2 3556.33  128.12   4
  -5   1   2 3366.96  160.82   5
  -5   1   2 3447.56  181.53   6
  -5   1   2 3597.04  139.51   1
   1   5   2 3673.87  127.92   4
   5  -1   2 3653.21  127.77   4
  -1  -5   2 3640.33  127.94   4
  -1  -5   2 3914.91  169.34   3
   1   5   2 3630.73  127.85   4
   1   5   2 3530.45  139.32   1
  -1  -5   2 3639.76  127.85   4
   5  -2  -2 3.25485 3.20262   5
   5  -2  -2 4.75937 2.60502   4
   2   5  -2 6.21930 2.66869   1
  -5   2  -2 4.09057 1.55430   4
  -5   2  -2 2.57734 1.50304   4
   2   5  -2 2.63286 2.46731   5
  -2  -5  -2 0.92297 4.12247   3
   2   5  -2 2.62197 2.47916   2
   2   5  -2 0.43866 1.85894   4
  -5   2  -2 4.32575 2.34619   1
   5  -2  -2 3.75607 2.57238   6
   2   5  -2 0.75998 2.04371   4
   5  -2  -2 3.23389 3.10165   5
  -5   2  -2 3.56329 3.03819   2
   2   5  -2 4.43547 2.39100   5
   5  -2  -2 7.23959 3.42638   6
  -2  -5   2 4.11236 1.94309   5
  -2  -5   2 5.53985 2.21032   4
   2   5   2 1.75600 1.54789   4
  -2  -5   2 5.36791 3.59965   3
  -2  -5   2 2.15934 1.97302   4
   2   5   2 6.06066 3.06673   1
  -5   2   2 -0.7564  3.0944   1
  -5   2   2 -1.9785  2.5778   4
   5  -2   2 1.90211 2.27736   4
  -5   2   2 6.98023 4.44945   6
  -2  -5   2 0.59839 4.06658   6
   2   5   2 2.65318 2.60255   4
  -5   2   2 -0.0843  2.4355   5
   3   5  -2 1452.86   51.99   4
   3   5  -2 1451.10   57.05   1
  -5   3  -2 1392.95   51.58   4
   5  -3  -2 1463.98   72.84   6
   3   5  -2 1434.38   51.91   4
   5  -3  -2 1504.51   65.39   5
  -3  -5  -2 1399.81   51.74   4
  -5   3  -2 1431.54   56.61   1
   3   5  -2 1517.59   65.13   5
  -3  -5  -2 1406.66   68.89   3
   5  -3  -2 1334.50   72.63   6
  -5   3  -2 1461.54   66.28   2
   5  -3  -2 1432.06   65.28   5
   3   5  -2 1400.21   64.63   2
   5  -3  -2 1408.00   52.26   4
   3   5  -2 1548.98   64.71   5
  -5   3   2 1438.41   52.51   4
   3   5   2 1437.71   52.22   4
  -5   3   2 1438.73   74.08   6
   5  -3   2 1420.04   52.21   4
  -3  -5   2 1453.51   52.20   4
  -3  -5   2 1315.83   65.30   5
  -3  -5   2 1405.48   73.90   6
   3   5   2 1443.67   52.15   4
  -3  -5   2 1399.00   52.16   4
  -5   3   2 1448.69   57.27   1
  -5   3   2 1421.28   66.58   5
   5  -4  -2 105.138   9.489   6
  -4  -5  -2 115.459   5.693   4
   4   5  -2 113.691   6.993   2
   5  -4  -2 116.545   9.120   5
  -5   4  -2 111.160  10.489   2
   5  -4  -2 112.815   9.252   5
   5  -4  -2 118.151   8.789   6
   4   5  -2 125.584   8.925   5
  -5   4  -2 117.219   7.300   1
  -5   4  -2 115.244   6.113   4
  -4  -5  -2 104.577   8.846   3
   5  -4  -2 115.928   7.054   4
   4   5  -2 116.914   8.261   1
   4   5  -2 113.260   7.901   5
  -5   4  -2 111.993   5.979   4
   4   5  -2 109.224   6.417   4
   4   5  -2 118.626   6.563   4
  -5   4   2 108.203   7.389   4
  -5   4   2 109.831  10.978   6
  -4  -5   2 106.965   6.662   4
  -4  -5   2 102.046   6.396   4
  -4  -5   2 116.055  11.069   6
   5  -4   2 110.545   6.317   4
  -4  -5   2 119.315   8.327   5
  -5   4   2 124.141   8.686   1
   4   5   2 109.454   6.108   4
   4   5   2 110.755   7.143   4
  -5   5  -2 3278.78  129.36   1
   5   5  -2 3267.94  118.73   4
   5   5  -2 3371.59  118.87   4
   5  -5  -2 3402.07  119.08   4
  -5  -5  -2 3200.94  118.32   4
   5   5  -2 3376.61  148.53   5
   5  -5  -2 3098.03  148.96   5
   5   5  -2 3423.07  149.32   5
   5   5  -2 3105.06  166.79   6
   5  -5  -2 3406.83  149.10   5
  -5   5  -2 3330.61  118.58   4
   5  -5  -2 3057.71  167.44   6
  -5  -5   2 3411.79  169.10   6
   5   5   2 3462.76  119.06   4
  -5   5   2 3288.60  169.01   6
   5  -5   2 3420.71  119.14   4
  -5   5   2 3409.27  119.44   4
  -5  -5   2 3388.96  119.06   4
   5   5   2 3501.19  119.12   4
  -5   5   2 3453.54  130.20   1
   5  -5   2 3171.36  157.41   3
   6   5  -2 209.266  12.455   6
   6   5  -2 214.613   9.891   4
  -6  -5  -2 211.957  12.439   3
   6   5  -2 220.235  13.051   5
  -5   6  -2 198.663   9.660   4
  -6  -5  -2 194.260   9.300   4
   6   5  -2 156.820  13.140   6
   5  -6  -2 208.258  14.008   5
   6   5  -2 213.045  13.634   5
   5  -6  -2 178.862  13.835   6
  -5   6  -2 206.881  11.574   1
   5  -6  -2 198.608  14.436   5
  -6  -5   2 218.407  16.601   6
  -5   6   2 222.205  14.700   6
   6   5   2 218.214  10.184   4
  -5   6   2 210.508  10.922   4
  -6  -5   2 193.731  10.283   4
   5  -6   2 199.340  16.362   3
  -5   6   2 221.875  11.819   1
  -4   6  -2 892.380  35.236   1
   4  -6  -2 740.251  39.891   5
   6   4  -2 879.954  39.938   5
   4  -6  -2 852.607  32.146   4
   6   4  -2 856.166  32.126   4
   6   4  -2 942.914  40.750   5
   4  -6  -2 790.696  43.720   6
   4  -6  -2 891.518  40.252   5
   6   4  -2 724.398  44.065   6
   6   4  -2 850.240  43.619   6
  -4   6  -2 817.212  31.692   4
   6   4  -2 826.616  32.007   4
  -6  -4  -2 898.204  40.902   3
  -6  -4  -2 831.279  31.429   4
   6   4   2 852.391  32.170   4
  -4   6   2 902.189  46.109   6
  -4   6   2 854.367  32.623   4
   4  -6   2 853.085  32.398   4
  -4   6   2 859.364  35.829   1
   6   4   2 861.454  32.346   4
  -6  -4   2 832.085  32.267   4
   4  -6   2 805.990  43.729   3
  -6  -4   2 860.818  46.071   6
   6   3  -2 43.7458  5.2941   5
  -3   6  -2 38.2617  5.3306   1
   6   3  -2 43.4182  5.5847   5
   6   3  -2 33.1129  3.8080   4
  -3   6  -2 42.1808  3.5905   4
   3  -6  -2 29.6465  4.7214   5
   3  -6  -2 42.3822  4.4299   6
  -3   6  -2 36.3755  3.5850   4
   3  -6  -2 35.1314  4.0778   4
  -6  -3  -2 32.8740  3.0222   4
   6   3  -2 37.3448  5.4064   6
  -6  -3  -2 37.7456  3.5361   3
   6   3  -2 41.0703  4.2119   4
   3  -6  -2 43.7036  5.9123   5
   3  -6  -2 29.3127  3.5613   6
   6   3  -2 46.8209  4.8985   6
  -3   6   2 39.4297  4.3293   4
   6   3   2 30.9671  4.1652   4
  -3   6   2 39.5946  7.0705   6
   3  -6   2 31.9660  4.0926   4
  -3   6   2 37.8882  4.2110   4
  -3   6   2 39.3136  5.1484   1
  -6  -3   2 40.3125  3.7098   4
   6   3   2 36.5619  3.4209   4
   3  -6   2 36.3706  6.5497   3
  -6  -3   2 43.7444  7.6613   6
  -2   6  -2 2733.26   96.04   4
   6   2  -2 2653.80   96.33   4
  -2   6  -2 2740.70  104.89   1
   6   2  -2 2391.48  135.43   6
   6   2  -2 2877.04  121.10   5
   6   2  -2 2710.12  120.43   5
  -2   6  -2 2724.06   96.09   4
   6   2  -2 2602.09  135.32   6
   2  -6  -2 2649.40   96.23   4
  -6  -2  -2 2628.35  118.64   2
   6   2  -2 2669.04   96.24   4
  -6  -2  -2 2649.58   95.65   4
  -2   6   2 2757.57  105.27   1
   6   2   2 2614.28   96.23   4
  -2   6   2 2663.55  121.09   5
  -6  -2   2 2680.09  136.94   6
   2  -6   2 2758.67  128.23   3
   2  -6   2 2813.10   96.50   4
  -2   6   2 2672.26  136.98   6
  -2   6   2 2650.30   96.45   4
   2  -6   2 2736.46   96.50   4
  -6  -2   2 2727.39   96.57   4
  -2   6   2 2727.67   96.60   4
   6   1  -2 232.765  13.116   5
  -6  -1  -2 213.296  11.725   2
   6   1  -2 238.050  10.482   4
  -1   6  -2 234.313  10.058   4
   1  -6  -2 249.157  12.369   5
   6   1  -2 251.926  13.766   5
   6   1  -2 233.632  13.760   6
   6   1  -2 205.353  13.428   6
   6   1  -2 216.872  10.031   4
   1  -6  -2 230.955  10.277   4
  -1   6  -2 214.215  11.209   1
  -1   6  -2 236.611   9.984   4
   1  -6   2 229.445  15.199   3
   1  -6   2 208.716  12.509   5
  -6  -1   2 230.299  10.701   4
  -6  -1   2 249.527  12.457   1
   1  -6   2 212.729  14.504   6
  -1   6   2 246.639  10.653   4
  -6  -1   2 249.918  14.921   6
   1  -6   2 227.854  10.082   4
   6   1   2 217.416  10.145   4
   1  -6   2 232.195  10.292   4
  -1   6   2 218.830  15.280   6
  -1   6   2 220.777  11.774   1
  -1   6   2 231.239  10.500   4
  -1   6   2 218.732  12.756   5
   0   6  -2 482.088  23.427   5
   0   6  -2 518.169  19.804   4
   6   0  -2 576.632  25.346   5
   6   0  -2 536.143  25.584   5
  -6   0  -2 531.683  19.399   4
   0  -6  -2 488.758  28.767   3
   0  -6  -2 509.327  19.707   4
  -6   0  -2 499.923  24.654   2
   6   0  -2 461.803  27.314   6
   6   0  -2 511.688  27.334   6
   6   0  -2 506.556  20.218   4
   0   6  -2 455.512  23.431   5
   0   6  -2 544.060  19.895   4
   0  -6  -2 556.883  23.970   5
   0   6  -2 489.845  21.805   1
   6   0  -2 507.451  20.200   4
   0  -6   2 530.356  20.180   4
   0  -6   2 492.624  28.208   6
   6   0   2 508.188  19.887   4
   0   6   2 519.674  20.245   4
   0   6   2 500.571  28.684   6
  -6   0   2 519.096  20.307   4
   0   6   2 509.171  25.455   5
   0   6   2 531.595  20.293   4
   0  -6   2 537.748  20.265   4
  -6   0   2 541.323  22.471   1
  -6   0   2 519.457  28.994   6
   0  -6   2 513.475  25.041   5
   0   6   2 519.168  22.365   1
   0  -6   2 533.623  28.651   3
   6  -1  -2 242.849  14.435   5
   1   6  -2 249.353  12.101   5
   1   6  -2 230.475  12.097   5
   1   6  -2 236.869  11.444   1
   6  -1  -2 235.841  14.068   6
   6  -1  -2 202.044  13.461   6
  -6   1  -2 220.279  12.761   2
   1   6  -2 223.864   9.979   4
  -1  -6  -2 246.861  11.233   5
  -1  -6  -2 205.141  15.836   3
   1   6  -2 219.118   9.963   4
   6  -1  -2 219.961  10.212   4
  -1  -6  -2 229.743  10.050   4
   6  -1  -2 249.167  13.318   5
   1   6   2 238.394  10.486   4
  -6   1   2 242.049  12.386   1
   1   6   2 231.010  10.588   4
  -1  -6   2 234.572  10.427   4
  -1  -6   2 207.506  14.835   6
   6  -1   2 217.125  10.209   4
  -1  -6   2 229.198  12.806   5
   1   6   2 216.697  13.296   5
   1   6   2 235.761  15.059   6
   1   6   2 233.482  11.953   1
  -1  -6   2 217.981  10.682   4
  -6   1   2 227.424  15.546   6
  -1  -6   2 251.702  15.353   3
  -6   1   2 238.329  10.552   4
   6  -2  -2 2690.01  135.19   6
   6  -2  -2 2318.50  134.85   6
   6  -2  -2 2812.12  120.41   5
   2   6  -2 2664.47   95.70   4
   2   6  -2 2640.59   95.59   4
  -6   2  -2 2708.40  119.93   2
  -6   2  -2 2743.95  104.33   1
   6  -2  -2 2714.92   96.12   4
   2   6  -2 2765.02  120.14   2
  -6   2  -2 2633.58   95.43   4
  -6   2  -2 2683.43   95.34   4
   2   6  -2 2800.06  119.52   5
  -2  -6  -2 2529.28  127.02   3
   2   6  -2 2717.53  104.54   1
   6  -2  -2 2732.98  120.19   5
  -2  -6  -2 2584.97   95.46   4
   2   6   2 2611.02   95.93   4
  -6   2   2 2723.75   96.32   4
   2   6   2 2635.91  104.82   1
  -2  -6   2 2634.48  120.44   5
  -2  -6   2 2567.18  136.05   6
  -6   2   2 2589.27  136.14   6
  -2  -6   2 2976.67  127.84   3
  -6   2   2 2672.48  105.00   1
  -2  -6   2 2657.01   96.10   4
   2   6   2 2699.68  136.17   6
   2   6   2 2739.12   96.02   4
  -2  -6   2 2736.78   96.01   4
   6  -2   2 2649.44   95.94   4
  -6   3  -2 45.4990  3.4946   4
  -3  -6  -2 38.8815  6.4758   3
  -6   3  -2 39.5428  4.5850   1
   6  -3  -2 36.5862  5.5543   5
   3   6  -2 42.2481  4.9584   2
   3   6  -2 40.9696  3.8205   4
  -6   3  -2 43.6714  6.3098   2
   3   6  -2 36.5270  3.3499   4
  -6   3  -2 35.6265  3.2757   4
  -3  -6  -2 39.0443  3.2385   4
   6  -3  -2 37.6107  6.4631   6
   6  -3  -2 44.3815  5.9623   5
   3   6  -2 43.5343  4.9836   5
   6  -3  -2 40.5076  4.3047   4
   3   6  -2 54.7550  5.4239   1
   6  -3  -2 25.4948  5.0012   6
   3   6  -2 34.0145  5.3531   5
   6  -3   2 38.2486  3.6281   4
  -3  -6   2 32.5986  4.3073   4
  -3  -6   2 38.7666  6.9054   6
  -6   3   2 28.6956  5.5954   5
  -3  -6   2 39.8046  3.6291   4
   3   6   2 38.0798  4.2631   4
  -3  -6   2 43.2561  6.4123   3
  -6   3   2 44.2479  5.6417   1
  -6   3   2 32.8850  3.7999   4
   3   6   2 41.6921  3.6579   4
  -6   3   2 44.4542  7.0513   6
   3   6   2 35.8525  5.3122   1
   6  -4  -2 812.738  32.343   4
   4   6  -2 845.560  32.084   4
   6  -4  -2 804.121  44.485   6
   4   6  -2 919.624  40.792   5
   4   6  -2 913.947  35.821   1
  -4  -6  -2 809.298  31.610   4
   4   6  -2 842.667  31.969   4
   6  -4  -2 851.244  40.700   5
   4   6  -2 828.463  39.387   2
  -6   4  -2 880.177  42.213   2
   6  -4  -2 885.333  40.622   5
  -6   4  -2 837.266  35.204   1
  -6   4  -2 835.404  31.717   4
   4   6  -2 895.298  39.800   5
  -4  -6  -2 861.741  42.824   3
   4   6   2 874.564  32.310   4
  -4  -6   2 815.644  32.106   4
   6  -4   2 820.884  32.254   4
  -6   4   2 865.438  46.127   6
  -4  -6   2 806.130  32.210   4
   4   6   2 862.727  32.328   4
  -6   4   2 849.965  35.746   1
  -6   4   2 833.184  32.735   4
  -4  -6   2 827.437  45.861   6
  -6   5  -2 195.904  15.845   2
  -5  -6  -2 203.280  13.614   3
   5   6  -2 208.714  12.496   1
   6  -5  -2 195.404  13.892   5
   5   6  -2 211.724  11.973   6
   5   6  -2 202.303  12.632   5
  -6   5  -2 200.768   9.766   4
   6  -5  -2 223.567  14.257   5
   6  -5  -2 216.658  10.721   4
   6  -5  -2 202.467  14.082   6
   5   6  -2 245.909  14.921   5
  -5  -6  -2 210.120   9.646   4
  -6   5  -2 201.449  11.574   1
  -5  -6   2 206.716  10.406   4
  -6   5   2 220.237  16.140   6
  -6   5   2 206.097  11.083   4
   5   6   2 196.273  10.798   4
  -6   5   2 207.954  11.886   1
  -5  -6   2 209.663  15.000   6
   6  -6  -2 105.581   9.927   5
   6  -6  -2 115.570  10.096   5
   6  -6  -2 116.985  11.633   6
   6   6  -2 124.366   8.700   6
   6   6  -2 121.870   9.842   1
  -6  -6  -2 136.406  10.734   3
   6   6  -2 126.463  11.383   5
  -6   6  -2 122.557   9.172   1
   6   6  -2 118.666  10.128   5
  -6   6   2 117.768   9.731   1
  -6   6   2 128.444  13.457   6
  -6  -6   2 139.351  13.199   6
   6   6   2 120.793   8.525   4
   7   6  -2 20.6383  6.1190   5
   6  -7  -2 23.1942  6.3268   5
   6  -7  -2 26.6452  6.5723   6
   7   6  -2 15.1464  5.2364   6
   7   6  -2 12.9005  6.4936   5
  -6   7  -2 24.4247  5.5235   1
   6  -7  -2 21.5314  6.6537   5
  -6   7   2 13.1627  5.9759   1
  -6   7   2 27.0045  8.4386   6
  -7  -6   2 22.2361  9.1693   6
  -5   7  -2 423.980  19.846   1
   5  -7  -2 367.259  23.449   6
   5  -7  -2 419.589  23.084   5
   5  -7  -2 448.341  22.906   5
   7   5  -2 383.914  23.570   6
   7   5  -2 460.970  23.281   5
   7   5  -2 438.382  22.545   5
   5  -7   2 410.007  26.525   3
  -5   7   2 448.456  26.400   6
  -5   7   2 430.027  20.173   1
  -7  -5   2 432.704  26.817   6
   7   5   2 406.389  18.240   4
   4  -7  -2 4.85048 5.20409   6
  -4   7  -2 2.90261 2.72361   4
  -4   7  -2 3.83948 4.12925   1
   7   4  -2 4.09930 4.79079   5
   7   4  -2 -2.9792  4.5210   5
   4  -7  -2 -1.3904  4.1211   5
  -7  -4  -2 5.03153 2.23666   4
   7   4  -2 -1.6322  5.5223   6
   4  -7  -2 3.71167 4.70572   5
   4  -7  -2 -4.1353  5.4974   6
  -7  -4   2 3.51247 7.15110   6
  -4   7   2 3.76855 4.57927   1
  -7  -4   2 1.08857 3.15388   4
  -4   7   2 1.86736 2.56943   4
   7   4   2 7.22969 2.86453   4
  -4   7   2 0.94583 6.34758   6
   4  -7   2 -0.6972  4.8550   3
   3  -7  -2 693.431  35.136   5
  -7  -3  -2 718.405  27.285   4
   7   3  -2 681.197  27.966   4
   7   3  -2 684.633  38.504   6
   3  -7  -2 802.603  35.605   5
   7   3  -2 774.577  35.692   5
  -3   7  -2 716.744  27.718   4
   3  -7  -2 738.504  28.240   4
   7   3  -2 711.862  38.569   6
   7   3  -2 755.224  35.243   5
   7   3  -2 671.036  27.918   4
  -3   7  -2 736.003  30.730   1
  -7  -3   2 723.296  28.296   4
  -3   7   2 745.547  31.411   1
  -7  -3   2 750.672  40.377   6
  -3   7   2 771.821  40.424   6
  -3   7   2 724.724  28.421   4
   3  -7   2 706.714  39.530   3
   7   3   2 729.991  28.318   4
  -3   7   2 670.181  28.784   4
   2  -7  -2 6.42250 3.55193   5
   7   2  -2 12.8106  3.5164   4
  -2   7  -2 10.2836  3.9441   1
   7   2  -2 11.6715  3.1368   4
   7   2  -2 13.5287  4.6961   6
  -2   7  -2 11.6012  2.8014   4
   2  -7  -2 10.9670  3.3958   4
   7   2  -2 11.0694  5.3922   5
  -7  -2  -2 8.29186 2.14585   4
   7   2  -2 10.5548  4.6233   5
   7   2  -2 2.92262 4.84648   6
   2  -7   2 11.6110  2.8683   4
  -2   7   2 16.0499  3.6226   4
  -2   7   2 6.67035 3.03660   4
  -2   7   2 14.4785  3.3506   1
   7   2   2 11.4607  2.4744   4
  -7  -2   2 12.2009  3.4211   4
  -7  -2   2 5.37369 6.44462   6
   2  -7   2 13.5011  5.6018   3
  -2   7   2 11.5785  4.4896   6
  -7  -1  -2 266.935  11.022   4
   7   1  -2 277.436  16.095   5
   1  -7  -2 286.362  14.729   5
  -1   7  -2 251.475  13.053   1
   7   1  -2 286.643  16.224   6
   1  -7  -2 229.376  14.007   5
   7   1  -2 299.296  15.798   5
  -7  -1  -2 259.271  13.439   2
  -1   7  -2 247.220  11.434   4
   7   1  -2 263.282  12.130   4
   1  -7  -2 250.302  11.755   4
   7   1  -2 269.238  11.703   4
   7   1  -2 268.251  16.231   6
  -1   7  -2 245.384  12.670   5
  -7  -1   2 251.891  15.105   5
  -7  -1   2 272.450  18.069   6
  -1   7   2 271.987  17.494   6
  -1   7   2 260.081  12.023   4
   7   1   2 259.399  11.795   4
  -7  -1   2 255.854  13.465   1
  -1   7   2 266.839  12.163   4
   1  -7   2 249.906  16.762   6
  -7  -1   2 273.683  12.359   4
   1  -7   2 277.784  18.801   3
  -1   7   2 267.286  13.680   1
   1  -7   2 265.273  11.706   4
   1  -7   2 246.105  11.771   4
   7   0  -2 -2.2474  3.0379   4
   0   7  -2 0.18061 2.53664   5
   0   7  -2 1.67857 1.68070   4
   0  -7  -2 4.48890 2.85971   4
   0  -7  -2 -2.9807  2.8372   5
  -7   0  -2 2.92059 2.24739   2
   0   7  -2 1.44006 2.43971   5
   7   0  -2 -3.2523  4.0769   6
   7   0  -2 -6.0024  5.2155   6
   7   0  -2 -10.086   3.839   5
   0   7  -2 -3.0170  2.1764   4
   0  -7  -2 -2.6472  4.4555   3
  -7   0  -2 -2.0513  1.7577   4
   0   7  -2 -2.5915  3.1641   1
   0  -7  -2 -1.6601  3.0406   5
   7   0  -2 2.07928 2.75926   4
  -7   0   2 -0.7829  5.6160   6
   7   0   2 -1.0214  2.4379   4
  -7   0   2 0.03767 3.04003   4
   0   7   2 -1.7309  2.6118   4
  -7   0   2 0.55570 2.89511   1
   0  -7   2 2.41121 1.84255   4
   0   7   2 3.47243 4.97792   6
   0  -7   2 1.66476 6.10817   3
   0   7   2 -0.7508  3.5422   1
   0   7   2 -0.7138  2.7780   4
  -7   0   2 5.05931 3.20275   5
   0  -7   2 -1.0091  2.2083   4
   0  -7   2 3.33836 4.80872   6
   1   7  -2 267.223  11.582   4
   7  -1  -2 277.240  15.735   5
   7  -1  -2 264.850  15.738   6
   1   7  -2 267.708  11.644   4
   7  -1  -2 269.638  15.722   5
   1   7  -2 278.272  14.150   5
  -1  -7  -2 292.367  13.539   5
  -1  -7  -2 241.481  11.521   4
   1   7  -2 268.721  13.246   1
   7  -1  -2 249.708  16.763   6
  -1  -7  -2 265.061  18.402   3
  -7   1  -2 250.044  14.459   2
   1   7  -2 241.870  14.362   5
  -7   1  -2 282.033  11.243   4
   7  -1  -2 242.271  12.015   4
  -7   1   2 275.238  14.339   1
  -7   1   2 244.111  12.336   4
   1   7   2 283.787  17.431   6
  -7   1   2 249.886  15.962   5
  -1  -7   2 272.502  17.484   3
  -1  -7   2 249.592  12.328   4
  -7   1   2 275.306  17.733   6
   7  -1   2 257.728  11.621   4
  -1  -7   2 254.802  17.325   6
   1   7   2 261.680  13.759   1
   1   7   2 270.335  12.097   4
  -1  -7   2 294.011  12.164   4
   1   7   2 258.186  12.096   4
   7  -2  -2 7.96003 4.88808   5
   7  -2  -2 11.1419  5.6921   6
  -7   2  -2 12.4138  3.7890   1
  -2  -7  -2 9.16241 2.35234   5
  -2  -7  -2 2.22020 5.69958   3
   2   7  -2 13.3681  3.2939   1
   2   7  -2 8.11675 2.17990   4
   7  -2  -2 10.5166  3.2948   4
   7  -2  -2 5.96977 4.53993   5
   7  -2  -2 9.51678 4.87174   6
   2   7  -2 10.1546  2.8073   4
  -7   2  -2 11.2160  3.9488   2
   2   7  -2 14.3911  3.9527   5
  -7   2  -2 10.2871  2.3667   4
   2   7  -2 8.79054 3.73687   5
  -2  -7  -2 1.59338 2.11415   5
   7  -2   2 10.5829  3.1477   4
  -7   2   2 9.46416 3.54052   4
  -7   2   2 14.8279  6.1471   6
  -2  -7   2 7.47779 2.76541   4
  -7   2   2 6.92301 4.93898   5
  -2  -7   2 18.5829  6.8596   3
  -2  -7   2 13.3284  3.1654   4
  -7   2   2 6.94700 4.30716   1
  -2  -7   2 11.5415  5.9095   6
   2   7   2 15.3465  3.5649   4
   2   7   2 9.63785 3.14204   4
   2   7   2 9.06113 4.15056   1
   2   7   2 9.03653 5.27400   6
   7  -3  -2 736.759  39.331   6
  -7   3  -2 723.957  36.528   2
   7  -3  -2 734.505  36.170   5
  -7   3  -2 768.897  31.465   1
   3   7  -2 781.586  35.753   5
   3   7  -2 765.682  31.512   1
   7  -3  -2 753.650  35.917   5
  -7   3  -2 725.961  27.872   4
   3   7  -2 765.418  35.105   5
   3   7  -2 707.972  28.094   4
   7  -3  -2 738.221  28.711   4
   3   7  -2 728.230  35.668   2
  -3  -7  -2 704.570  38.707   3
   3   7   2 717.183  28.600   4
  -3  -7   2 720.080  40.787   6
  -7   3   2 718.624  31.924   1
  -3  -7   2 703.859  28.456   4
  -3  -7   2 798.564  39.257   3
   3   7   2 743.554  31.928   1
   3   7   2 725.811  40.576   6
  -7   3   2 706.908  28.892   4
  -7   3   2 735.383  40.795   6
   7  -4  -2 2.14009 5.46175   5
  -7   4  -2 2.12893 4.75364   2
   7  -4  -2 11.7881  5.5796   6
  -4  -7  -2 1.03470 5.16541   3
   7  -4  -2 -0.8729  4.9892   5
  -7   4  -2 0.62472 2.45113   4
   4   7  -2 7.28083 2.97857   2
  -7   4  -2 1.68003 3.75472   1
   4   7  -2 1.65469 4.45881   5
   4   7  -2 8.85142 4.74635   5
   4   7  -2 4.61227 4.52390   1
  -4  -7   2 0.28908 6.37583   3
   4   7   2 2.36156 3.52724   4
   4   7   2 1.37818 4.97638   1
  -7   4   2 8.00241 4.84863   1
   4   7   2 -2.6461  5.2631   6
  -7   4   2 3.09193 2.59642   4
  -4  -7   2 4.65674 3.01328   4
  -7   4   2 0.30749 4.58299   6
  -4  -7   2 -2.4759  6.7000   6
   5   7  -2 445.151  23.365   5
  -7   5  -2 439.139  20.237   1
   5   7  -2 407.981  21.472   5
   7  -5  -2 378.610  22.777   5
   5   7  -2 431.115  20.397   1
  -7   5  -2 424.475  24.931   2
   5   7  -2 364.013  21.071   6
   7  -5  -2 455.219  23.125   5
  -5  -7  -2 389.795  23.590   3
   5   7   2 425.325  18.150   4
  -7   5   2 408.943  26.136   6
  -5  -7   2 449.591  24.935   3
  -7   5   2 415.630  20.748   1
  -5  -7   2 424.986  26.623   6
   7  -6  -2 17.3806  6.5955   5
   7  -6  -2 22.9111  6.2228   6
  -7   6  -2 29.7570  5.5983   1
   6   7  -2 23.5441  5.4454   5
   6   7  -2 12.3355  3.3310   6
   6   7  -2 19.2170  6.3004   1
   6   7  -2 29.9419  6.4170   5
   6   7  -2 27.5947  3.6994   6
  -7   6  -2 24.8353  8.1621   2
   7  -6  -2 24.3245  6.5195   5
  -6  -7   2 28.6305  7.4682   6
  -6  -7   2 32.3942  8.4809   3
  -7   6   2 27.4120  5.2658   1
  -7   6   2 28.2080  8.4977   6
   7   7  -2 95.9702 10.3350   5
   7   7  -2 119.051  11.272   5
   7  -7  -2 131.593  12.331   5
   7  -7  -2 141.180  11.680   5
   7  -7  -2 125.826  11.147   6
   7   7  -2 124.512  11.249   1
  -7   7  -2 128.817   9.945   1
   7   7  -2 117.554   7.346   6
  -7   7   2 148.682  15.062   6
  -7   7   2 124.500  10.771   1
  -7  -7   2 140.404  14.723   6
   8   7  -2 184.968  13.814   1
   8   7  -2 144.433  13.068   5
   7  -8  -2 181.639  14.261   5
  -7   8  -2 154.262  11.958   1
   7  -8  -2 172.764  14.592   5
   8   7  -2 161.470  13.439   5
  -8  -7   2 168.553  17.782   6
  -7   8   2 152.528  12.678   1
   8   7   2 160.985  16.019   6
   7  -8   2 153.427  15.058   6
  -7   8   2 170.659  16.787   6
   8   6  -2 1493.46   89.14   6
   6  -8  -2 1924.51   81.58   5
  -6   8  -2 1711.32   70.94   1
   6  -8  -2 1814.15   89.14   6
   6  -8  -2 1833.04   81.51   5
   6  -8  -2 1790.57   88.84   6
   8   6  -2 1783.96   81.24   5
   8   6  -2 1717.72   81.65   5
  -6   8   2 1795.18   92.61   6
   6  -8   2 1774.47   92.58   6
  -8  -6   2 1747.73   92.70   6
  -6   8   2 1704.58   71.66   1
   5  -8  -2 15.9437  5.7254   5
   5  -8  -2 8.48101 6.22790   5
   8   5  -2 11.4059  5.9960   6
   8   5  -2 15.3549  7.5518   5
  -5   8  -2 10.6865  5.0458   1
   5  -8  -2 11.5691  5.0182   6
   8   5  -2 23.3428  6.2238   5
   5  -8  -2 5.78232 5.65646   6
  -8  -5   2 11.1670  8.9368   6
  -5   8   2 15.4805  8.1013   6
  -5   8   2 21.8863  6.2629   1
   5  -8   2 16.6440  9.2081   3
   4  -8  -2 173.491  14.417   5
   4  -8  -2 190.258  12.290   5
   8   4  -2 168.832  13.119   6
  -4   8  -2 171.261  11.037   1
   8   4  -2 185.783  13.197   5
   4  -8  -2 127.488   9.943   6
   8   4  -2 191.346  13.548   5
   4  -8  -2 142.150   9.941   6
   8   4   2 168.079   9.330   4
   4  -8   2 179.008  17.004   3
  -4   8   2 169.314  12.037   1
  -8  -4   2 166.601  15.856   6
  -4   8   2 197.321  15.336   6
   3  -8  -2 44.7756  6.5657   5
   8   3  -2 54.0475  7.2451   5
   8   3  -2 58.6341  8.3324   5
  -3   8  -2 48.5089  6.3372   1
   8   3  -2 49.3636  7.1154   6
   3  -8  -2 41.1101  6.1149   5
  -8  -3   2 56.1092  9.5198   6
  -3   8   2 48.5309  8.6456   6
   8   3   2 45.6981  4.7348   4
  -3   8   2 39.9602  5.0125   4
   3  -8   2 52.6084  7.0106   6
   3  -8   2 42.7707  9.7406   3
  -3   8   2 54.8118  6.8804   1
   8   2  -2 19.7493  5.6009   5
   8   2  -2 20.5503  5.5726   6
  -2   8  -2 30.5019  5.2344   1
  -8  -2  -2 19.0665  2.8593   4
   2  -8  -2 16.9983  5.1471   5
   8   2  -2 22.3844  5.7047   5
   2  -8  -2 22.5139  5.3013   5
  -2   8   2 19.0847  3.3245   4
  -2   8   2 20.3086  5.2825   1
  -8  -2   2 21.2510  7.5130   6
   2  -8   2 28.7428  8.7485   3
  -2   8   2 20.4551  7.0451   6
  -8  -2   2 15.7097  4.0128   4
   2  -8   2 23.2331  6.5122   6
   1  -8  -2 315.725  17.544   5
  -8  -1  -2 316.778  13.409   4
   1  -8  -2 332.923  17.723   5
   8   1  -2 342.729  18.844   5
  -1   8  -2 327.894  16.032   1
  -1   8  -2 345.248  15.873   5
   8   1  -2 309.628  14.111   4
   8   1  -2 337.198  19.583   6
   8   1  -2 302.177  18.488   5
   1  -8   2 300.872  20.486   6
   1  -8   2 299.350  14.363   4
  -1   8   2 327.223  16.554   1
  -8  -1   2 347.945  17.262   1
  -1   8   2 312.770  20.854   6
  -8  -1   2 307.441  14.265   4
   1  -8   2 306.967  22.140   3
  -8  -1   2 340.688  21.323   6
  -1   8   2 311.250  14.152   4
   0  -8  -2 2618.52  135.61   3
   8   0  -2 2970.91  142.84   6
   0   8  -2 3034.00  125.87   5
   0   8  -2 2833.65  110.60   1
   8   0  -2 3004.25  127.61   5
   8   0  -2 2707.05  101.70   4
  -8   0   2 2789.22  101.91   4
   0   8   2 2788.77  101.58   4
  -8   0   2 2831.22  111.41   1
   0   8   2 2804.18  144.21   6
   0  -8   2 2726.60  144.06   6
  -8   0   2 2776.10  144.07   6
   0  -8   2 2804.09  135.64   3
   0   8   2 2702.24  110.87   1
   0  -8   2 2826.57  101.70   4
   8  -1  -2 311.412  14.320   4
  -1  -8  -2 251.019  15.997   5
   1   8  -2 261.821  16.863   5
   8  -1  -2 328.662  18.901   5
   1   8  -2 324.283  15.840   1
  -8   1  -2 313.923  13.209   4
  -1  -8  -2 338.653  16.256   5
  -8   1  -2 287.821  16.798   2
   8  -1  -2 349.095  19.206   6
  -1  -8  -2 265.215  20.885   3
   8  -1  -2 359.982  18.789   5
  -1  -8   2 299.760  13.706   4
  -8   1   2 339.185  20.900   6
   1   8   2 339.957  20.553   6
  -8   1   2 352.491  17.039   1
   1   8   2 304.365  14.238   4
   1   8   2 323.361  16.294   1
  -8   1   2 306.396  14.515   4
  -1  -8   2 320.421  20.700   6
  -1  -8   2 331.683  20.661   3
  -2  -8  -2 21.9458  7.5219   3
   2   8  -2 18.7431  5.0990   1
   2   8  -2 12.0764  4.2927   5
  -2  -8  -2 27.7794  3.7447   5
   8  -2  -2 24.8314  5.0294   6
   8  -2  -2 16.0937  6.3124   5
   2   8  -2 27.5137  5.6143   5
   8  -2  -2 23.4444  5.9483   5
  -8   2  -2 24.9335  4.9370   2
  -8   2  -2 24.4267  3.1717   4
  -2  -8   2 21.0195  3.8038   4
  -2  -8   2 16.4339  6.1649   3
   2   8   2 20.8118  4.1823   4
  -8   2   2 23.6408  7.5348   6
  -8   2   2 21.5272  5.6894   1
  -2  -8   2 24.2105  5.9675   6
  -8   2   2 27.2714  4.6532   4
   2   8   2 24.9716  5.5233   1
   2   8   2 21.2635  5.3242   6
  -3  -8  -2 50.0145  3.9928   5
  -8   3  -2 52.9072  6.2949   1
  -3  -8  -2 48.0429  8.4898   3
   3   8  -2 64.3841  7.6164   5
   3   8  -2 37.4630  5.2118   5
   3   8  -2 43.1332  6.4792   2
   8  -3  -2 43.8528  6.6665   5
   3   8  -2 49.2428  6.3162   1
   8  -3  -2 53.9947  7.4212   6
  -8   3  -2 50.1417  6.9826   2
   8  -3  -2 43.7785  7.4224   5
  -8   3   2 42.5071  8.9171   6
  -3  -8   2 40.5756  8.7761   6
  -3  -8   2 51.3296  4.5841   4
   3   8   2 52.8910  6.9488   1
   3   8   2 56.4103  8.5060   6
  -3  -8   2 47.6372  7.8792   3
  -8   3   2 33.3732  6.4851   1
   3   8   2 35.7350  5.0115   4
   8  -4  -2 181.468  13.325   6
   4   8  -2 198.302  14.121   5
  -8   4  -2 169.114  13.622   2
   4   8  -2 160.204  12.389   5
  -8   4  -2 151.294  11.188   1
   4   8  -2 163.660  11.637   1
   4   8  -2 182.118  12.017   2
  -4  -8  -2 154.395  14.544   3
   8  -4  -2 170.493  14.156   5
   8  -4  -2 196.718  13.939   5
  -4  -8   2 166.880  15.842   3
  -8   4   2 170.122  15.856   6
  -4  -8   2 179.729  16.378   6
   4   8   2 185.889  14.905   6
   4   8   2 169.801  12.392   1
  -8   4   2 180.934  12.656   1
  -5  -8  -2 11.5366  6.2801   3
   5   8  -2 11.2537  5.7194   5
   8  -5  -2 14.0487  6.6577   5
   5   8  -2 5.40235 5.45137   5
  -8   5  -2 4.19605 4.80863   1
   8  -5  -2 4.52316 5.90495   5
  -8   5  -2 12.1282  6.7373   2
   5   8  -2 14.5738  5.9268   1
   8  -5  -2 14.9961  6.2001   6
   5   8   2 10.0890  6.0925   1
  -8   5   2 19.0656  8.4496   6
   5   8   2 14.6258  7.0460   6
  -8   5   2 15.1057  6.0522   1
  -5  -8   2 8.50276 5.66421   3
  -5  -8   2 18.6084  9.4469   6
  -8   6  -2 1714.53   72.26   1
   6   8  -2 1711.01   73.04   1
   6   8  -2 1824.39   83.38   5
   8  -6  -2 1931.14   91.90   6
  -8   6  -2 1765.09   85.69   2
   8  -6  -2 1836.83   83.49   5
   8  -6  -2 1797.21   83.03   5
   6   8   2 1704.13   73.31   1
  -6  -8   2 1879.93   89.15   3
  -8   6   2 1839.87   94.46   6
  -8   6   2 1714.96   73.39   1
  -6  -8   2 1754.54   94.78   6
   6   8   2 1776.95   93.98   6
   8  -7  -2 168.025  14.721   5
   8  -7  -2 185.204  12.597   6
   7   8  -2 154.818  12.758   5
   7   8  -2 158.796  12.125   1
  -8   7  -2 179.577  17.964   2
   8  -7  -2 172.680  14.887   5
   7   8  -2 158.108  13.814   5
  -8   7  -2 143.757  12.065   1
  -7  -8   2 174.206  18.202   6
  -7  -8   2 173.474  15.182   3
  -8   7   2 155.910  12.122   1
  -8   7   2 151.474  16.661   6
   7   8   2 163.996  16.076   6
  -8   8  -2 125.636  11.150   1
   8   8  -2 88.4541  9.6010   5
   8   8  -2 113.494  11.334   5
   8  -8  -2 130.075  12.584   5
  -8   8  -2 123.572  15.733   2
   8  -8  -2 96.7855 12.0061   5
   8   8  -2 130.922  12.385   1
   8   8   2 115.961  13.431   6
   8  -8   2 115.293  13.141   6
  -8  -8   2 121.836  15.556   6
  -8  -8   2 114.149  13.941   3
  -8   8   2 116.725  11.643   1
  -8   8   2 127.771  14.154   6
   8  -9  -2 181.276  14.228   5
  -8   9  -2 152.620  18.332   2
   9   8  -2 175.360  16.079   5
   9   8  -2 193.524  15.489   1
   9   8  -2 172.565  14.956   5
   8  -9  -2 170.314  15.992   5
   8  -9   2 165.364  17.356   6
  -9  -8   2 204.948  18.530   3
  -9  -8   2 182.122  18.286   6
   9   8   2 168.669  15.425   6
  -8   9   2 186.414  19.694   6
  -8   9   2 160.509  13.989   1
   9   7  -2 258.512  18.221   5
   9   7  -2 245.925  18.730   5
   7  -9  -2 247.243  16.337   5
   7  -9  -2 234.914  16.857   5
  -7   9  -2 242.083  15.068   1
  -9  -7   2 231.180  20.705   6
  -7   9   2 193.173  16.266   1
   7  -9   2 219.251  19.296   6
  -7   9   2 257.981  21.144   6
   9   7   2 229.078  19.661   6
   6  -9  -2 -2.7592  6.9558   5
  -6   9  -2 -1.3140  6.8364   1
   9   6  -2 0.44762 2.59310   6
   6  -9  -2 4.46992 7.48919   5
   9   6  -2 -9.5895  5.9845   5
   9   6  -2 6.33610 7.22001   5
  -6   9   2 11.7068  7.1277   1
   9   6   2 10.3579  8.1897   6
   6  -9   2 8.01887 8.11147   6
  -9  -6   2  6.9073 10.0620   6
  -6   9   2 8.26329 9.08464   6
  -5   9  -2 85.7833  8.5465   1
   9   5  -2 82.3053  9.4673   5
   5  -9  -2 79.0496  9.2645   5
   5  -9  -2 94.2935  9.1627   5
   9   5  -2 85.7195  9.1654   6
   9   5  -2 74.4504  9.3671   5
  -5   9   2 81.2357  9.6114   1
  -5   9   2 84.9971 10.5584   6
  -9  -5   2 98.4555 12.8401   6
   5  -9   2 65.0526 10.7322   6
   5  -9   2 90.5758 12.1315   3
  -4   9  -2 342.483  17.529   1
   9   4  -2 333.213  20.229   5
   4  -9  -2 331.916  20.421   5
   4  -9  -2 341.102  20.022   5
   9   4  -2 338.647  19.768   6
   9   4  -2 317.841  20.423   5
   4  -9   2 307.238  22.774   3
  -4   9   2 307.139  18.282   1
  -9  -4   2 313.400  23.068   6
   4  -9   2 300.797  21.014   6
  -4   9   2 362.375  23.346   6
   9   3  -2 2281.67  107.71   5
  -3   9  -2 2397.41   93.64   1
   9   3  -2 2335.35  107.57   5
   9   3  -2 2437.64  120.00   6
   3  -9  -2 2611.43  107.23   5
  -3   9   2 2386.17  122.05   6
   3  -9   2 2085.95  115.35   3
  -9  -3   2 2397.50  121.93   6
  -3   9   2 2273.34   94.25   1
   3  -9   2 2285.24  121.66   6
   2  -9  -2 168.957  13.039   5
   9   2  -2 173.629  14.835   5
   2  -9  -2 218.654  13.093   5
  -2   9  -2 193.183  12.696   1
   9   2  -2 203.797  15.062   5
   9   2  -2 196.318  14.255   6
  -9  -2   2 213.658  16.984   6
   2  -9   2 203.623  16.850   6
  -2   9   2 206.313  13.238   1
   2  -9   2 203.044  18.983   3
  -2   9   2 204.387  16.794   6
   1  -9  -2 13.5592  5.0499   5
   9   1  -2 7.63691 7.22447   5
  -1   9  -2 -1.1443  2.5165   5
  -1   9  -2 5.21631 2.94068   5
   1  -9  -2 -3.0686  4.1503   5
  -1   9  -2 9.36304 4.89135   1
   9   1  -2 4.05313 5.38124   6
   9   1  -2 -0.9810  5.4716   5
  -9  -1   2 3.72328 7.34803   6
   1  -9   2 9.31568 7.30076   6
  -1   9   2 5.72789 3.92856   1
  -1   9   2 0.65765 6.91428   6
   1  -9   2 1.83194 5.81483   3
   0  -9  -2 -3.3871  7.8146   3
   9   0  -2 -2.6630  5.3092   5
   9   0  -2 -3.5312  5.8754   5
   0   9  -2 -1.2700  4.2601   1
   9   0  -2 0.45266 5.74294   6
   0   9  -2 2.03727 3.55508   5
   0   9  -2 -3.6794  3.9410   5
   0  -9  -2 -0.5495  4.8022   5
   0  -9  -2 -2.7030  3.0948   5
   0  -9   2 0.87940 7.05593   6
   0   9   2 -1.1291  4.8292   1
  -9   0   2 -1.4392  5.4969   1
  -9   0   2 2.98747 7.31793   6
   0   9   2 1.48829 6.70843   6
   0  -9   2 -5.8284  7.8352   3
   9  -1  -2 9.54139 4.76654   6
  -1  -9  -2 -2.5679  7.6682   3
   1   9  -2 14.6662  5.1782   1
  -1  -9  -2 1.35952 3.51214   5
   9  -1  -2 0.60224 5.53593   5
   1   9  -2 -3.7274  4.2150   5
   1   9  -2 3.75683 4.16784   5
  -1  -9  -2 2.76079 3.75257   5
   1   9   2 4.93997 6.67848   6
   1   9   2 5.04448 4.94679   1
  -1  -9   2 -3.3399  7.4545   6
  -9   1   2 -0.8431  5.5020   1
  -1  -9   2 8.55905 8.10695   3
  -9   1   2 5.43092 7.46608   6
   2   9  -2 186.729  12.280   1
   9  -2  -2 179.585  16.633   5
  -2  -9  -2 201.032  17.346   3
   2   9  -2 216.991  12.461   5
  -2  -9  -2 196.437  10.636   5
  -2  -9  -2 167.891  10.601   5
  -9   2  -2 168.659  12.218   2
   9  -2  -2 224.597  14.013   6
   9  -2  -2 187.213  14.338   5
   2   9  -2 160.824  12.364   5
   2   9   2 200.895  16.284   6
  -2  -9   2 185.544  17.410   6
  -9   2   2 176.173  13.300   1
  -9   2   2 202.898  16.656   6
  -2  -9   2 199.677  17.709   3
   2   9   2 180.076  12.634   1
   3   9  -2 2351.53  105.62   5
   9  -3  -2 2188.38  106.99   5
   3   9  -2 2264.23  107.01   2
   9  -3  -2 2533.00  107.09   5
   3   9  -2 2140.41  106.06   5
  -9   3  -2 2242.52   92.94   1
   3   9  -2 2324.23   93.22   1
   9  -3  -2 2626.30  119.36   6
  -9   3  -2 2208.43  106.33   2
  -9   3   2 2441.80   94.21   1
   3   9   2 2342.68  121.08   6
   3   9   2 2327.84   93.69   1
  -9   3   2 2381.85  121.30   6
  -3  -9   2 2235.61  121.24   6
  -3  -9   2 2431.25  114.73   3
   9  -4  -2 331.754  19.681   6
   9  -4  -2 335.751  19.750   5
   4   9  -2 328.291  17.570   1
   4   9  -2 290.523  18.448   5
  -4  -9  -2 291.538  21.716   3
   9  -4  -2 287.995  20.248   5
   4   9  -2 336.077  18.405   5
  -9   4  -2 284.336  19.633   2
  -4  -9   2 343.369  22.079   3
  -9   4   2 292.457  22.638   6
  -4  -9   2 338.895  23.900   6
   4   9   2 324.284  22.241   6
  -9   4   2 320.385  18.514   1
   4   9   2 313.507  18.016   1
   5   9  -2 69.3666  7.5028   5
   9  -5  -2 70.2256 10.6013   5
   5   9  -2 73.0212  9.5737   5
   9  -5  -2 104.211   9.366   6
   5   9  -2 89.4427  8.5382   1
   9  -5  -2 74.9330 10.3280   5
  -9   5  -2 70.3385  8.3827   1
  -5  -9  -2 67.6755 10.4336   3
  -9   5  -2 78.5778 10.6903   2
  -5  -9   2 68.5335 11.9672   3
  -9   5   2 87.1924  9.9184   1
   5   9   2 86.9887 11.3996   6
  -9   5   2 93.5317 12.4876   6
   5   9   2 73.6588  9.4036   1
  -5  -9   2 100.944  13.688   6
   6   9  -2 2.61939 5.37218   5
   9  -6  -2 5.22269 7.87357   5
   6   9  -2 4.47690 6.42808   5
   9  -6  -2 6.32981 6.40862   6
   6   9  -2 1.71200 6.54046   1
   9  -6  -2 7.07075 7.03247   5
  -9   6  -2 10.2099  8.0241   2
  -9   6  -2 4.67240 5.88347   1
   6   9   2 5.70625 5.24087   1
  -6  -9   2 11.0902  9.3857   3
   6   9   2 8.99738 8.29955   6
  -9   6   2 0.05405 8.99980   6
  -6  -9   2  8.0088 11.1115   6
  -9   6   2 6.16972 5.17209   1
   9  -7  -2 249.792  19.074   5
  -9   7  -2 224.841  16.181   1
   7   9  -2 239.277  16.973   1
   9  -7  -2 247.579  19.477   5
   7   9  -2 238.987  16.616   5
  -9   7  -2 244.457  18.927   2
   7   9  -2 248.968  17.802   5
   7   9   2 255.648  20.412   6
   7   9   2 243.677  17.950   1
  -7  -9   2 237.309  21.582   6
   9  -7   2 238.658  19.414   6
  -9   7   2 232.035  15.386   1
  -7  -9   2 230.817  18.845   3
  -9   7   2 258.084  21.462   6
   8   9  -2 168.220  13.731   5
   9  -8  -2 181.967  16.487   5
  -9   8  -2 134.076  16.956   2
   9  -8  -2 179.891  15.023   5
   8   9  -2 168.642  14.927   5
   9  -8   2 186.084  17.250   6
   8   9   2 161.865  15.271   6
  -8  -9   2 178.055  17.538   3
   8   9   2 160.132  14.987   1
  -9   8   2 182.572  14.935   1
  -9   8   2 180.171  18.936   6
  -8  -9   2 182.462  18.546   6
   9   9  -2 461.787  25.106   5
   9   9  -2 492.671  26.852   1
   9  -9  -2 505.802  26.390   5
   9  -9  -2 485.822  26.320   5
   9   9  -2 468.824  26.453   5
  -9   9  -2 482.110  32.795   2
  -9  -9   2 458.951  31.831   3
  -9  -9   2 498.869  32.969   6
   9   9   2 510.342  28.017   1
  -9   9   2 472.097  26.501   1
  -9   9   2 472.898  31.658   6
   9   9   2 460.806  32.021   6
   9  -9   2 456.443  31.111   6
   9 -10  -2 175.799  13.089   5
  10   9  -2 182.667  12.920   5
  10   9  -2 191.702  16.494   1
  -9  10  -2 156.871  19.428   2
  10   9   2 193.940  17.522   1
  10   9   2 209.395  19.511   6
  -9  10   2 196.175  19.597   6
 -10  -9   2 213.429  19.969   3
   9 -10   2 189.051  19.040   6
  -9  10   2 177.577  16.190   1
 -10  -9   2 180.961  18.915   6
  10   8  -2 161.022  15.324   1
  10   8  -2 175.004  15.251   5
   8 -10  -2 177.583  14.423   5
   8 -10  -2 186.271  14.194   5
  -8  10  -2 227.946  22.052   2
  10   8  -2 172.001  14.158   5
   8 -10   2 193.191  18.444   6
  10   8   2 169.074  17.282   6
 -10  -8   2 205.147  19.876   3
  -8  10   2 188.252  17.597   6
 -10  -8   2 172.564  17.856   6
  -8  10   2 177.938  15.569   1
   7 -10  -2 60.6834  8.7621   5
  -7  10  -2 62.6798  8.4526   1
   7 -10  -2 46.2639  8.0472   5
  10   7  -2 49.4141 10.7682   5
  10   7  -2 52.8150  8.3152   5
   7 -10   2 54.5097 11.5898   6
  10   7   2 57.0438 11.2245   6
 -10  -7   2 67.4426 12.7520   6
  -7  10   2 77.6183 14.7228   6
  -7  10   2 48.1409  9.7398   1
  10   6  -2 11.3497  7.2843   5
   6 -10  -2 16.4584  7.2617   5
  10   6  -2 9.68340 8.04169   5
  -6  10  -2 10.0868  6.3800   1
   6 -10  -2 14.3867  7.6000   5
  -6  10   2 25.7510 10.4078   6
  -6  10   2 13.0151  7.9727   1
   6 -10   2 11.2121  9.5279   6
  10   6   2 23.5123  8.9577   6
 -10  -6   2 12.5968 10.9806   6
   5 -10  -2 11.4946  5.9538   5
  10   5  -2 16.2962  9.4106   5
  -5  10  -2 11.3560  6.3430   1
  10   5  -2 14.6573  4.4965   6
  10   5  -2 17.0959  9.2287   5
   5 -10   2 10.7636  9.1378   6
 -10  -5   2 11.2901 10.0575   6
  10   5   2 15.8031  8.5620   6
   5 -10   2  7.3265 10.8777   3
  -5  10   2 7.56001 9.55843   6
  -5  10   2 1.04679 7.18825   1
  10   4  -2 332.290  21.365   5
  10   4  -2 352.502  21.395   5
  10   4  -2 352.597  19.652   6
   4 -10  -2 372.049  20.186   5
  -4  10   2 300.926  19.163   1
   4 -10   2 313.209  22.352   6
  -4  10   2 366.198  24.456   6
 -10  -4   2 313.854  23.922   6
   4 -10   2 271.874  23.420   3
  -3  10  -2 123.054  10.108   1
   3 -10  -2 86.5625  8.5114   5
  10   3  -2 98.6186 10.9061   5
  10   3  -2 87.3365 10.7890   5
  10   3  -2 114.633  10.522   6
   3 -10  -2 94.5683  9.9571   5
   3 -10   2 92.9219 14.6147   3
  -3  10   2 114.412  11.008   1
   3 -10   2 119.956  12.008   6
  -3  10   2 111.789  13.148   6
 -10  -3   2 97.7654 13.0545   6
   2 -10  -2 372.160  22.038   5
  -2  10  -2 404.373  20.476   1
   2 -10  -2 412.131  21.403   5
  10   2  -2 399.234  23.608   5
  10   2  -2 421.811  23.792   6
  10   2  -2 397.273  24.761   5
 -10  -2   2 434.169  26.657   6
   2 -10   2 372.552  26.640   3
   2 -10   2 385.227  27.242   6
  -2  10   2 412.951  25.494   6
  -2  10   2 383.692  21.110   1
   1 -10  -2 44.9573  6.8881   5
  10   1  -2 55.6090  9.1747   5
   1 -10  -2 51.9418  6.4833   5
  -1  10  -2 60.3602  7.6423   1
  10   1  -2 62.2511  7.3839   6
  10   1  -2 50.1824  8.3793   5
 -10  -1   2 50.2215 10.4505   6
  -1  10   2 68.7466 10.7857   6
   1 -10   2 59.4525 11.1795   6
   1 -10   2 61.5891 12.5117   3
  -1  10   2 47.3548  7.7877   1
  10   0  -2 61.0908  7.6657   6
   0 -10  -2 55.9457  6.0942   5
  10   0  -2 42.7462 10.2845   5
   0  10  -2 40.6630  4.4320   5
  10   0  -2 44.6557  8.0925   5
   0  10  -2 35.7260  4.4235   5
   0 -10  -2 54.6438  6.2543   5
   0  10  -2 37.5860  7.0288   1
   0 -10   2 49.5760 11.7109   3
   0  10   2 56.1640  8.6021   6
   0 -10   2 47.3583 10.7017   6
 -10   0   2 33.8961  7.9357   1
 -10   0   2 51.2413 10.4629   6
   0  10   2 33.9847  7.2567   1
   1  10  -2 52.5236  5.6294   5
   1  10  -2 37.3817  6.2070   5
  -1 -10  -2 56.4796 11.4106   3
   1  10  -2 50.1325  7.2831   1
  10  -1  -2 51.1720  8.1565   5
  -1 -10  -2 57.4682  5.6100   5
  -1 -10  -2 44.3397  5.6016   5
  10  -1  -2 56.4860  7.5014   6
  -1 -10   2 52.6102 11.2408   6
 -10   1   2 64.8619 11.2815   6
   1  10   2 63.0990 10.5197   6
  -1 -10   2 62.0900 11.8925   3
   1  10   2 45.0247  7.7091   1
 -10   1   2 54.9252  8.6912   1
  10  -2  -2 372.610  23.512   5
  -2 -10  -2 344.602  25.943   3
   2  10  -2 351.742  20.143   5
   2  10  -2 406.998  19.796   5
  10  -2  -2 429.981  22.577   6
  -2 -10  -2 310.745  17.109   5
   2  10  -2 395.790  19.895   1
  10  -2  -2 410.471  22.619   5
 -10   2   2 374.419  19.882   1
   2  10   2 406.587  25.770   6
  -2 -10   2 391.865  26.830   6
  -2 -10   2 389.326  26.878   3
   2  10   2 385.335  20.422   1
 -10   2   2 404.598  26.059   6
   3  10  -2 104.836   9.937   1
  10  -3  -2 101.982  11.797   5
  -3 -10  -2 92.2804 12.9055   3
  10  -3  -2 137.801  11.742   6
   3  10  -2 83.8386  8.8243   5
   3  10  -2 71.6833  7.7380   5
   3  10  -2 89.2071 10.5409   2
  10  -3  -2 96.1608 10.1917   5
  -3 -10   2 107.667  12.678   3
   3  10   2 109.207  10.495   1
   3  10   2 131.033  13.432   6
 -10   3   2 113.019  13.547   6
 -10   3   2 101.076  10.655   1
  -3 -10   2 116.303  14.390   6
   4  10  -2 326.231  17.971   5
  10  -4  -2 359.333  19.654   6
 -10   4  -2 303.708  20.649   2
   4  10  -2 290.643  18.615   5
   4  10  -2 296.633  18.037   1
  -4 -10  -2 285.649  22.653   3
  10  -4  -2 314.068  21.516   5
 -10   4  -2 285.174  18.553   1
  -4 -10   2 309.818  24.306   3
   4  10   2 322.905  18.995   1
   4  10   2 318.973  23.195   6
 -10   4   2 323.124  24.436   6
 -10   4   2 327.035  19.581   1
  -4 -10   2 321.807  24.957   6
   5  10  -2 5.27546 6.96395   5
   5  10  -2 12.8215  6.9182   5
  10  -5  -2 15.5632  5.8921   6
   5  10  -2 8.95486 7.02771   1
 -10   5  -2 14.5019  7.5865   1
 -10   5  -2 6.88083 6.76072   2
  10  -5  -2 18.2397  8.5979   5
 -10   5   2 14.7128 10.0973   6
  -5 -10   2  3.0600 11.4362   6
   5  10   2 4.52739 8.88386   6
  -5 -10   2 13.8780  9.7761   3
   5  10   2 5.72502 7.66694   1
 -10   5   2 10.7980  7.7721   1
 -10   6  -2 4.45391 7.55996   2
  10  -6  -2 1.05349 8.11371   5
   6  10  -2 14.8499  6.0779   5
   6  10  -2 13.8250  7.5886   1
   6  10  -2 4.62657 6.85230   5
   6  10   2 0.37211 9.01586   6
 -10   6   2 12.9965 10.2424   6
  -6 -10   2 15.4687 12.0171   6
  -6 -10   2 24.7283 10.6185   3
   6  10   2 15.0971  8.4419   1
 -10   6   2 6.66490 7.89100   1
  10  -6   2 19.0080  8.8474   6
   7  10  -2 47.3225  7.3201   5
   7  10  -2 42.8983  7.8447   5
   7  10  -2 50.1384  9.6793   1
  10  -7  -2 48.9611 10.7846   5
 -10   7  -2 56.0960 11.3963   2
   7  10   2 42.5305 11.3049   6
  -7 -10   2 60.0518 12.6810   3
  -7 -10   2 51.9955 13.9717   6
  10  -7   2 73.7250 11.1254   6
   7  10   2 63.5859 10.6052   1
 -10   7   2 35.1422  9.5069   1
 -10   7   2 72.0747 12.2620   6
   8  10  -2 170.567  12.333   5
  10  -8  -2 183.147  14.422   5
 -10   8  -2 179.783  18.761   2
  10  -8  -2 198.725  15.933   5
   8  10  -2 166.154  15.351   1
   8  10  -2 164.605  12.813   5
   8  10   2 161.565  15.773   1
  -8 -10   2 223.882  20.147   3
   8  10   2 197.011  18.608   6
  10  -8   2 187.998  18.299   6
  -8 -10   2 182.406  19.375   6
 -10   8   2 180.191  14.416   1
 -10   8   2 207.347  20.097   6
  10  -9  -2 180.395  13.300   5
   9  10  -2 166.806  15.310   1
 -10   9  -2 189.854  19.638   2
  -9 -10   2 151.970  18.027   3
   9  10   2 177.727  15.241   1
 -10   9   2 200.780  16.766   1
  10  -9   2 192.053  20.251   6
 -10   9   2 195.254  18.957   6
   9  10   2 205.061  19.241   6
  -9 -10   2 149.319  17.860   6
  10  10  -2 206.906  16.878   1
 -10  10  -2 195.138  20.849   2
 -10  10   2 172.770  14.940   1
  10  10   2 201.511  18.445   1
  10 -10   2 172.719  18.924   6
 -10  10   2 233.806  19.594   6
 -10 -10   2 202.724  21.109   6
  10  10   2 207.190  19.945   6
 -10 -10   2 171.507  19.110   3
 -10  11  -2 96.5801 16.7333   2
  11  10  -2 64.8612 11.8954   1
  11  10   2 75.5359 14.2939   1
 -10  11   2 85.5152 10.8088   1
 -10  11   2 89.3118 12.3683   6
  11  10   2 72.0444 14.1706   6
 -11 -10   2 85.1112 14.6561   6
  10 -11   2 81.7462 15.0397   6
  11   9  -2 4.01990 9.54694   1
  -9  11  -2 18.3430  9.6727   2
 -11  -9   2  6.9299 10.7771   3
  -9  11   2 18.6098 10.2576   6
 -11  -9   2 31.1364 14.0550   6
  11   9   2 18.2334 11.7094   6
   9 -11   2 -5.4148 11.7052   6
  -9  11   2 19.7289 10.0463   1
  11   9   2 -0.2712 11.1392   1
  11   8  -2 58.7344 11.5563   1
  -8  11  -2 42.5946 13.8849   2
  11   8   2 38.3329 12.1479   6
   8 -11   2 42.2078 12.9864   6
  -8  11   2 49.2135 13.7658   6
  -8  11   2 52.4123 10.9537   1
 -11  -8   2 46.4962  9.6113   3
 -11  -8   2 71.4870 13.2070   6
   7 -11  -2 74.1118  7.8353   5
  -7  11  -2 87.8401 15.9713   2
  11   7  -2 78.1328 10.1244   5
  11   7  -2 52.6406  9.0738   5
 -11  -7   2 87.9640 16.2090   6
  11   7   2 86.7788 13.3892   6
   7 -11   2 80.7155 13.8638   6
  -7  11   2 92.0728 15.4116   6
  -7  11   2 78.5201 11.5678   1
  11   6  -2 19.9107  9.1408   5
  11   6  -2 40.2907  9.1770   5
   6 -11  -2 48.6142  7.1825   5
   6 -11   2 67.6238 12.6755   6
 -11  -6   2 48.0199 12.1382   6
  -6  11   2 41.3774  7.8796   1
  -6  11   2 59.3120 12.0500   6
  11   6   2 42.1769 10.9223   6
  -5  11  -2 1046.36   47.22   1
   5 -11  -2 1147.44   52.17   5
   5 -11  -2 1180.51   52.34   5
  11   5  -2 1061.37   54.09   5
  -5  11   2 1064.57   48.14   1
  -5  11   2 1131.06   61.86   6
  11   5   2 1067.75   61.05   6
 -11  -5   2 1144.68   62.72   6
   5 -11   2 1094.94   61.89   6
   4 -11  -2 317.465  18.570   5
  11   4  -2 325.237  21.069   5
   4 -11  -2 334.491  18.368   5
  -4  11  -2 300.879  18.118   1
 -11  -4   2 344.782  26.692   6
  11   4   2 299.011  22.689   6
   4 -11   2 283.319  24.265   3
  -4  11   2 324.792  19.859   1
  -4  11   2 337.884  25.131   6
   4 -11   2 280.812  24.378   6
  11   3  -2 340.764  22.609   5
  -3  11  -2 368.383  19.578   1
   3 -11  -2 336.825  20.153   5
   3 -11  -2 373.186  19.536   5
  11   3  -2 360.832  19.813   6
  -3  11   2 337.111  25.904   6
   3 -11   2 308.764  27.564   3
   3 -11   2 342.933  26.151   6
  -3  11   2 306.607  20.092   1
 -11  -3   2 383.675  25.958   6
  11   2  -2 238.482  19.303   5
   2 -11  -2 294.985  15.796   5
  -2  11  -2 258.499  16.410   1
  11   2  -2 282.475  16.625   6
   2 -11  -2 254.467  16.376   5
  -2  11   2 257.950  17.285   1
   2 -11   2 262.676  22.696   6
 -11  -2   2 274.417  21.896   6
  -2  11   2 262.942  22.092   6
   2 -11   2 249.545  24.184   3
  11   1  -2 873.749  42.996   5
   1 -11  -2 796.148  39.447   5
   1 -11  -2 924.992  39.769   5
  -1  11  -2 800.730  37.123   1
  -1  11   2 765.805  37.614   1
 -11  -1   2 894.562  48.556   6
  -1  11   2 844.179  48.372   6
   1 -11   2 857.900  49.130   6
   1 -11   2 770.842  47.331   3
   0 -11  -2 -2.4358  4.1484   5
  11   0  -2 -5.8179  7.8076   5
   0 -11  -2 -5.9800  3.4669   5
   0  11  -2 8.87338 6.20355   1
   0  11   2 0.60170 6.78679   1
   0 -11   2 -0.0440  7.1869   3
   0 -11   2  1.9734 10.4382   6
   0  11   2 3.37638 9.10395   6
 -11   0   2 3.33939 9.62366   6
  11  -1  -2 910.970  44.729   6
   1  11  -2 801.881  37.255   1
  11  -1  -2 835.802  43.852   5
  -1 -11   2 780.044  48.204   3
  -1 -11   2 796.733  49.109   6
   1  11   2 874.267  48.407   6
 -11   1   2 848.491  39.043   1
   1  11   2 819.262  37.999   1
 -11   1   2 864.028  48.714   6
  -2 -11  -2 235.528  22.718   3
   2  11  -2 260.333  16.652   1
   2  11  -2 261.116  13.225   5
  11  -2  -2 301.414  17.466   6
   2  11  -2 241.497  20.098   2
   2  11  -2 294.380  13.423   5
  -2 -11   2 255.721  23.562   3
 -11   2   2 274.667  23.032   6
   2  11   2 263.403  17.598   1
  -2 -11   2 290.037  23.884   6
 -11   2   2 255.162  18.602   1
   2  11   2 271.281  21.611   6
   3  11  -2 329.648  22.237   2
  -3 -11  -2 297.335  24.881   3
   3  11  -2 365.445  17.555   5
  11  -3  -2 373.433  20.489   6
  11  -3  -2 319.570  24.601   5
   3  11  -2 348.707  17.920   5
   3  11  -2 318.987  19.480   1
   3  11   2 334.804  24.869   6
 -11   3   2 335.955  26.397   6
   3  11   2 324.329  20.223   1
  -3 -11   2 356.176  26.990   3
  -3 -11   2 343.960  26.886   6
 -11   3   2 365.899  21.563   1
   4  11  -2 310.287  16.358   5
  11  -4  -2 309.468  16.656   6
   4  11  -2 297.073  18.713   1
  11  -4  -2 290.587  21.267   5
   4  11  -2 306.041  16.765   5
  -4 -11  -2 276.315  23.292   3
  -4 -11   2 303.054  23.102   6
   4  11   2 287.821  19.353   1
  -4 -11   2 336.621  23.732   3
 -11   4   2 303.474  24.235   6
 -11   4   2 311.516  20.430   1
   4  11   2 321.003  23.539   6
   5  11  -2 1132.56   50.21   5
   5  11  -2 1052.28   50.18   5
   5  11  -2 1044.13   47.68   1
  11  -5  -2 1115.18   53.66   5
 -11   5   2 1169.11   61.29   6
   5  11   2 1068.71   60.97   6
  -5 -11   2 1097.18   62.57   6
   5  11   2 1088.52   48.63   1
  -5 -11   2 1061.37   59.00   3
  11  -5   2 1064.09   60.37   6
 -11   5   2 1122.56   49.08   1
   6  11  -2 39.4552  5.2534   5
  11  -6  -2 42.3053  9.2590   5
   6  11  -2 47.6781  9.5196   1
   6  11  -2 48.1670  4.8700   5
   6  11   2 39.8129 10.3714   1
  11  -6   2 34.5965 10.2313   6
   6  11   2 55.5707 12.2089   6
  -6 -11   2 39.6728 13.9092   6
 -11   6   2 40.7768 10.2911   1
  -6 -11   2 50.2829 10.4748   3
 -11   6   2 46.1664 11.4426   6
 -11   7  -2 75.6872 12.5654   2
  11  -7  -2 79.4055 11.6808   5
   7  11  -2 73.9721 11.0180   1
  11  -7  -2 91.6321 10.7460   5
   7  11   2 73.7256 12.0098   1
   7  11   2 78.9842 14.0875   6
  -7 -11   2 79.8316 14.5596   3
  -7 -11   2 70.3373 15.0413   6
  11  -7   2 90.1783 12.6439   6
 -11   7   2 76.4079 11.9955   1
 -11   7   2 91.0957 13.0622   6
   8  11  -2 40.7719 10.1895   1
 -11   8  -2 28.1236 10.5907   2
  11  -8  -2 39.9365  8.7298   5
  -8 -11   2 31.6929  9.6685   3
   8  11   2 59.3127 13.2371   6
   8  11   2 54.0372 11.9421   1
  -8 -11   2 34.9239 13.7545   6
  11  -8   2 28.0882 13.3902   6
 -11   8   2 47.4976 10.8834   1
 -11   8   2 59.0589 11.3338   6
   9  11  -2 17.7129  9.3046   1
 -11   9  -2 10.6229  7.7125   2
 -11   9   2 47.4121 11.9419   6
 -11   9   2 7.41505 9.85074   1
  11  -9   2 12.9860 10.9637   6
   9  11   2  4.6575 10.6160   1
   9  11   2 17.1642 11.8714   6
  -9 -11   2  6.3410 12.1262   6
  -9 -11   2 16.3912  8.5615   3
 -11  10  -2 64.5407 11.6348   2
  10  11  -2 51.2600 11.1461   1
 -10 -11   2 84.3370 16.0074   6
  10  11   2 90.2954 14.4016   1
 -11  10   2 77.5426 12.6623   1
 -11  10   2 86.6467 11.9581   6
  10  11   2 94.1764 15.2017   6
  11 -10   2 71.0437 14.7645   6
 -11  11  -2 533.260  37.439   2
  11  11   2 614.852  40.682   6
  11  11   2 627.734  32.186   1
 -11 -11   2 624.409  36.036   6
  11 -11   2 552.971  39.051   6
 -10  12  -2 24.6947 10.1489   2
  12  10   2 25.6030 12.4186   1
 -10  12   2 19.9445 10.1775   1
 -12 -10   2 16.2381  9.9572   6
  10 -12   2 -1.0707 12.7674   6
  12  10   2 32.3303 12.7518   6
  -9  12  -2 11.3818 12.6140   2
  12   9  -2 -23.921   8.757   1
  -9  12   2 4.68888 9.95682   1
 -12  -9   2 -19.085  10.967   6
  12   9   2 -8.0118 11.7475   1
  -9  12   2  2.8944 10.8751   6
   9 -12   2 -21.541  11.746   6
  12   9   2 -2.6086 11.3017   6
  -8  12  -2 405.888  31.754   2
   8 -12   2 372.757  30.538   6
  -8  12   2 411.157  28.092   6
  12   8   2 397.959  29.463   6
 -12  -8   2 389.548  27.683   6
  -8  12   2 403.645  25.070   1
  -7  12  -2 26.3821 13.5105   2
 -12  -7   2 13.1671 13.6531   6
  -7  12   2 13.9174 10.8323   6
  12   7   2 12.0809 10.8152   6
   7 -12   2  6.4839 12.3143   6
  -7  12   2 4.85778 9.41121   1
  12   6  -2 -8.8955  8.4650   5
  -6  12  -2 -10.169  11.902   2
 -12  -6   2 11.0134 13.3063   6
  -6  12   2 -2.9784 10.5964   6
   6 -12   2 -3.5775 11.5480   6
  12   6   2 -5.3045  9.7241   6
  -6  12   2 7.65129 9.49977   1
  12   5  -2 41.6188 10.6089   5
  12   5  -2 32.7121  9.0826   5
  -5  12   2 38.8181 12.0097   6
  12   5   2 39.0924 11.1835   6
  -5  12   2 35.6496  9.7954   1
 -12  -5   2 38.0347 11.9799   6
   5 -12   2 64.7278 13.5492   6
   4 -12  -2 103.613   6.277   5
  12   4  -2 123.273  13.197   5
  -4  12  -2 111.881  10.962   1
   4 -12  -2 120.757   6.789   5
   4 -12   2 141.718  16.669   6
   4 -12   2 105.220  15.399   3
 -12  -4   2 113.041  14.936   6
  12   4   2 127.173  14.450   6
  -4  12   2 125.754  15.460   6
  -4  12   2 101.723  11.069   1
   3 -12  -2 5.14956 3.03111   5
  12   3  -2 -0.1376  9.7396   5
  -3  12  -2 5.75090 6.85419   1
   3 -12  -2 7.21721 3.56302   5
   3 -12   2  0.3811 11.1750   6
  12   3   2 7.34723 8.79800   6
  -3  12   2 12.7257 13.1248   6
   3 -12   2  6.8612 12.4695   3
 -12  -3   2  4.8316 10.2451   6
  -3  12   2 9.61537 8.28678   1
  12   2  -2 381.950  26.898   5
  -2  12  -2 438.175  22.812   1
  12   2   2 425.445  28.425   6
  -2  12   2 427.582  23.937   1
  -2  12   2 466.051  30.779   6
 -12  -2   2 470.521  30.067   6
   2 -12   2 434.722  30.800   6
   2 -12   2 350.641  31.392   3
  12   1  -2 -0.1000 10.2962   5
  -1  12  -2 20.2077  7.4722   1
   1 -12   2 22.9781 12.3726   6
   1 -12   2 19.0563 12.3811   3
  -1  12   2 26.5437 11.1220   6
 -12  -1   2 19.6961 11.2941   6
  -1  12   2 25.2383  8.8089   1
   0  12  -2 -0.7656  7.0459   1
  12   0  -2 -11.454   7.922   5
   0 -12   2 -6.5596  7.7266   3
 -12   0   2 -0.0731 10.4051   6
   0  12   2 9.41175 7.85183   1
   0 -12   2 -3.1250 11.7091   6
   0  12   2  3.4236 10.1441   6
  12  -1  -2 0.97674 8.50520   5
   1  12  -2 14.3344  9.4991   2
   1  12  -2 10.7042  7.2216   1
  12  -1   2 34.4636  9.8937   6
   1  12   2 33.6425 11.1383   6
  -1 -12   2 14.4463 11.9616   3
  -1 -12   2 19.6976 12.6571   6
   1  12   2 16.9193  6.3342   1
 -12   1   2 28.4501 11.0610   6
  12  -2  -2 413.245  25.719   5
   2  12  -2 421.527  22.908   1
   2  12  -2 384.117  27.273   2
  12  -2   2 469.531  29.783   6
   2  12   2 419.197  29.267   6
  -2 -12   2 440.011  31.973   6
  -2 -12   2 399.112  31.134   3
 -12   2   2 408.266  24.627   1
 -12   2   2 422.767  29.480   6
   2  12   2 409.202  23.562   1
   3  12  -2 8.91599 7.58598   1
  -3 -12  -2 -0.8460  9.5598   3
   3  12   2 7.96555 8.38685   1
 -12   3   2 -3.0858 10.2769   6
  -3 -12   2  8.2240 13.0483   6
 -12   3   2 7.90194 9.06790   1
   3  12   2 -10.962   9.648   6
  -3 -12   2 -1.2317 11.2100   3
  12  -3   2 20.7974  9.3223   6
   4  12  -2 129.296  12.045   1
  -4 -12   2 110.838  17.152   3
 -12   4   2 95.2339 12.8997   1
 -12   4   2 110.752  14.383   6
   4  12   2 132.483  15.861   6
  -4 -12   2 127.657  18.125   6
  12  -4   2 121.091  14.573   6
   4  12   2 114.668  12.800   1
   5  12  -2 48.0294  9.6964   1
   5  12   2 48.9203 12.6999   6
 -12   5   2 57.1269 11.4852   1
   5  12   2 41.0672 10.5630   1
  -5 -12   2 44.1121 13.5495   3
  12  -5   2 49.3611 10.8712   6
 -12   5   2 52.0544 13.7117   6
  -5 -12   2 24.0480 14.2151   6
  12  -6  -2 -0.1662  9.1796   5
   6  12  -2 2.10361 8.26220   1
 -12   6   2 -7.3093  6.4519   1
 -12   6   2 14.9471 10.1341   6
  -6 -12   2 14.4562 13.4831   6
  12  -6   2 4.02230 9.74576   6
   6  12   2 -3.9833 11.1827   6
  -6 -12   2 13.3840 11.5055   3
   6  12   2 -5.8639  6.1426   1
   7  12  -2 4.37512 8.38045   1
   7  12   2  1.9361 14.0739   6
  -7 -12   2 17.6570  8.8777   3
 -12   7   2 25.8925  8.0877   1
 -12   7   2 22.5060 10.0882   6
  -7 -12   2 11.9118 13.4671   6
   7  12   2 19.7967 10.2280   1
  12  -7   2 26.9473 10.7388   6
   8  12  -2 395.960  24.025   1
 -12   8   2 432.760  27.774   6
 -12   8   2 375.973  25.069   1
  12  -8   2 386.480  29.153   6
   8  12   2 390.004  23.396   1
  -8 -12   2 365.748  29.888   3
   8  12   2 368.252  29.458   6
   9  12   2  6.1801 11.0432   1
  12  -9   2  9.3443 11.4383   6
 -12   9   2  9.6609 10.0999   6
  -9 -12   2 -5.8606 11.2290   6
 -12   9   2 -0.5119 10.1059   1
   9  12   2 -4.6778 11.5988   6
  -9 -12   2 11.3590 11.4793   3
 -10 -12   2 39.4389 12.1207   6
  12 -10   2 14.7042 12.6858   6
  10  12   2 18.2455 12.0445   6
  10  12   2 23.1236 12.3118   1
 -12  10   2  4.8448 10.2426   1
  -9  13  -2 271.156  25.869   2
  13   9   2 243.884  24.811   6
  -9  13   2 248.900  18.055   1
  -9  13   2 272.540  17.281   6
   9 -13   2 246.922  25.157   6
  13   8  -2 27.2404 11.3076   1
  -8  13  -2 33.9627 10.7061   2
  13   8   2 22.4402 12.4802   6
  -8  13   2 29.9389 10.4841   6
 -13  -8   2 31.9886 10.6178   6
  -8  13   2 31.5658 11.1011   1
   8 -13   2 32.4913 13.8585   6
  -7  13  -2 51.5838 12.2698   2
   7 -13   2 64.3047 15.4252   6
 -13  -7   2 64.8739 12.7186   6
  -7  13   2 51.2708 11.5942   1
  13   7   2 65.2720 13.8175   6
  -7  13   2 64.9832 13.9550   6
  -6  13  -2 33.2982 14.3579   2
  -6  13   2 34.7363 11.6549   6
   6 -13   2 23.8444 16.1550   6
  -6  13   2 23.4450  7.9058   1
  13   6   2 34.4940 12.1504   6
 -13  -6   2 49.6896 13.7375   6
  -5  13  -2  2.6949 12.9638   2
  13   5   2  7.5179 10.7656   6
   5 -13   2 -0.1920 12.6432   6
  -5  13   2 -0.1957 13.1229   6
 -13  -5   2 20.6043 10.9641   6
  -5  13   2 -0.0303  9.2357   1
  13   4  -2 35.7303  8.8170   5
  13   4   2 46.0755 12.1427   6
  -4  13   2 42.6859 12.5708   6
   4 -13   2 33.9935 13.9948   6
 -13  -4   2 42.9227 13.9407   6
  -4  13   2 31.2598 10.1627   1
  13   3  -2 414.082  26.457   5
   3 -13   2 453.430  33.773   6
  -3  13   2 485.529  32.078   6
   3 -13   2 404.021  32.061   3
  -3  13   2 484.569  26.590   1
 -13  -3   2 518.175  33.158   6
  13   2  -2 -12.157   9.797   5
  -2  13  -2 17.9529  7.9254   1
   2 -13   2 12.5893  9.4390   3
 -13  -2   2 22.2548 11.1392   6
  -2  13   2  3.8417 11.1744   6
  -2  13   2 34.7633  9.8477   1
   2 -13   2 16.1972 13.5729   6
  -1  13  -2 30.7293  8.3514   1
  13   1  -2 -0.0641  9.8960   5
  13   1   2 31.7371  9.9841   6
   1 -13   2 45.5870 14.7196   3
   1 -13   2 34.6832 14.3248   6
  -1  13   2 23.5444  9.5498   1
 -13  -1   2 28.3580 11.3951   6
  -1  13   2 32.2586 12.0844   6
  13   0  -2 -15.069   9.850   5
   0  13  -2 -4.5353  7.1940   1
   0  13  -2 -7.4357 10.0028   2
   0 -13   2 -8.2971 11.8531   3
   0  13   2 -6.9066  5.8629   1
   0 -13   2  6.1822 13.0234   6
   0  13   2  5.3454 10.9549   6
  13   0   2 17.4402  9.7767   6
 -13   0   2  5.9845 10.2880   6
  13  -1  -2  9.2124 10.3276   5
   1  13  -2 25.0432 10.7423   2
   1  13  -2 40.5234  8.7031   1
  -1 -13   2 9.41759 9.38273   3
  13  -1   2 45.8396 10.9642   6
   1  13   2 19.0937 11.7358   6
   1  13   2 28.8359  9.4696   1
  -1 -13   2 32.7632 14.2612   6
 -13   1   2 26.4090 11.4625   6
   2  13  -2 26.7026  8.6417   1
  13  -2  -2 8.02172 8.21048   5
   2  13  -2 25.4190  9.6484   2
  -2 -13   2  3.0669 13.4664   6
  13  -2   2 40.3087 10.9345   6
   2  13   2  2.6422 11.0794   6
   2  13   2 12.1577  8.9668   1
 -13   2   2 38.3564 10.9833   6
  -2 -13   2 15.4282 13.4303   3
  13  -3  -2 468.053  27.847   5
   3  13  -2 468.713  25.840   1
   3  13   2 461.585  27.088   1
 -13   3   2 538.408  33.511   6
  -3 -13   2 473.719  35.397   3
  -3 -13   2 502.600  35.446   6
   3  13   2 491.585  33.373   6
 -13   3   2 458.388  28.238   1
  13  -3   2 499.030  32.423   6
   4  13  -2 42.2359  9.5394   1
 -13   4   2 58.5754 13.5842   6
  -4 -13   2 39.7005 14.0085   3
   4  13   2 48.9931 12.9725   6
  -4 -13   2 30.4050 15.2218   6
 -13   4   2 23.2835 10.9103   1
   4  13   2 28.1981 10.2883   1
  13  -4   2 40.8869 11.5873   6
   5  13  -2 -2.7553  7.7482   1
   5  13   2 -1.3189  9.1156   1
 -13   5   2  4.9843 10.3088   1
 -13   5   2 8.92774 9.63758   6
  -5 -13   2  2.2723 12.0554   3
  -5 -13   2 14.7463 13.7965   6
   5  13   2 -0.7111 11.3325   6
  13  -5   2 17.3191 10.6883   6
   6  13  -2 17.3146  8.8520   1
 -13   6   2 57.7360 11.9157   6
   6  13   2 28.6684 12.4384   6
   6  13   2 46.2168 11.5132   1
  -6 -13   2 25.2526 10.2302   3
  13  -6   2 25.6371 13.2137   6
 -13   6   2 20.3742 11.1524   1
  -6 -13   2 29.1943 17.0920   6
  -7 -13   2 34.8851 13.7573   3
   7  13   2 65.5046 12.6308   1
  13  -7   2 85.0807 13.9564   6
  -7 -13   2 71.0863 17.7197   6
 -13   7   2 39.2913 11.8518   1
   7  13   2 65.6248 14.2045   6
 -13   7   2 60.9883 12.0709   6
  -8 -13   2 27.0917 13.9251   6
  13  -8   2 44.1989 12.1263   6
 -13   8   2 25.4223  8.0300   6
   8  13   2 20.8773 11.3176   1
   8  13   2 29.4765 12.8089   6
 -13   8   2 26.2140  8.5285   1
 -13   9   2 295.751  21.956   1
  -9 -13   2 270.867  22.654   6
   9  13   2 230.944  20.164   1
  13  -9   2 246.075  24.453   6
   9  13   2 292.270  26.985   6
  -8  14  -2 5.11639 9.58043   2
  -7  14  -2 142.213  17.793   2
   7 -14   2 97.9576 16.8122   6
  -7  14   2 152.375  15.704   1
  -7  14   2 153.994  15.577   6
  -6  14  -2 495.565  35.996   2
   6 -14   2 475.086  34.761   6
  -6  14   2 474.614  30.168   6
  -6  14   2 452.765  27.704   1
 -14  -6   2 476.061  28.944   6
  -5  14  -2 48.4400 14.7749   2
 -14  -5   2 45.7235 12.7108   6
   5 -14   2 32.4626 17.3049   6
  -5  14   2 32.3098 11.1056   1
  -5  14   2 47.9446 13.2268   6
  -4  14  -2 32.6227 14.7961   2
 -14  -4   2 33.3325 11.4358   6
  -4  14   2 31.8038  8.4335   1
  14   4   2 49.3354 12.4605   6
   4 -14   2 26.8619 14.1147   6
  -4  14   2 34.0628 11.8511   6
  -3  14  -2 24.0710 13.9086   2
   3 -14   2  3.1773 13.8532   3
  14   3   2 17.4210 10.8848   6
  -3  14   2 11.3340 13.7121   6
  -3  14   2 13.6056  9.8132   1
 -14  -3   2 35.6936 12.3007   6
   3 -14   2  2.1316 13.7118   6
  -2  14  -2  8.4456 12.5322   2
  -2  14   2 7.87099 9.99908   1
 -14  -2   2 21.1597  9.7415   6
   2 -14   2 18.3244 14.0144   3
   2 -14   2 14.9963 13.9170   6
  -1  14  -2 180.899  21.832   2
   1 -14   2 193.655  21.320   6
  -1  14   2 150.574  15.562   1
   1 -14   2 137.099  18.611   3
 -14  -1   2 212.677  21.160   6
  14   1   2 204.959  21.217   6
   0  14  -2 645.807  41.900   2
  14   0   2 712.490  43.143   6
   0 -14   2 582.994  44.287   3
   0  14   2 707.328  42.410   6
 -14   0   2 727.589  41.515   6
   0  14   2 647.268  34.276   1
   1  14  -2 129.339  15.803   2
   1  14   2 137.090  14.818   1
 -14   1   2 199.210  17.987   6
  14  -1   2 241.353  21.496   6
  -1 -14   2 128.569  17.866   3
  -1 -14   2 163.819  20.353   6
   1  14   2 167.384  19.601   6
 -14   2   2 12.8085 10.9731   6
   2  14   2 10.6692 13.5985   6
  -2 -14   2  9.6137 14.1227   6
  -2 -14   2  0.1548 12.8884   3
   2  14   2 0.31117 9.68730   1
  14  -2   2 41.3341 11.6467   6
  -3 -14   2  3.5853 13.3250   3
 -14   3   2 22.2680 10.6595   6
  14  -3   2 38.9646 11.4242   6
  -3 -14   2 15.7276 14.6994   6
   3  14   2 25.1478 12.0840   6
   3  14   2 6.81506 7.34014   1
  -4 -14   2 30.6363 14.2441   3
   4  14   2 54.0169 13.3933   6
  -4 -14   2 20.6110 15.0399   6
 -14   4   2 28.9272 11.8476   1
  14  -4   2 52.8342 14.7038   6
   4  14   2 35.6275 11.3344   1
 -14   4   2 28.3147 10.3596   6
 -14   5   2 61.7329 10.9986   6
  -5 -14   2 47.9091 17.8574   6
 -14   5   2 30.4963 11.9118   1
   5  14   2 43.6548 13.2885   6
   5  14   2 46.7602  9.4386   1
  14  -5   2 78.0635 15.1733   6
  -5 -14   2 39.1894 11.5054   3
 -14   6   2 481.500  26.964   6
   6  14   2 497.718  35.668   6
   6  14   2 442.697  28.156   1
  14  -6   2 496.798  32.912   6
 -14   6   2 431.590  28.240   1
  -6 -14   2 462.242  34.980   6
 -14   7   2 119.169  15.678   1
  -7 -14   2 143.728  17.136   6
   7  14   2 138.992  15.759   1
  14  -7   2 167.511  17.959   6
   7  14   2 142.645  18.854   6
   8  14   2  0.9089 11.1672   6
  14  -8   2  3.7193 14.0836   6
  -8 -14   2 -2.7570  9.9209   6
  15   6   2 29.7614 12.4797   6
  -5  15  -2 23.2540 10.4278   2
  -5  15   2 0.03644 9.81278   1
  15   5   2 26.2317 14.7054   6
  -5  15   2 11.6642 10.5695   6
   5 -15   2 11.0019 13.2818   6
  -4  15  -2 35.4266 14.8967   2
   4 -15   2 48.9438 14.8685   6
  15   4   2 60.3938 14.1186   6
  -4  15   2 47.9415 11.8444   6
  -4  15   2 42.0919 11.3041   1
  -3  15  -2 198.258  23.335   2
  -3  15   2 139.725  16.790   6
   3 -15   2 156.660  19.639   6
  15   3   2 271.766  23.131   6
 -15  -3   2 177.085  14.077   6
  -3  15   2 133.252  15.355   1
  -2  15  -2 73.4265 16.5210   2
  -2  15   2 65.5083 14.6394   6
  -2  15   2 39.9439 11.3173   1
   2 -15   2 63.4989 15.9715   6
  15   2   2 73.0869 13.8263   6
  -1  15  -2 44.1221 14.1779   2
  -1  15   2 83.0178 15.2900   6
  15   1   2 83.1846 14.1726   6
  -1  15   2 34.4115 11.5720   1
   1 -15   2 36.7320 15.7268   3
   1 -15   2 59.3188 15.8118   6
   0  15  -2  9.1998 11.3238   2
   0 -15   2 -4.0866 12.9780   3
   0  15   2  6.4067 10.1878   1
   0 -15   2 -12.694  13.552   6
  15   0   2 27.6072 11.4368   6
   1  15   2 32.6726 11.0267   1
  15  -1   2 70.8344 13.2076   6
  -1 -15   2 43.4884 18.6493   6
  -1 -15   2 36.7418 12.2315   3
   2  15   2 38.3058 11.4261   1
  -2 -15   2 28.6009 15.4773   6
  15  -2   2 74.6863 13.4814   6
 -15   2   2 51.5891  8.1802   6
   2  15   2 53.1724 13.0259   6
  -3 -15   2 107.148  19.613   6
   3  15   2 123.851  17.507   6
   3  15   2 112.047  14.652   1
  15  -3   2 162.066  18.639   6
   4  15   2 38.5391 11.5525   1
  -4 -15   2 18.0245 16.1488   6
   4  15   2 59.1235 15.5211   6
  15  -4   2 48.9204 12.5670   6
   5  15   2 17.1952 11.6756   6
  15  -5   2 27.6965 11.8317   6
  -5 -15   2 20.0403 13.8766   6
  -6 -15   2  7.9606 13.2550   6
  15  -6   2 15.2198 11.3503   6
   6  15   2  8.9804 11.0400   6
  -2  16   2 141.077  13.752   6
  -1  16  -2 62.7130 14.9298   2
   1 -16   2 45.3369 17.2465   6
  -1  16   2 126.529  14.592   6
  16   1   2 101.110  16.011   6
   0 -16   2 -29.086  15.382   6
  16   0   2 27.1062 11.5541   6
  16  -1   2 111.804  15.606   6
  -1 -16   2 100.424  18.945   6
  -2 -16   2 158.606  19.579   6
   2  16   2 169.474  17.099   6
  16  -2   2 131.135  16.602   6
   0   0  -3 0.21427 2.11001   2
   0   1  -3 -0.0515  1.6015   2
   0  -1  -3 0.90411 2.24632   2
   1   0  -3 0.50561 2.05380   2
  -1   0  -3 1.04231 2.23524   2
  -1   0   3 0.45775 0.43760   4
  -1   0   3 0.39196 0.87070   1
  -1  -1  -3 0.00448 2.26186   2
  -1   1  -3 0.53985 2.33710   2
   1   1  -3 0.76414 2.08493   2
   1  -1  -3 -0.7719  2.1213   2
  -1  -1   3 1.35924 0.63955   4
  -1  -1   3 -0.3479  0.8914   1
  -1   1   3 -0.0456  0.6829   4
  -1   1   3 -0.2656  0.9562   1
  -1  -1   3 0.48412 0.66356   4
  -2  -1  -3 2797.32  126.64   2
  -1   2  -3 2868.13  127.12   2
   2   1  -3 2851.29  126.42   2
  -2  -1   3 2776.91  110.00   1
   2   1   3 2955.44  101.02   4
  -2  -1   3 2845.96  100.98   4
  -1   2   3 2762.14  109.95   1
  -2  -1   3 2854.99  101.02   4
   1  -2   3 2989.55  101.37   4
   1  -2   3 3032.17  133.53   3
  -1   2   3 2803.03  100.91   4
   1  -2   3 2743.07  101.05   4
   0   2  -3 13.1569  2.6781   2
   0  -2  -3 8.03583 3.06241   2
  -2   0  -3 13.4033  3.0960   2
   2   0  -3 10.1610  2.6528   2
   2   0   3 13.7757  1.8026   3
   0   2   3 11.8098  1.2417   4
  -2   0   3 7.69084 1.49501   4
   0  -2   3 10.8306  1.0420   4
  -2   0   3 12.3555  1.7177   1
   0   2   3 12.2911  1.6441   1
   0  -2   3 9.79962 1.00359   4
  -1  -2  -3 2761.91  127.84   2
   1   2  -3 2910.25  128.03   2
  -2   1  -3 2894.79  128.28   2
   2  -1  -3 3326.46  128.13   2
  -1  -2   3 2910.87  101.90   4
  -2   1   3 2593.60  111.08   1
   2  -1   3 2961.98  102.13   4
  -2   1   3 2720.39  102.03   4
   2  -1   3 2861.83  102.10   4
   1   2   3 2899.78  101.71   4
  -1  -2   3 2784.41  101.85   4
   2  -1   3 3009.80  134.19   3
  -2   2  -3 1.15014 2.72589   2
   2   2  -3 0.06073 1.40436   2
  -2  -2  -3 2.02449 2.47004   2
  -2   2   3 -0.2456  1.5752   1
   2   2   3 0.24192 0.83244   4
  -2  -2   3 1.48223 1.52087   4
   2  -2   3 -0.4950  0.8856   4
   2  -2   3 -0.2392  1.7192   3
  -2   2   3 1.69155 1.40924   4
   2  -2   3 0.75655 1.07756   4
  -2  -2   3 2.49096 1.25895   4
  -3  -2  -3 141.130   8.826   2
   3   2  -3 141.161   5.392   4
  -2   3  -3 137.570   9.328   2
   3   2  -3 141.710   6.801   1
   3   2  -3 129.910   5.398   4
   3   2  -3 145.181   8.349   2
   2  -3   3 147.642   6.146   4
   2  -3   3 144.886   6.367   4
  -3  -2   3 151.483   6.611   4
  -3  -2   3 139.822   6.685   4
  -2   3   3 144.030   7.426   1
  -2   3   3 145.629   6.653   4
   3   2   3 151.943   6.110   4
   2  -3   3 146.462   9.876   3
   3   1  -3 17.4739  2.9256   2
  -3  -1  -3 25.2620  3.6884   2
  -1   3  -3 21.0355  3.5261   2
  -1   3   3 22.1960  2.5202   1
  -3  -1   3 20.8182  2.2301   4
   1  -3   3 18.5941  1.9709   4
  -1   3   3 20.2686  2.1180   4
   1  -3   3 27.6428  4.5599   3
   3   1   3 22.6992  1.6729   4
  -3  -1   3 23.8595  3.0596   1
   1  -3   3 21.4310  1.7633   4
   3   0  -3 -0.9262  2.1692   2
  -3   0  -3 -0.7238  2.4153   2
   0   3  -3 -0.3844  2.4858   2
   0  -3   3 8.02061 1.53533   4
  -3   0   3 0.86572 1.57508   4
   0  -3   3 1.97749 1.06139   4
   0   3   3 1.21855 1.34941   4
   3   0   3 -0.9856  0.9146   4
  -3   0   3 0.23106 1.74611   1
   3   0   3 0.16474 1.01981   3
   0   3   3 0.99245 1.54045   1
  -3   1  -3 23.7749  3.9811   2
   1   3  -3 23.8916  3.3812   2
   3  -1   3 21.6256  2.7395   3
  -3   1   3 25.2596  2.9134   1
  -1  -3   3 18.0787  1.8813   4
   1   3   3 24.4479  2.0213   4
  -1  -3   3 21.8385  2.2398   4
  -3   1   3 23.6021  2.1969   4
   3  -1   3 20.3589  1.6546   4
   1   3   3 23.3473  2.0529   4
   2   3  -3 140.159   8.714   2
  -3   2  -3 134.643   9.110   2
   2   3  -3 134.038   6.384   1
  -3   2   3 139.409   7.451   1
  -2  -3   3 138.420   6.579   4
   2   3   3 146.455   6.326   4
   3  -2   3 142.832   8.987   3
  -3   2   3 146.261   6.576   4
  -2  -3   3 154.647   6.440   4
   2   3   3 138.986   6.150   4
   3  -2   3 141.513   6.106   4
   3   3  -3 -0.1722  1.9358   1
   3   3  -3 0.70641 1.10891   4
   3   3  -3 1.08739 2.04146   2
  -3   3  -3 -2.1595  3.0851   2
  -3  -3  -3 1.52250 2.94351   2
   3  -3  -3 1.06378 1.37240   4
   3   3  -3 1.08160 1.27868   4
  -3  -3   3 1.14464 1.81866   4
   3  -3   3 0.30733 1.74160   4
  -3   3   3 -0.0085  1.5155   4
  -3  -3   3 2.13784 2.26062   4
  -3   3   3 -0.0134  2.2887   1
   3  -3   3 1.82290 3.52792   3
   3   3   3 -1.3543  1.4369   4
   3   3   3 -1.4385  1.8535   4
  -4  -3  -3 188.960  10.274   2
  -3   4  -3 167.448  11.545   2
   4   3  -3 158.504   9.170   2
   4   3  -3 159.315   7.040   4
   4   3  -3 161.633   8.707   1
   4   3   3 164.409   7.833   4
  -3   4   3 161.935   7.816   4
   4   3   3 167.698   7.547   4
  -3   4   3 175.920   9.290   1
   3  -4   3 171.424  11.286   3
  -4  -3   3 164.245   7.616   4
  -4  -3   3 153.848   7.656   4
   3  -4   3 159.331   7.803   4
  -2   4  -3 52.9724  3.2546   1
  -2   4  -3 61.7947  7.0328   2
   4   2  -3 51.6642  3.4423   4
  -4  -2  -3 52.8387  4.7097   2
   4   2  -3 57.2053  4.5145   2
   2  -4   3 56.9986  3.7939   4
  -2   4   3 55.7376  4.0378   4
   2  -4   3 56.3305  4.1913   4
  -2   4   3 59.9075  4.7892   1
   2  -4   3 65.9521  7.1524   3
   4   2   3 60.2536  3.7321   4
  -4  -2   3 62.2440  4.3730   4
   4   1  -3 3720.82  138.21   4
  -4  -1  -3 3987.99  173.18   2
   4   1  -3 3975.58  172.61   2
  -1   4  -3 3903.47  174.34   2
  -4  -1   3 3757.80  151.35   1
  -1   4   3 3986.37  138.87   4
   4   1   3 3908.63  138.55   4
   1  -4   3 4093.20  183.62   3
  -4  -1   3 3899.96  139.02   4
  -1   4   3 3908.60  151.27   1
   1  -4   3 3998.76  138.84   4
   1  -4   3 3887.28  138.69   4
  -4   0  -3 194.719  11.191   2
   0   4  -3 190.380   8.605   1
   0   4  -3 192.930  12.026   2
   4   0   3 193.857   8.044   4
   0   4   3 198.940   8.483   4
  -4   0   3 201.575   8.817   4
   0   4   3 208.783   8.545   4
  -4   0   3 192.705   9.787   1
   0  -4   3 197.583   8.550   4
   0   4   3 189.234   9.369   1
   0  -4   3 196.438   8.135   4
   0  -4   3 208.601  12.547   3
  -4   1  -3 3969.35  168.71   2
   4  -1  -3 3747.06  134.26   4
   1   4  -3 3754.47  168.57   2
   4  -1  -3 3549.40  134.12   4
  -1  -4   3 3908.17  134.82   4
   1   4   3 3744.34  134.69   4
  -4   1   3 3758.33  147.03   1
   1   4   3 3775.91  146.81   1
   1   4   3 3912.18  134.70   4
   4  -1   3 3968.93  134.53   4
  -4   1   3 3725.14  135.05   4
  -1  -4   3 3814.04  134.68   4
  -4   2  -3 53.1986  6.1756   2
   2   4  -3 56.0437  2.9913   4
   2   4  -3 57.8368  2.9963   4
   2   4  -3 60.3293  4.1374   1
   2   4  -3 62.2855  5.8681   2
   4  -2  -3 60.8162  3.8298   4
  -2  -4   3 55.5814  4.0876   4
   2   4   3 51.2738  3.8498   4
   4  -2   3 57.4317  5.7356   3
   2   4   3 60.6758  3.9585   4
  -4   2   3 62.5105  5.1256   1
  -2  -4   3 55.5297  4.0271   4
   4  -2   3 54.8110  3.8122   4
  -4   2   3 54.3590  4.3109   4
   3   4  -3 173.265   9.852   2
  -4   3  -3 167.235  11.590   2
   4  -3  -3 164.409   7.493   4
   3   4  -3 148.782   7.963   1
  -3  -4   3 165.732   7.499   4
  -4   3   3 181.469   9.374   1
   3   4   3 167.662   7.328   4
   3   4   3 157.842   7.770   4
  -4   3   3 152.929   7.793   4
  -3  -4   3 160.978   8.017   4
   4  -3   3 177.662   7.754   4
   4  -3   3 136.573  10.871   3
   4   4  -3 -0.8677  1.9637   2
   4   4  -3 -0.1071  1.6162   4
   4   4  -3 -1.9097  1.5920   4
  -4   4  -3 -0.0302  1.8421   1
   4   4  -3 1.42425 2.60244   1
  -4   4  -3 -4.3983  4.1849   2
   4  -4  -3 -0.5234  2.0181   4
   4   4   3 -0.2603  2.0334   4
  -4  -4   3 1.62249 2.83117   4
  -4   4   3 -0.1243  3.2315   1
   4   4   3 -2.8663  2.4170   4
   4  -4   3 1.70265 2.42469   4
  -4  -4   3 -1.4198  2.2596   4
  -4   4   3 3.60154 2.90400   4
   4  -4   3 4.34954 4.76225   3
  -4   5  -3 1204.08   56.08   2
   5   4  -3 1087.20   51.11   2
   5   4  -3 1099.17   45.81   1
   5   4   3 1113.97   41.82   4
  -4   5   3 1151.76   46.31   1
   4  -5   3 1152.65   42.11   4
  -5  -4   3 1116.98   41.98   4
  -4   5   3 1148.64   42.47   4
   4  -5   3 1104.04   56.53   3
   5   4   3 1173.69   42.06   4
   5   3  -3 180.736   8.319   4
  -3   5  -3 185.601   6.755   4
   5   3  -3 176.470   8.082   4
  -5  -3  -3 205.991  11.059   2
   3  -5  -3 186.355   8.495   4
  -3   5  -3 170.814   8.831   1
  -3   5  -3 213.614  14.813   2
   5   3  -3 169.596   9.689   2
   5   3   3 188.917   8.487   4
  -3   5   3 170.075   8.605   4
  -5  -3   3 186.283   8.591   4
   3  -5   3 188.771   8.902   4
  -3   5   3 167.522  10.245   1
   3  -5   3 172.936  13.611   3
   5   2  -3 620.857  23.326   4
   5   2  -3 698.246  28.933   2
  -2   5  -3 654.732  32.528   2
  -5  -2  -3 574.640  29.297   2
   5   2  -3 582.138  23.055   4
  -2   5   3 617.157  23.774   4
   5   2   3 594.412  23.309   4
  -2   5   3 601.484  26.067   1
  -5  -2   3 637.521  23.875   4
   2  -5   3 643.945  32.517   3
   2  -5   3 588.166  23.595   4
   2  -5   3 622.920  23.443   4
  -1   5  -3 77.0081  4.9466   1
   5   1  -3 69.3383  4.4292   4
  -1   5  -3 64.7551  2.8227   4
   5   1  -3 70.1460  4.7734   4
  -1   5  -3 68.3496  2.8227   4
  -5  -1  -3 64.5778  5.8767   2
  -1   5  -3 71.8574  8.0257   2
   1  -5   3 63.0954  8.0030   3
  -1   5   3 62.9978  4.7689   4
  -5  -1   3 63.8876  4.7298   4
  -1   5   3 72.4626  5.5808   1
   5   1   3 68.8508  3.9767   4
   1  -5   3 71.0070  4.1258   4
   1  -5   3 66.1160  4.9795   4
  -5  -1   3 75.4837  5.8809   1
  -1   5   3 78.0996  5.1140   4
   0   5  -3 0.13502 1.80747   1
   5   0  -3 -1.7251  1.8086   4
   0   5  -3 -0.7412  3.3437   2
  -5   0  -3 -1.4058  1.8452   2
   5   0  -3 4.14612 1.94955   4
   0   5  -3 -0.0528  1.1288   4
   0   5  -3 -0.6570  0.9389   4
   0  -5   3 0.83151 5.01186   3
   0   5   3 3.24709 2.63285   1
  -5   0   3 1.44150 1.76522   4
   0   5   3 2.32241 2.28252   4
   5   0   3 2.16286 1.77394   4
   0  -5   3 -1.6273  2.4095   4
  -5   0   3 0.88459 2.88285   1
   0   5   3 2.39224 1.53329   4
   0  -5   3 -0.0120  1.8016   4
   1   5  -3 67.4986  3.5296   4
   1   5  -3 64.7477  4.3854   1
   1   5  -3 66.7605  6.5958   2
   5  -1  -3 70.4707  4.4504   4
  -5   1  -3 61.6792  6.4880   2
   5  -1  -3 65.2922  4.3019   4
  -5   1   3 64.9987  4.5766   4
  -5   1   3 73.5413  5.9327   1
  -1  -5   3 61.7620  4.4474   4
  -1  -5   3 61.3087  4.6460   4
   1   5   3 63.7136  4.5405   4
   1   5   3 71.8427  5.8248   1
   5  -1   3 61.8103  4.2813   4
  -1  -5   3 69.2231  8.1896   3
   1   5   3 69.0714  4.6208   4
   2   5  -3 592.578  24.635   1
  -5   2  -3 599.834  29.904   2
   2   5  -3 577.137  29.194   2
   5  -2  -3 593.637  22.634   4
   2   5   3 584.769  22.889   4
  -5   2   3 611.725  25.728   1
   2   5   3 611.160  22.874   4
  -2  -5   3 575.017  22.690   4
   5  -2   3 601.697  22.778   4
  -2  -5   3 616.215  23.142   4
  -5   2   3 619.505  23.309   4
   2   5   3 599.967  25.435   1
   5  -3  -3 169.277   8.254   4
   3   5  -3 168.783   7.606   4
  -5   3  -3 176.581  11.881   2
   3   5  -3 181.796  10.832   2
   3   5  -3 182.251   7.838   4
   3   5  -3 177.393   8.961   1
  -5   3   3 180.886   9.283   4
  -5   3   3 185.031  10.508   1
   5  -3   3 164.047   8.389   4
   3   5   3 181.703   8.793   4
  -3  -5   3 166.124   8.828   4
  -3  -5   3 177.794   8.526   4
   3   5   3 188.587   8.472   4
   4   5  -3 1123.87   51.42   2
   4   5  -3 1129.47   45.27   1
  -5   4  -3 1141.54   44.60   1
  -5   4  -3 1108.08   54.27   2
  -5   4   3 1164.53   46.19   1
  -5   4   3 1171.58   42.21   4
   5  -4   3 1042.99   55.26   3
   4   5   3 1134.23   41.55   4
   4   5   3 1166.47   41.59   4
   5  -4   3 1101.42   41.65   4
  -4  -5   3 1089.79   41.58   4
  -4  -5   3 1089.06   41.74   4
   5   5  -3 3.18941 4.34765   1
   5   5  -3 2.58225 2.24852   4
   5   5  -3 0.37203 1.86758   2
  -5   5  -3 0.22203 2.36967   1
  -5   5  -3 0.70738 4.11967   2
  -5   5   3 0.28281 4.27112   1
   5   5   3 3.08324 2.28583   4
  -5  -5   3 -2.4291  2.5822   4
   5  -5   3 -7.2738  4.9090   3
  -5   5   3 2.98448 3.25971   4
   6   5  -3 259.493  13.994   1
  -5   6  -3 248.240  19.844   2
   5  -6   3 248.523  18.277   3
  -6  -5   3 255.646  11.805   4
  -5   6   3 255.089  12.761   4
   6   5   3 238.535  12.271   4
  -5   6   3 276.507  14.719   1
  -4   6  -3 16.0821  7.5955   2
  -4   6  -3 10.9677  2.9514   1
  -4   6  -3 5.79300 1.69043   4
   6   4  -3 13.0058  2.8865   4
  -6  -4   3 14.3099  3.3980   4
  -4   6   3 12.9584  4.7928   1
   6   4   3 17.3558  3.0000   4
  -4   6   3 24.5272  4.0929   4
   4  -6   3 14.8410  7.0037   3
  -3   6  -3 28.2752  3.5697   1
  -3   6  -3 31.2108  6.8851   2
   6   3  -3 36.8454  3.6342   4
   6   3   3 29.4005  3.5896   4
   3  -6   3 34.3857  7.6214   3
  -3   6   3 47.2413  5.4781   1
   3  -6   3 34.1532  4.0761   4
  -6  -3   3 30.2080  3.9044   4
  -3   6   3 33.4963  3.6560   4
  -2   6  -3 76.3737 10.3446   2
  -6  -2  -3 72.2583  6.3242   2
  -2   6  -3 79.0650  6.2029   1
   6   2  -3 71.4175  5.3311   4
   2  -6   3 83.7887  5.5437   4
   6   2   3 88.0157  5.3647   4
   2  -6   3 74.3361  5.4944   4
  -6  -2   3 75.0673  5.5585   4
  -2   6   3 73.9553  5.1835   4
   2  -6   3 93.3789 10.0368   3
  -2   6   3 88.3491  6.3590   1
  -2   6   3 75.8433  5.1116   4
   6   1  -3 546.663  22.034   4
  -1   6  -3 624.493  31.517   2
   6   1  -3 570.680  22.315   4
  -6  -1  -3 587.360  27.991   2
  -1   6  -3 586.782  21.539   4
   6   1   3 584.336  22.280   4
   1  -6   3 572.022  22.652   4
  -1   6   3 574.305  22.404   4
   1  -6   3 615.745  31.456   3
  -6  -1   3 587.430  22.697   4
  -6  -1   3 583.139  25.365   1
   1  -6   3 566.968  22.396   4
  -1   6   3 590.354  25.037   1
  -1   6   3 541.322  22.497   4
   0   6  -3 168.542   8.916   1
   0   6  -3 160.190  12.602   2
  -6   0  -3 161.130  10.494   2
   6   0  -3 166.745   8.143   4
   6   0  -3 150.858   7.966   4
   0   6   3 159.299   9.716   1
   0   6   3 163.847   8.458   4
  -6   0   3 181.254  10.489   1
   0  -6   3 180.611  13.902   3
   0  -6   3 171.135   8.682   4
   0  -6   3 168.325   7.892   4
   0   6   3 177.643   8.454   4
  -6   0   3 178.315   8.917   4
   6   0   3 171.025   8.048   4
   6  -1  -3 554.519  22.112   4
  -6   1  -3 576.036  28.734   2
   1   6  -3 581.428  29.577   2
   6  -1  -3 579.107  22.350   4
   1   6  -3 579.366  24.039   1
   1   6   3 587.540  22.403   4
  -1  -6   3 623.395  31.876   3
  -6   1   3 602.234  25.414   1
  -1  -6   3 553.926  22.208   4
  -6   1   3 586.642  22.954   4
   6  -1   3 560.297  22.208   4
   1   6   3 580.178  22.365   4
  -1  -6   3 556.745  22.623   4
   1   6   3 591.890  24.999   1
   2   6  -3 79.7812  4.6126   4
   2   6  -3 79.2197  7.7524   2
  -6   2  -3 84.1544  8.2758   2
   2   6   3 72.4665  4.9153   4
  -2  -6   3 90.3548  9.6899   3
   2   6   3 82.2662  6.7864   1
  -2  -6   3 80.8938  5.5326   4
   2   6   3 87.0854  6.0644   4
  -2  -6   3 77.5121  5.4033   4
  -6   2   3 83.0590  5.6028   4
  -6   2   3 95.0537  7.3780   1
   6  -2   3 74.3737  5.4146   4
   3   6  -3 32.4393  3.0223   4
   3   6  -3 29.5835  5.3085   2
  -6   3  -3 35.7419  6.5408   2
   3   6  -3 35.0639  4.1701   1
  -3  -6   3 30.1638  3.2356   4
  -6   3   3 43.3271  5.6125   1
  -3  -6   3 36.4695  7.5836   3
   3   6   3 29.5501  3.9724   4
   6  -3   3 34.9345  3.3956   4
  -6   3   3 34.7657  3.9021   4
   3   6   3 37.4406  5.4562   1
  -3  -6   3 29.8056  4.2657   4
   3   6   3 35.5927  3.8363   4
  -6   4  -3 22.7563  6.7651   2
   4   6  -3 14.9657  2.6010   4
   4   6  -3 10.4095  4.3975   1
   4   6  -3 10.4950  3.3681   2
  -6   4   3 19.5970  4.0846   4
  -4  -6   3 15.9264  2.6728   4
   4   6   3 13.9447  3.6864   4
  -6   4   3 16.6066  4.9896   1
   5   6  -3 258.981  13.721   1
  -6   5  -3 261.408  19.048   2
  -5  -6   3 245.885  12.192   4
  -6   5   3 259.479  13.008   4
   5   6   3 276.382  12.683   4
  -6   5   3 261.092  14.882   1
  -6   6  -3 8.74007 7.72717   2
   6   6  -3 1.73983 4.44389   1
  -6   6   3 -2.4126  5.1342   1
   6   6   3 1.85119 3.83382   4
  -6   7  -3 344.950  26.781   2
   7   6  -3 382.392  19.720   1
   7   6   3 355.914  17.699   4
  -6   7   3 419.963  26.162   6
  -7  -6   3 385.081  26.651   6
  -6   7   3 403.857  20.456   1
  -5   7  -3 195.347  17.772   2
  -5   7   3 246.006  13.176   1
   5  -7   3 216.778  18.152   3
  -7  -5   3 221.434  18.550   6
   7   5   3 206.225  11.568   4
  -4   7  -3 1559.56   83.00   2
   4  -7   3 1652.46   84.00   3
  -4   7   3 1740.40   62.96   4
  -4   7   3 1763.58   69.10   1
   7   4   3 1768.07   62.74   4
  -7  -4   3 1682.50   62.60   4
  -3   7  -3 236.853  19.862   2
  -3   7   3 238.685  11.422   4
   3  -7   3 228.264  18.334   3
  -7  -3   3 251.854  11.439   4
  -3   7   3 236.245  13.652   1
  -2   7  -3 1232.44   60.62   2
  -2   7  -3 1181.25   48.04   1
   7   2  -3 1202.69   44.14   4
   2  -7   3 1206.57   60.49   3
   2  -7   3 1171.76   44.43   4
  -2   7   3 1197.87   44.70   4
  -2   7   3 1201.64   49.06   1
  -7  -2   3 1176.92   44.66   4
  -7  -1  -3 32.3556  4.8264   2
  -1   7  -3 34.1518  8.1133   2
   7   1  -3 30.3084  3.8088   4
  -1   7  -3 29.9845  4.0594   1
  -7  -1   3 28.4047  5.5522   1
   1  -7   3 29.7716  3.7464   4
   1  -7   3 36.0206  8.1665   3
  -1   7   3 29.7100  5.0925   1
  -1   7   3 31.0030  4.0614   4
  -7  -1   3 25.8521  3.5051   4
   7   0  -3 -1.0586  2.8538   4
   0   7  -3 4.47931 3.01497   1
  -7   0  -3 -1.1870  2.9104   2
   0   7  -3 -1.0737  5.3364   2
   0   7  -3 0.31301 1.77469   4
   0  -7   3 5.85568 6.78256   3
   0   7   3 0.29025 2.07411   4
  -7   0   3 6.29290 4.41701   1
   0  -7   3 2.93107 1.84331   4
   0   7   3 3.34757 3.83943   1
  -7   0   3 -1.4393  2.1696   4
   7  -1  -3 29.7828  3.4146   4
   1   7  -3 28.0803  3.2908   4
   1   7  -3 38.0438  4.8029   1
   1   7  -3 27.8990  5.6254   2
  -7   1  -3 32.3935  5.3141   2
  -1  -7   3 34.6511  3.8206   4
   1   7   3 37.9875  5.2670   1
   1   7   3 32.5633  4.1547   4
  -7   1   3 22.5308  4.2207   4
  -1  -7   3 25.1104  6.1350   3
  -7   1   3 30.2737  5.5339   1
   2   7  -3 1174.27   44.06   4
   2   7  -3 1223.52   57.17   2
   2   7  -3 1183.44   48.53   1
  -7   2  -3 1250.16   57.00   2
  -2  -7   3 1211.30   44.91   4
  -7   2   3 1256.59   49.98   1
   2   7   3 1154.85   44.76   4
   2   7   3 1217.96   49.56   1
  -7   2   3 1150.52   45.17   4
  -2  -7   3 1267.11   61.32   3
   3   7  -3 244.490  12.540   1
  -7   3  -3 252.409  16.255   2
   3   7  -3 252.061  14.861   2
  -7   3   3 262.271  14.320   1
   3   7   3 229.965  13.746   1
  -3  -7   3 235.795  17.953   3
  -3  -7   3 233.338  11.423   4
   3   7   3 229.907  11.740   4
  -7   3   3 242.189  12.218   4
  -7   4  -3 1774.55   81.87   2
   4   7  -3 1688.41   69.36   1
  -7   4   3 1818.07   70.74   1
  -4  -7   3 1862.50   86.02   3
  -7   4   3 1788.62   64.41   4
   4   7   3 1775.83   70.57   1
  -4  -7   3 1691.19   63.74   4
   4   7   3 1677.83   63.86   4
  -7   4   3 1593.19   90.99   6
  -7   5  -3 208.033  17.211   2
   5   7  -3 222.236  12.723   1
   5   7   3 197.921  10.639   4
  -7   5   3 227.732  14.136   1
  -7   5   3 207.534  17.374   6
  -5  -7   3 208.417  17.449   3
   6   7  -3 388.091  19.504   1
  -7   6  -3 353.620  25.726   2
  -7   6   3 409.313  26.281   6
  -7   6   3 381.728  20.445   1
   7   7  -3 -10.719   5.449   1
  -7   7  -3 -5.3600  8.3452   2
  -7   7   3 4.53968 6.48394   1
  -7  -7   3  6.2149 10.3715   6
  -7   7   3 3.84100 8.73524   6
   8   7  -3 103.517  10.510   1
  -7   8  -3 118.231  15.244   2
  -7   8   3 129.538  14.708   6
  -7   8   3 107.089   9.895   1
  -8  -7   3 89.9664 14.4839   6
  -6   8  -3 59.6158 13.3585   2
   8   6  -3 58.3449  8.4952   1
  -6   8   3 62.9298  8.8620   1
  -6   8   3 70.2223 11.5849   6
  -8  -6   3 60.6334 10.0398   6
  -5   8  -3 65.8373 13.6454   2
  -5   8   3 71.8522 11.2636   6
  -5   8   3 67.3930  8.4758   1
  -8  -5   3 80.2849 12.0198   6
   5  -8   3 62.6621 10.0009   3
  -4   8  -3 45.7503 10.2599   2
  -8  -4   3 93.7896 11.5940   6
   4  -8   3 81.7269 11.8637   3
   8   4   3 61.4575  6.2603   4
  -4   8   3 67.6282  8.1820   1
  -3   8  -3 18.1824  5.0840   1
  -3   8  -3 4.28502 6.23936   2
  -3   8   3 15.5955  5.4787   1
   3  -8   3 11.5500  8.2961   3
  -8  -3   3 12.2397  8.1320   6
   8   3   3 9.60173 4.10278   4
  -2   8  -3 -1.7605  5.3218   2
  -2   8  -3 3.55502 4.37391   1
  -2   8  -3 -1.4125  1.9827   4
  -8  -2   3 -3.5261  3.3953   4
  -2   8   3 -2.9488  4.6895   1
   2  -8   3 -5.4135  7.2896   3
   2  -8   3 -2.6212  2.8765   4
  -8  -2   3 -5.5065  7.0026   6
  -2   8   3 4.98423 3.59879   4
  -8  -1  -3 330.903  17.866   2
  -1   8  -3 326.981  14.169   4
  -1   8  -3 348.368  16.742   1
  -1   8  -3 343.214  24.463   2
  -8  -1   3 362.861  18.421   1
  -8  -1   3 338.313  15.776   4
  -1   8   3 349.260  15.590   4
   1  -8   3 349.411  23.636   3
  -8  -1   3 369.441  23.034   6
   1  -8   3 344.992  15.042   4
  -1   8   3 369.169  17.797   1
   0   8  -3 57.0865  5.5267   1
   0   8  -3 63.1615 10.2834   2
  -8   0  -3 49.3322  5.8499   2
  -8   0   3 52.4686  8.9078   6
   0   8   3 43.1976  4.9625   4
  -8   0   3 55.1922  7.1807   1
   0  -8   3 51.7897  4.8961   4
   0   8   3 50.0704  6.5647   1
   0  -8   3 60.5659  8.9147   3
  -8   0   3 44.0612  4.6792   4
   1   8  -3 347.679  16.548   1
  -8   1  -3 331.206  19.529   2
   1   8  -3 392.097  22.476   2
  -8   1   3 356.930  22.899   6
  -1  -8   3 380.845  23.768   3
   1   8   3 333.657  15.575   4
  -1  -8   3 336.210  15.348   4
  -8   1   3 381.488  18.695   1
   1   8   3 345.675  17.773   1
  -8   1   3 343.349  15.627   4
   2   8  -3 -2.0721  3.2103   2
  -8   2  -3 0.11622 4.33696   2
   2   8  -3 -2.6466  4.2856   1
  -8   2   3 1.56088 3.63409   1
   2   8   3 -2.4919  2.3774   4
   2   8   3 5.35775 4.84249   1
  -8   2   3 -1.3031  6.7168   6
  -8   2   3 -0.3335  2.5294   4
  -2  -8   3 4.88242 3.04071   4
  -2  -8   3 6.62472 7.16526   3
   3   8  -3 5.70309 4.49230   2
   3   8  -3 5.67679 4.20892   1
  -8   3  -3 7.73294 4.13160   2
  -8   3   3 11.2976  7.6628   6
  -8   3   3 10.0167  5.5985   1
   3   8   3 5.94890 2.92121   4
   3   8   3 12.4934  5.5058   1
  -3  -8   3 11.5502  3.4500   4
  -3  -8   3 20.6206  8.2428   3
   4   8  -3 72.0879  7.6220   2
  -8   4  -3 69.2301  9.6985   2
   4   8  -3 62.0155  6.9203   1
   4   8   3 82.9888  6.8211   4
   4   8   3 76.1204  8.6270   1
  -4  -8   3 73.8032  9.6865   3
  -8   4   3 91.0732 11.5823   6
  -8   4   3 66.4182  8.4027   1
   5   8  -3 87.4120  9.0451   1
  -8   5  -3 70.7959 10.8707   2
  -8   5   3 78.0555 11.8027   6
   5   8   3 82.0335  8.4299   1
  -5  -8   3 73.6897 11.5720   3
  -8   5   3 76.3167  9.1510   1
  -8   6  -3 56.3348 11.2771   2
   6   8  -3 58.6376  7.6904   1
  -8   6   3 59.9294  8.8807   1
   6   8   3 60.8746  9.2844   1
  -8   6   3 72.3137 11.9958   6
  -6  -8   3 66.9567 12.6798   6
  -6  -8   3 71.4960 11.5894   3
  -8   7  -3 98.4522 14.4597   2
   7   8  -3 118.934  10.408   1
  -7  -8   3 92.9778 14.6029   6
  -7  -8   3 109.122  12.914   3
  -8   7   3 103.029  11.172   1
  -8   7   3 115.842  14.222   6
   8   8  -3 -0.9623  6.8639   1
  -8   8  -3 -8.2919  9.8562   2
  -8  -8   3 -0.5697  9.2347   3
  -8   8   3 2.51971 9.71687   6
  -8   8   3 3.52576 5.24311   1
  -8  -8   3 -2.3958 11.0982   6
   9   8  -3 66.1471 10.0312   1
  -8   9  -3 60.2598 12.1760   2
  -9  -8   3 59.3721 14.0065   6
  -8   9   3 66.9157 10.6126   1
  -9  -8   3 77.5321 13.6093   3
  -8   9   3 78.0471 13.5350   6
  -7   9  -3 98.4812 14.6538   2
   9   7  -3 86.2709 10.5866   1
  -9  -7   3 108.625  15.341   6
  -7   9   3 120.463  14.556   6
  -7   9   3 79.8482 10.7153   1
   9   6  -3 29.1430  8.0305   1
  -6   9  -3 28.8254  9.8683   2
  -6   9   3 9.11923 7.26637   1
  -9  -6   3 20.1996 11.3113   6
  -6   9   3 36.8134 10.7045   6
  -5   9  -3 190.120  21.368   2
  -9  -5   3 172.752  17.237   6
  -5   9   3 181.736  14.022   1
  -5   9   3 162.668  17.524   6
   5  -9   3 161.180  17.491   3
  -4   9  -3 369.299  29.749   2
  -4   9   3 462.084  23.512   1
   4  -9   3 455.606  30.577   3
  -4   9   3 498.528  29.860   6
  -9  -4   3 480.952  30.230   6
  -3   9  -3 22.2083 10.9034   2
  -3   9   3 77.8006  7.6574   1
  -9  -3   3 88.3532 11.9555   6
   3  -9   3 64.4990 11.9824   3
  -2   9  -3 379.583  30.917   2
  -2   9  -3 537.346  23.309   1
  -2   9   3 548.498  25.006   1
  -9  -2   3 547.766  31.029   6
   2  -9   3 525.986  31.319   3
  -1   9  -3 9.55993 5.25171   1
  -1   9  -3 3.16516 8.39302   2
  -9  -1   3 10.3566  8.2857   6
  -1   9   3 10.1783  5.6306   1
   1  -9   3 3.27702 8.54229   3
   0   9  -3 1.88371 5.50595   2
   0   9  -3 0.31177 3.97305   1
   0  -9   3 -5.0796  5.3318   3
   0   9   3 0.76746 5.08457   1
  -9   0   3 -5.2158  7.4584   6
  -9   0   3 1.28004 5.85835   1
  -9   1  -3 11.5881  4.3677   2
   1   9  -3 4.19725 4.97897   2
   1   9  -3 -4.7145  4.1733   1
  -9   1   3 3.63551 4.10941   1
   1   9   3 11.1707  5.6210   1
  -1  -9   3 -8.0926  7.7515   3
  -9   1   3 9.09046 7.97450   6
   2   9  -3 539.454  24.536   1
   2   9  -3 568.008  30.591   2
  -9   2  -3 520.123  28.453   2
  -2  -9   3 554.848  33.231   3
   2   9   3 535.228  25.795   1
  -9   2   3 554.728  26.535   1
  -9   2   3 549.341  33.151   6
   3   9  -3 66.6931  7.0816   1
  -9   3  -3 56.0891  8.4890   2
   3   9  -3 65.4919  8.5597   2
  -9   3   3 65.7883  7.6899   1
  -3  -9   3 78.4755 10.6182   3
   3   9   3 77.3571  8.6244   1
  -9   3   3 78.3034 11.7280   6
   4   9  -3 478.228  22.257   1
  -9   4  -3 475.011  27.199   2
   4   9  -3 432.043  24.898   2
  -9   4   3 494.766  30.508   6
   4   9   3 452.623  23.607   1
  -4  -9   3 457.952  29.793   3
  -9   4   3 450.672  23.788   1
  -9   5  -3 186.838  16.907   2
  -5  -9   3 190.570  18.356   6
  -5  -9   3 196.380  18.891   3
   5   9   3 177.271  14.438   1
  -9   5   3 186.160  14.796   1
  -9   5   3 193.021  18.812   6
   6   9  -3 31.0504  7.0827   1
  -9   6  -3 32.1063  8.2755   2
  -9   6   3 34.8941 11.1606   6
  -9   6   3 24.7111  8.0221   1
  -6  -9   3 31.0000 10.6680   3
   6   9   3 42.4214  9.0039   1
  -6  -9   3 35.4710 12.4274   6
   7   9  -3 82.9385  9.6648   1
  -9   7  -3 107.660  14.945   2
  -9   7   3 129.451  13.345   6
  -9   7   3 88.7538 11.1517   1
   7   9   3 103.624  10.688   1
  -7  -9   3 111.221  16.251   6
  -7  -9   3 106.810  14.545   3
  -9   8  -3 95.6272 15.4228   2
  -9   8   3 51.5263 10.2525   1
  -8  -9   3 72.5169 14.6819   6
   8   9   3 73.9189 10.1314   1
  -9   8   3 89.5492 13.8250   6
  -8  -9   3 68.4965 13.4149   3
   9   9  -3 -3.8930  7.3084   1
  -9   9  -3 -6.3316 11.1471   2
  -9   9   3 7.09789 8.35885   1
  -9  -9   3  0.5811 10.0142   3
   9   9   3 -12.432   9.347   1
  -9   9   3 -0.2875 10.9641   6
  -9  -9   3 -8.3914 12.3890   6
  -9  10  -3 176.735  20.368   2
  10   9   3 162.295  15.153   1
  -9  10   3 155.922  17.327   6
 -10  -9   3 127.938  17.884   6
 -10  -9   3 185.454  19.298   3
  -9  10   3 156.164  15.658   1
  -8  10  -3 55.7281 12.6606   2
  10   8  -3 42.4541  9.5748   1
  -8  10   3 60.7560 13.2270   6
  -8  10   3 59.5087 10.8741   1
 -10  -8   3 71.4660 14.7510   6
 -10  -8   3 85.2778 14.2933   3
  -7  10  -3 597.748  37.448   2
  10   7  -3 524.482  28.861   1
  -7  10   3 543.445  29.379   1
 -10  -7   3 579.948  37.428   6
  -7  10   3 614.723  37.735   6
  -6  10  -3 197.303  22.409   2
 -10  -6   3 184.513  19.913   6
  -6  10   3 164.291  14.300   1
  -6  10   3 200.769  20.053   6
  -5  10  -3 270.975  26.186   2
   5 -10   3 207.163  21.309   3
  -5  10   3 257.844  20.938   6
 -10  -5   3 237.096  21.643   6
  -5  10   3 230.429  16.731   1
  -4  10  -3 48.6454 14.4448   2
  -4  10   3 81.0268 12.5670   6
   4 -10   3 69.0817 13.7248   3
 -10  -4   3 91.3386 13.5621   6
  -4  10   3 64.1835  9.4487   1
  -3  10  -3 57.0740 12.4470   2
   3 -10   3 62.7988 11.0482   3
  -3  10   3 61.3239 11.6330   6
  -3  10   3 74.4125  9.4407   1
 -10  -3   3 95.1014 11.2474   6
  -2  10  -3 55.8413 12.1533   2
   2 -10   3 83.3020 13.8628   3
 -10  -2   3 107.985  13.541   6
  -2  10   3 112.456  13.607   6
  -2  10   3 110.090  10.635   1
  -1  10  -3 816.214  34.812   1
  -1  10  -3 691.945  45.852   2
   1 -10   3 774.630  45.219   3
 -10  -1   3 858.568  46.684   6
  -1  10   3 858.874  36.546   1
   0  10  -3 429.209  29.747   2
   0  10  -3 441.014  21.071   1
 -10   0   3 471.745  28.993   6
   0  10   3 445.676  22.677   1
   0 -10   3 378.934  29.173   3
 -10   0   3 448.964  23.523   1
   1  10  -3 799.346  35.276   1
   1  10  -3 829.205  44.507   2
 -10   1   3 783.446  36.384   1
 -10   1   3 837.903  46.687   6
   1  10   3 839.357  36.596   1
  -1 -10   3 777.016  45.935   3
   2  10  -3 115.480  12.834   2
   2  10  -3 95.9587  9.3830   1
 -10   2   3 97.0848 13.3918   6
 -10   2   3 73.6961  9.9092   1
   2  10   3 110.344   9.252   1
  -2 -10   3 88.3761 12.1029   3
   3  10  -3 80.8718 10.2995   2
   3  10  -3 56.3219  7.4920   1
 -10   3  -3 57.9964  8.7223   2
   3  10   3 85.4428  9.8283   1
  -3 -10   3 63.7570 12.6596   3
 -10   3   3 78.8165 13.0101   6
 -10   3   3 76.6370 10.2427   1
   4  10  -3 66.0609  7.9860   1
 -10   4  -3 50.1833  9.1344   2
 -10   4   3 71.7440  9.9976   1
  -4 -10   3 60.4832 13.0930   6
   4  10   3 77.2028  9.8557   1
 -10   4   3 82.4574 13.0407   6
  -4 -10   3 54.8372 10.3824   3
   5  10  -3 260.048  15.763   1
 -10   5  -3 242.486  19.371   2
  -5 -10   3 238.854  20.012   3
   5  10   3 249.239  17.772   1
 -10   5   3 258.724  17.863   1
  -5 -10   3 232.124  23.091   6
 -10   5   3 272.983  22.215   6
   6  10  -3 170.824  13.510   1
 -10   6  -3 152.873  16.334   2
  -6 -10   3 171.695  17.096   3
 -10   6   3 172.459  14.955   1
   6  10   3 175.747  14.041   1
  -6 -10   3 194.332  19.902   6
 -10   6   3 192.030  19.751   6
 -10   7  -3 521.533  34.563   2
  -7 -10   3 595.845  37.070   3
 -10   7   3 561.557  29.556   1
   7  10   3 595.288  30.472   1
 -10   7   3 586.528  37.140   6
  -7 -10   3 543.443  37.598   6
 -10   8  -3 59.2122 11.2313   2
  -8 -10   3 70.4525 15.5650   6
  -8 -10   3 54.2870 11.1194   3
 -10   8   3 77.7409 13.8787   6
   8  10   3 64.5751 12.1858   1
 -10   8   3 76.7414 11.2451   1
 -10   9  -3 121.919  17.904   2
   9  10   3 164.474  16.795   1
 -10   9   3 171.108  15.562   1
  -9 -10   3 157.311  17.112   3
  -9 -10   3 188.269  20.394   6
 -10   9   3 188.550  18.508   6
 -10  10  -3  9.3108 12.0727   2
 -10 -10   3 -9.1872  7.1505   3
  10  10   3 -12.001  10.703   1
  10  10   3  2.4536 11.3025   6
 -10 -10   3  4.1504 13.1726   6
 -10  10   3 -3.4973  9.4616   1
 -10  10   3 28.8268 14.1762   6
 -10  11  -3 -9.5596 11.7367   2
 -10  11   3  0.8919 11.3348   6
 -10  11   3 -0.1404  9.6105   1
 -11 -10   3 -4.4482 16.1774   6
  10 -11   3 -15.640  11.568   6
  11  10   3  1.0246 11.5660   1
  11  10   3 11.0298 12.0470   6
  -9  11  -3 43.9009 15.8888   2
  11   9   3 62.9325 14.7210   6
  -9  11   3 61.6106 12.0596   1
 -11  -9   3 84.0912 15.4624   6
  -9  11   3 73.6349 14.0850   6
  11   9   3 81.5334 14.3457   1
   9 -11   3 51.9064 14.5038   6
 -11  -9   3 71.2393 14.1551   3
  -8  11  -3 -5.4287 12.4832   2
 -11  -8   3 -1.0557 10.5388   3
 -11  -8   3 18.6061 12.9176   6
  -8  11   3 24.4624  9.9878   1
  -8  11   3  8.7954 11.8049   6
  11   7  -3 36.5521  9.8145   1
  -7  11  -3 46.2651 15.5230   2
  -7  11   3 58.3296 13.2280   6
  -7  11   3 39.6820 10.1986   1
 -11  -7   3 57.0995 14.1601   6
  -6  11  -3 47.2044 16.1490   2
  -6  11   3 36.3693 12.3937   6
  -6  11   3 24.9048  9.3025   1
 -11  -6   3 32.0919 12.7866   6
  -5  11  -3 4.78476 8.84248   2
  -5  11   3 -7.1158 10.2114   6
   5 -11   3  4.7541 11.2887   3
  -5  11   3 11.2346  6.2571   1
 -11  -5   3  4.2586 11.2760   6
  -4  11  -3 18.1113 13.4191   2
  -4  11   3 15.6887 10.6210   6
 -11  -4   3 29.5367 11.6288   6
   4 -11   3  9.7054 11.5068   3
  -4  11   3 18.8684  8.3964   1
  -3  11  -3 -6.6325 11.4461   2
   3 -11   3 8.40876 8.50865   3
  -3  11   3 -2.7738  9.4927   6
 -11  -3   3 12.1774 10.8440   6
  -3  11   3 -4.7911  7.4682   1
  -2  11  -3 -9.8803 10.4191   2
  -2  11   3 3.58225 6.95247   1
 -11  -2   3  7.5592 10.1979   6
  -2  11   3 -0.3901  9.2814   6
   2 -11   3 2.03864 7.65697   3
  -1  11  -3 -15.327   9.538   2
  -1  11   3 0.83980 6.96782   1
 -11  -1   3 -10.607   9.497   6
  -1  11   3 6.65084 9.42022   6
   1 -11   3 -7.3191 10.4957   3
   0  11  -3 -0.7154  9.3429   2
   0 -11   3 -14.444   9.896   3
 -11   0   3  2.5006 10.0674   6
   0  11   3 5.16256 9.51439   6
   0  11   3 -0.4839  5.0275   1
   1  11  -3 1.87860 8.60278   2
   1  11   3 2.04526 6.93843   1
 -11   1   3  5.7199 10.3602   6
  -1 -11   3 -2.6911  7.2067   3
 -11   1   3 -0.2780  5.4690   1
   2  11  -3 1.00149 7.11450   2
   2  11  -3 -3.2951  5.7373   1
 -11   2   3  2.3324 10.4205   6
   2  11   3 0.31870 4.90862   1
 -11   2   3 -1.6043  7.6698   1
  -2 -11   3  4.7802 10.9497   6
  -2 -11   3 1.31620 7.46699   3
   3  11  -3 -2.7375  5.9742   2
  -3 -11   3 11.7172 11.6659   6
  -3 -11   3 -2.9134 10.2584   3
   3  11   3 3.42321 7.39812   1
 -11   3   3 14.4596 10.9211   6
 -11   3   3 3.70530 7.99356   1
 -11   4   3 26.3959  7.1472   1
   4  11   3 16.0502  8.6572   1
  -4 -11   3 18.1035 11.0462   3
  -4 -11   3 15.7364 12.5122   6
 -11   4   3 25.1666 11.6306   6
 -11   5   3  9.8983 11.2066   6
   5  11   3 8.27781 8.34398   1
  -5 -11   3 -3.3960 12.2996   6
  -5 -11   3 -6.2256 10.3304   3
 -11   5   3 -3.0422  7.8751   1
 -11   6  -3 20.5218  9.1213   2
 -11   6   3 33.3464  9.8806   1
 -11   6   3 37.5768 12.4559   6
  -6 -11   3 19.5658 11.5899   3
  -6 -11   3 38.3098 14.3761   6
   6  11   3 23.2049  9.6242   1
 -11   7  -3 51.2149 11.6749   2
 -11   7   3 84.9462 14.2390   6
   7  11   3 57.6585 11.8574   1
 -11   7   3 57.8447 10.7476   1
  -7 -11   3 55.6765 15.6137   6
  -7 -11   3 48.0678 10.9641   3
 -11   8  -3 20.4593 10.7085   2
 -11   8   3 8.62142 9.37378   1
   8  11   3  1.0295 11.4639   6
  -8 -11   3  8.6679 11.1697   3
   8  11   3 16.0409 10.6275   1
  -8 -11   3  9.1225 13.8566   6
 -11   8   3 20.0931 11.7145   6
 -11   9  -3 77.8447 14.4490   2
   9  11   3 71.0211 14.2172   6
  -9 -11   3 45.8053 13.4076   3
 -11   9   3 109.973  16.419   6
  -9 -11   3 60.5501 15.5079   6
   9  11   3 54.6110 12.5657   1
 -11   9   3 55.7560 11.4228   1
 -11  10  -3 14.8624 11.7366   2
 -10 -11   3 -12.071  16.426   6
 -11  10   3  4.1965 10.0740   1
  11 -10   3 -4.8170 11.5224   6
  10  11   3 15.6876 12.0506   6
 -10 -11   3  3.1759 10.9611   3
  10  11   3 14.7702 10.9664   1
 -11  10   3 18.7554 13.8016   6
 -11  11  -3  4.8917 11.2328   2
  11 -11   3 -19.983  14.745   6
  11  11   3 10.8365 12.0388   6
 -11 -11   3 10.0134 14.8985   6
 -11  11   3 12.6644 12.1419   6
 -10  12  -3 29.7858 10.6628   2
 -10  12   3 50.1576 13.8570   6
  12  10   3 47.5863 13.5417   6
  10 -12   3 24.1769 13.7808   6
 -12 -10   3 45.2233 15.2959   6
  -9  12  -3 73.8778 16.7502   2
  -9  12   3 71.2029 16.1059   6
  12   9   3 62.2780 11.3116   1
  12   9   3 72.0566 14.3987   6
 -12  -9   3 66.4169 16.6116   6
  -9  12   3 61.9002 12.1635   1
   9 -12   3 34.8806 13.8694   6
  -8  12  -3 101.403  19.009   2
 -12  -8   3 101.143  16.154   3
   8 -12   3 92.3037 16.0078   6
  -8  12   3 114.738  13.826   1
 -12  -8   3 148.375  19.784   6
  12   8   3 131.378  16.984   6
  -8  12   3 125.764  18.081   6
  -7  12  -3 266.200  26.998   2
 -12  -7   3 271.687  27.614   6
   7 -12   3 246.602  24.380   6
  -7  12   3 280.828  24.713   6
  -7  12   3 260.064  18.058   1
  -6  12  -3 62.4602 14.5074   2
  -6  12   3 62.8242 13.8943   6
  -6  12   3 70.8166 12.1320   1
 -12  -6   3 86.4635 17.1157   6
  -5  12  -3 128.353  21.715   2
  -5  12   3 104.296  17.558   6
 -12  -5   3 118.969  16.091   6
  -5  12   3 86.5984 12.1327   1
  -4  12  -3  9.5291 13.7098   2
  -4  12   3 -3.3987  5.6063   1
  -4  12   3 -13.372  10.800   6
 -12  -4   3  8.5745 11.7862   6
   4 -12   3 12.1002 12.3723   3
  -3  12  -3 34.4017 11.9293   2
  -3  12   3 57.5644 12.7962   6
 -12  -3   3 50.9628 12.9705   6
   3 -12   3 38.7665 14.1505   3
  -3  12   3 38.8692  9.6585   1
  -2  12  -3 97.3556 15.9200   2
 -12  -2   3 116.090  15.494   6
  -2  12   3 86.6874 11.3020   1
   2 -12   3 83.1853 15.8935   3
  -2  12   3 114.685  15.077   6
  -1  12  -3 300.885  27.144   2
  -1  12   3 271.901  20.555   6
  -1  12   3 238.678  16.341   1
 -12  -1   3 260.948  23.813   6
   1 -12   3 228.109  23.642   3
   1 -12   3 232.662  23.713   6
   0  12  -3 177.516  19.766   2
   0  12   3 170.737  17.797   6
   0 -12   3 146.344  17.915   6
 -12   0   3 179.699  18.467   6
   0  12   3 190.740  14.968   1
   0 -12   3 165.704  20.275   3
   1  12  -3 208.228  21.441   2
  -1 -12   3 243.150  23.410   6
   1  12   3 267.599  22.510   6
  -1 -12   3 240.691  21.744   3
   1  12   3 252.021  18.281   1
 -12   1   3 289.513  24.252   6
   2  12  -3 61.5140 12.0188   2
   2  12   3 94.6449 13.9163   6
  -2 -12   3 79.5921 15.4277   6
  -2 -12   3 89.8818 15.8676   3
   2  12   3 91.2891 10.0761   1
 -12   2   3 112.314  15.356   6
 -12   2   3 90.1383 12.0895   1
   3  12   3 31.2377  7.4358   1
 -12   3   3 42.5138  8.4880   1
  -3 -12   3 34.2241 13.7216   6
  -3 -12   3 38.3613 10.4913   3
 -12   3   3 40.8821 12.6829   6
   3  12   3 41.3509 11.6059   6
  -4 -12   3 -8.8479 13.2112   6
   4  12   3 -5.7934  9.9735   6
   4  12   3 0.52159 8.24073   1
  -4 -12   3 -3.8674  7.8712   3
 -12   4   3  1.3664 11.5776   6
 -12   4   3 2.74469 8.96701   1
 -12   5   3 110.954  15.642   6
 -12   5   3 80.3687 12.6465   1
   5  12   3 104.859  13.212   1
  -5 -12   3 79.0224 17.0956   6
   5  12   3 102.153  15.134   6
  -5 -12   3 100.625  14.181   3
   6  12   3 65.5023 13.8416   6
   6  12   3 69.6986 12.0404   1
 -12   6   3 93.7004 14.8521   6
  -6 -12   3 65.9281 14.8539   3
 -12   6   3 71.0736 12.2642   1
  -6 -12   3 72.4819 16.9113   6
 -12   7   3 307.926  24.747   6
  -7 -12   3 261.976  25.313   6
 -12   7   3 199.117  18.519   1
   7  12   3 259.919  25.369   6
   7  12   3 284.182  19.054   1
  -8 -12   3 104.545  18.319   6
 -12   8   3 110.505  12.179   1
   8  12   3 109.152  18.540   6
 -12   8   3 157.729  16.613   6
  -8 -12   3 118.528  17.656   3
   8  12   3 118.501  14.919   1
 -12   9   3 95.0370 13.1224   6
  12  -9   3 63.5250 14.0204   6
   9  12   3 56.0695 13.1465   1
   9  12   3 67.1418 14.6057   6
 -12   9   3 50.5458 12.1481   1
  -9 -12   3 57.3638 15.4805   6
  12 -10   3 48.8784 13.9582   6
 -10 -12   3 40.3500 16.3558   6
  10  12   3 46.6882 13.5339   6
 -12  10   3 58.4151 12.7849   6
  -9  13   3 131.509  16.103   6
  13   9   3 103.772  16.576   6
   9 -13   3 58.3409 15.5132   6
  -8  13  -3 11.6047 14.1105   2
  -8  13   3  9.4815 11.9293   6
   8 -13   3 -2.0478 12.7513   6
 -13  -8   3 21.6087 15.0156   6
  13   8   3 15.6144 12.5106   6
  -8  13   3  8.0392 10.0545   1
  -7  13  -3 24.2027 15.0828   2
 -13  -7   3 11.7771 12.5349   6
  -7  13   3 -1.1269 11.9763   6
  13   7   3  8.3336 11.7996   6
  -7  13   3 23.8234 10.4501   1
   7 -13   3 -4.3767 12.3791   6
  -6  13  -3 19.0837 15.8056   2
   6 -13   3 34.6910 14.2963   6
  -6  13   3 39.2331 15.5756   6
  -6  13   3 46.0662  8.8189   1
 -13  -6   3 55.2915 13.9872   6
  -5  13  -3 82.7056 18.8263   2
 -13  -5   3 98.0244 17.8829   6
  -5  13   3 84.6107 12.8461   1
   5 -13   3 72.3981 15.7319   6
  -5  13   3 89.4478 17.6219   6
  -4  13  -3 272.802  27.508   2
  -4  13   3 269.527  24.468   6
  -4  13   3 242.561  19.483   1
   4 -13   3 225.202  22.628   3
   4 -13   3 199.779  21.882   6
 -13  -4   3 268.824  24.916   6
  -3  13  -3 131.948  21.155   2
  -3  13   3 109.182  13.744   1
   3 -13   3 120.006  16.615   3
   3 -13   3 124.070  18.156   6
 -13  -3   3 181.428  20.105   6
  -3  13   3 132.097  17.081   6
  -2  13  -3 256.229  26.620   2
  -2  13   3 256.094  24.905   6
  -2  13   3 239.516  18.999   1
   2 -13   3 232.699  23.286   6
 -13  -2   3 319.474  25.298   6
   2 -13   3 204.138  22.133   3
  -1  13  -3 28.6341 13.0615   2
   1 -13   3 19.9615 10.2789   3
  -1  13   3 16.9922 12.2493   6
  -1  13   3 27.0902  9.7921   1
 -13  -1   3 37.3246 13.0562   6
   1 -13   3 20.5754 13.5552   6
   0  13  -3 -4.7173 10.3453   2
   0 -13   3  0.5456 12.8774   3
   0 -13   3 -3.6218 12.9591   6
   0  13   3  6.8308 11.2733   6
   0  13   3 1.67132 8.63646   1
 -13   0   3 -0.3465 12.1450   6
   1  13  -3 33.7151 11.4996   2
   1  13   3 23.5055 12.0201   6
   1  13   3 21.6503  7.5379   1
  -1 -13   3 42.4675 14.5810   3
  -1 -13   3 15.3409 13.7511   6
 -13   1   3 29.5158 13.2135   6
   2  13  -3 204.690  20.345   2
   2  13   3 234.896  23.348   6
 -13   2   3 294.954  26.995   6
  -2 -13   3 245.305  24.054   6
  -2 -13   3 236.874  24.277   3
   2  13   3 220.382  16.402   1
   3  13   3 124.755  12.667   1
 -13   3   3 150.057  17.270   6
  -3 -13   3 135.708  19.816   6
 -13   3   3 139.173  15.453   1
  -3 -13   3 134.120  17.088   3
   3  13   3 136.862  16.914   6
   4  13   3 276.304  19.887   1
  -4 -13   3 226.791  23.752   6
   4  13   3 230.357  23.913   6
  -4 -13   3 230.015  22.416   3
 -13   4   3 211.904  18.253   1
 -13   4   3 264.630  24.349   6
 -13   5   3 93.9745 14.6302   6
 -13   5   3 79.6354 13.3187   1
   5  13   3 92.0385 17.4538   6
  -5 -13   3 62.1651 15.9285   3
  -5 -13   3 95.4947 21.0629   6
   5  13   3 90.6015 13.1383   1
  -6 -13   3 45.0620 16.2363   6
   6  13   3 44.0342 13.7540   6
  -6 -13   3 37.5451 14.2175   3
 -13   6   3 24.8757 11.4196   1
 -13   6   3 71.6797 13.2842   6
   6  13   3 31.9838 11.3439   1
   7  13   3  7.6030 12.3648   6
  -7 -13   3  4.2503 14.8418   6
 -13   7   3 -12.294   9.535   1
 -13   7   3 11.1047 13.4829   6
   7  13   3 -1.0649 10.4329   1
   8  13   3  6.7324 11.4867   1
 -13   8   3 15.4080 11.9988   6
  -8 -13   3 14.2173 14.4364   6
   8  13   3 25.7159 12.6392   6
 -13   8   3 10.9522 10.7706   1
  13  -8   3 13.3260 11.2162   6
   9  13   3 108.420  16.723   6
  -7  14  -3 -3.1229 13.1180   2
   7 -14   3 -31.656  15.437   6
 -14  -7   3  8.7420 13.0079   6
  14   7   3  2.2976 12.1970   6
  -7  14   3 15.1091 13.7926   6
  -6  14  -3 -3.6545 13.8199   2
 -14  -6   3 14.5506 13.7840   6
  14   6   3 -5.8438 11.7333   6
   6 -14   3 -10.605  13.248   6
  -6  14   3  4.5559 12.2572   6
  -6  14   3 -0.0484  9.6537   1
  -5  14  -3  2.8134 10.2493   2
  -5  14   3 -1.7276 11.9360   6
 -14  -5   3  4.4673 14.5562   6
  -5  14   3 10.5049  9.9839   1
   5 -14   3 -6.7685 13.6624   6
  -4  14  -3 16.9407 15.0877   2
  -4  14   3 27.8156 13.2715   6
 -14  -4   3 68.6291 14.2657   6
  -4  14   3 37.3701  8.6515   1
   4 -14   3 22.6019 14.6400   6
  -3  14  -3  8.3373 14.5150   2
 -14  -3   3 14.9874 12.4206   6
   3 -14   3 -2.5197 13.6667   6
   3 -14   3 -14.878  12.554   3
  -3  14   3 14.3455 10.1632   1
  -3  14   3  3.9407 14.6474   6
  -2  14  -3  9.8363 13.5526   2
 -14  -2   3 27.1542 12.6144   6
  -2  14   3 6.96011 9.91606   1
   2 -14   3  1.9028 13.8726   6
   2 -14   3 11.4983 13.5842   3
  -2  14   3  8.3467 14.7126   6
  -1  14  -3  2.1830 12.5723   2
  -1  14   3 4.73851 6.89007   1
 -14  -1   3  2.6103 11.7667   6
   1 -14   3 -0.1099 14.0729   6
   1 -14   3  4.4916 13.3529   3
  -1  14   3 12.5482 11.7784   6
   0  14  -3 -6.4869 11.1648   2
   0  14   3  8.3108 11.8661   6
 -14   0   3 22.5157 12.4156   6
   0 -14   3 -8.2714 17.3154   6
   0  14   3 4.89719 9.87641   1
   0 -14   3  6.0504 13.1734   3
   1  14  -3 11.0740 10.4930   2
  -1 -14   3  6.6676 13.8685   3
   1  14   3 2.13533 9.89095   1
  -1 -14   3 -1.8565 14.3388   6
 -14   1   3  4.4555 12.0236   6
   1  14   3 14.1224 11.9854   6
  -2 -14   3  2.7348 13.4431   3
   2  14   3 19.2047 12.4660   6
  -2 -14   3 -10.048  14.068   6
 -14   2   3 13.1870 12.1952   6
   2  14   3 -0.5295  9.8098   1
   3  14   3 13.0087 10.2427   1
  -3 -14   3 -0.1123 12.8601   3
  -3 -14   3 -5.3382 14.5391   6
   3  14   3  3.9038 12.1060   6
 -14   3   3 16.7429 11.6740   6
   4  14   3 33.9602 11.5038   1
  -4 -14   3 23.4979 14.1349   3
 -14   4   3 25.2825  8.7455   1
 -14   4   3 58.9486 13.1035   6
   4  14   3 44.9824 13.5202   6
  -4 -14   3 29.0336 16.0417   6
 -14   5   3  1.8222 10.7724   1
   5  14   3  7.5156 10.2795   1
  -5 -14   3 12.7469 15.3840   6
 -14   5   3 20.6762 11.5636   6
   5  14   3  4.9836 12.5802   6
   6  14   3 9.07200 7.86415   1
 -14   6   3 -0.7882 10.7234   1
  14  -6   3 35.6012 10.8921   6
  -6 -14   3  0.3875 14.4934   6
 -14   6   3 27.1328 12.2936   6
   6  14   3 -5.8372 11.9314   6
   7  14   3  1.7378 12.2621   6
 -14   7   3 10.2210 10.7630   6
  -7 -14   3  1.1091 16.9885   6
  14  -7   3  8.3812 11.0955   6
   5 -15   3 110.638  18.480   6
 -15  -5   3 102.592  14.083   6
  -4  15  -3 133.150  20.983   2
  -4  15   3 171.822  19.565   6
 -15  -4   3 165.805  17.842   6
   4 -15   3 179.368  20.949   6
  -3  15  -3 166.666  22.124   2
   3 -15   3 147.763  19.593   6
 -15  -3   3 154.177  17.488   6
  -3  15   3 155.087  15.801   1
  -3  15   3 189.896  19.069   6
  -2  15  -3 136.183  18.248   2
  -2  15   3 169.846  20.268   6
 -15  -2   3 222.417  22.416   6
   2 -15   3 159.294  21.052   6
  -2  15   3 137.800  15.333   1
  -1  15  -3 35.0003 14.2807   2
  -1  15   3 37.4087 11.4340   1
  -1  15   3 56.4571 16.5162   6
   1 -15   3 41.9168 16.4198   6
   0  15  -3  6.1237 10.9659   2
   0  15   3 -15.412   9.492   1
   0 -15   3 -4.4055 14.5250   6
   1  15   3 44.5707 11.6648   1
  -1 -15   3 14.0634 15.4839   6
 -15   1   3 56.0519 14.3534   6
   1  15   3 50.9505 16.3784   6
 -15   2   3 182.802  16.795   6
   2  15   3 149.102  16.033   1
   2  15   3 146.687  19.813   6
  -2 -15   3 153.234  21.629   6
   3  15   3 131.882  16.235   1
 -15   3   3 249.118  22.124   6
   3  15   3 174.042  20.824   6
  15  -3   3 248.542  22.670   6
  -3 -15   3 169.118  22.512   6
 -15   4   3 171.774  16.527   6
  -4 -15   3 142.143  20.580   6
  15  -4   3 137.102  17.265   6
   4  15   3 178.006  19.286   6
 -15   5   3 74.2625 11.2132   6
   0   0  -4 9999.99  438.68   2
   1   0  -4 -3.4250  2.7687   2
   0  -1  -4 -0.5972  2.1156   2
  -1   0  -4 -0.0551  3.0963   2
   0   1  -4 3.59961 3.37091   2
  -1   0   4 -0.4961  1.1334   1
   0  -1   4 0.16253 0.78003   1
   0   1   4 -0.9521  0.8269   1
  -1   0   4 0.17132 0.61436   4
  -1   0   4 -0.0960  0.6677   4
   1   1  -4 536.749  25.416   2
   1  -1  -4 501.354  25.178   2
  -1   1  -4 528.689  25.767   2
  -1  -1  -4 460.389  25.114   2
  -1   1   4 511.738  18.345   4
  -1  -1   4 491.586  20.171   1
  -1   1   4 504.691  20.283   1
  -1  -1   4 524.601  18.333   4
  -1  -1   4 518.613  18.361   4
   2   1  -4 27.0982  4.4148   2
   1  -2  -4 29.7465  5.0792   2
  -2  -1  -4 25.2547  3.9304   2
  -1   2  -4 32.5090  5.1099   2
  -1   2   4 27.4107  1.9952   4
  -2  -1   4 33.0355  2.3431   4
   1  -2   4 27.5450  1.6014   4
  -2  -1   4 26.8079  2.1804   4
  -1   2   4 29.7992  2.5597   1
  -2  -1   4 27.3797  2.6363   1
   1  -2   4 28.5383  1.8023   4
   2   0  -4 527.165  27.572   2
  -2   0  -4 602.769  28.413   2
   0  -2  -4 629.395  28.327   2
   0   2  -4 600.832  28.515   2
   0  -2   4 550.333  20.489   4
   0   2   4 567.816  22.691   1
   0   2   4 556.592  20.589   4
  -2   0   4 547.703  20.946   4
  -2   0   4 577.773  22.996   1
   0  -2   4 577.752  20.569   4
   2  -1  -4 33.2864  4.8198   2
  -2   1  -4 23.0624  4.8467   2
  -1  -2  -4 30.9469  4.8615   2
   1   2  -4 31.7386  4.8212   2
  -2   1   4 27.4155  2.2442   4
   1   2   4 28.3410  2.0351   4
  -1  -2   4 32.4035  2.2168   4
  -1  -2   4 29.6506  2.2353   4
  -2   1   4 28.0816  2.6896   1
   2  -1   4 30.1308  3.9263   3
  -2  -2  -4 2883.08  134.89   2
   2   2  -4 3034.21  134.94   2
  -2   2  -4 3089.82  135.75   2
  -2  -2   4 3023.14  107.31   4
  -2   2   4 2816.82  117.00   1
  -2   2   4 3014.71  107.41   4
   2  -2   4 3104.15  106.91   4
  -2  -2   4 3024.15  107.31   4
   2  -2   4 3075.87  106.85   4
   2   2   4 3042.44  106.93   4
   2  -2   4 3201.52  141.79   3
  -2   3  -4 -0.4125  3.7088   2
   3   2  -4 3.80804 2.82746   2
  -3  -2  -4 -0.5746  3.2138   2
  -2   3   4 1.30717 1.85593   4
   2  -3   4 0.54179 1.09315   4
  -3  -2   4 2.53663 1.28019   4
   2  -3   4 3.50064 3.86584   3
  -2   3   4 0.15005 2.10896   1
   2  -3   4 0.28320 1.43109   4
   3   2   4 2.89831 1.15786   4
  -3  -2   4 0.75804 2.04992   4
   3   1  -4 1833.88   85.17   2
  -1   3  -4 1952.32   86.51   2
  -3  -1  -4 1903.14   85.74   2
   1  -3   4 2052.72   90.37   3
  -1   3   4 1886.66   67.60   4
  -1   3   4 1861.07   73.74   1
   3   1   4 1908.05   67.13   4
   1  -3   4 1853.06   67.29   4
   1  -3   4 1896.45   67.45   4
  -3  -1   4 1833.05   67.73   4
  -3  -1   4 1872.63   73.88   1
   3   0  -4 -0.3392  2.8277   2
   0   3  -4 -0.8853  2.2127   2
  -3   0  -4 0.26129 3.41318   2
  -3   0   4 -0.6342  1.9130   1
   0   3   4 -2.5761  1.4356   1
   0  -3   4 -0.8309  0.9565   4
  -3   0   4 2.70328 1.72528   4
   3   0   4 -1.0524  0.7715   4
   0   3   4 -3.1131  1.2567   4
   0  -3   4 -0.6698  1.3130   4
   3   0   4 1.15223 1.40957   3
   1   3  -4 1861.01   84.85   2
  -3   1  -4 1917.00   85.24   2
   1   3   4 1866.05   66.58   4
   1   3   4 1900.50   66.62   4
  -3   1   4 1882.15   67.07   4
   3  -1   4 1841.52   66.25   4
   3  -1   4 1878.00   87.62   3
   1   3   4 1842.75   72.77   1
  -1  -3   4 1891.13   66.77   4
  -1  -3   4 1822.03   66.61   4
  -3   1   4 1876.07   73.08   1
   2   3  -4 4.01830 3.24421   2
  -3   2  -4 3.04243 2.90781   2
  -2  -3  -4 4.69743 3.99093   2
   3  -2   4 1.54540 1.16733   4
  -2  -3   4 -0.8861  1.9349   4
  -3   2   4 1.44885 1.97623   4
   3  -2   4 2.31292 2.85468   3
   2   3   4 4.57654 1.36263   4
  -3   2   4 2.34330 2.31083   1
   2   3   4 0.25378 1.83399   4
  -2  -3   4 1.92662 1.50846   4
  -3   3  -4 495.065  26.205   2
   3   3  -4 496.309  24.972   2
  -3  -3  -4 562.091  25.729   2
   3   3   4 506.802  18.954   4
  -3   3   4 510.704  21.564   1
   3  -3   4 492.895  19.044   4
  -3  -3   4 484.699  19.360   4
   3   3   4 509.273  19.069   4
  -3  -3   4 503.864  19.311   4
   3  -3   4 498.182  26.203   3
  -3   3   4 482.270  19.557   4
   3  -3   4 505.422  18.953   4
   4   3  -4 19.4353  3.7970   2
  -4  -3  -4 23.6592  4.1168   2
  -3   4  -4 24.8923  6.2481   2
  -3   4   4 22.0416  3.9729   1
   3  -4   4 23.8145  2.6104   4
   3  -4   4 26.3747  2.9467   4
  -3   4   4 19.3180  3.1705   4
  -4  -3   4 21.7290  3.2982   4
   4   3   4 21.6728  2.5466   4
   4   3   4 22.1793  2.8754   4
   3  -4   4 24.3835  4.5852   3
  -4  -3   4 21.9391  2.5677   4
   4   2  -4 945.556  46.229   2
  -2   4  -4 1041.70   48.50   2
  -4  -2  -4 988.477  47.004   2
   2  -4   4 1008.36   36.60   4
   4   2   4 965.291  36.433   4
  -2   4   4 1026.05   40.54   1
  -2   4   4 1020.55   36.94   4
   2  -4   4 1049.00   49.93   3
  -4  -2   4 985.453  36.979   4
   2  -4   4 1016.47   36.78   4
  -4  -1  -4 84.1597  7.8515   2
  -1   4  -4 75.6419  8.2838   2
   4   1  -4 79.0906  6.6720   2
  -4  -1   4 88.2729  5.2525   4
   1  -4   4 86.0991  4.4589   4
   1  -4   4 93.5497  8.0193   3
  -4  -1   4 92.4785  6.1663   1
  -1   4   4 84.0015  4.9661   4
   1  -4   4 87.0689  4.8856   4
  -1   4   4 85.0827  5.6785   1
   4   1   4 77.5722  4.3622   4
  -4   0  -4 12.8316  3.3790   2
   0   4  -4 6.76163 3.28406   2
   0  -4   4 11.2996  2.2323   4
   4   0   4 8.06074 1.46797   4
  -4   0   4 6.14644 2.77476   1
   0  -4   4 9.22557 3.66903   3
   0   4   4 10.0774  2.5053   1
   0   4   4 10.3741  2.1079   4
   0  -4   4 10.0517  1.7655   4
  -4   0   4 9.31843 1.87937   4
  -4   1  -4 92.8152  7.5729   2
   1   4  -4 89.5187  7.3232   2
   1   4   4 83.4717  4.7910   4
   1   4   4 94.2758  5.6923   1
  -1  -4   4 86.7325  5.0967   4
   1   4   4 78.2394  4.6042   4
  -4   1   4 87.2703  5.4220   4
   4  -1   4 77.4567  4.3725   4
  -1  -4   4 90.4395  4.6501   4
  -4   1   4 86.0319  6.1159   1
   4  -1   4 66.0518  5.3663   3
   2   4  -4 990.781  46.736   2
  -4   2  -4 1022.63   47.61   2
   4  -2   4 898.033  47.639   3
  -4   2   4 999.486  40.244   1
   4  -2   4 988.719  36.090   4
  -2  -4   4 979.416  36.330   4
   2   4   4 1059.95   36.32   4
  -2  -4   4 976.840  36.481   4
  -4   2   4 994.526  36.854   4
   2   4   4 1005.78   36.30   4
  -4   3  -4 23.4438  5.9114   2
   3   4  -4 20.5272  4.2833   2
   4  -3   4 21.3174  2.7163   4
   4  -3   4 21.0762  4.4142   3
  -3  -4   4 20.5673  2.7620   4
  -3  -4   4 15.2175  3.0998   4
  -4   3   4 24.6239  4.0544   1
  -4   3   4 25.1307  2.9315   4
   3   4   4 21.5573  2.8554   4
   3   4   4 22.3851  2.6211   4
   4   4  -4 750.873  34.776   2
  -4   4  -4 758.724  37.628   2
  -4   4   4 735.965  30.813   1
   4  -4   4 718.565  27.443   4
   4  -4   4 710.476  37.187   3
  -4  -4   4 706.745  27.606   4
  -4   4   4 727.777  28.083   4
   4   4   4 727.006  27.349   4
  -4  -4   4 690.075  27.540   4
   4   4   4 741.242  27.512   4
   5   4  -4 230.761  13.281   2
  -4   5  -4 253.294  18.068   2
   4  -5   4 235.823  16.324   3
   5   4   4 232.297  10.990   4
  -5  -4   4 237.463  10.750   4
  -4   5   4 218.214  11.505   4
  -4   5   4 255.749  13.231   1
  -5  -3  -4 3745.87  149.02   2
   5   3  -4 3256.90  147.82   2
  -3   5  -4 3429.34  151.71   2
   3  -5   4 3304.94  157.79   3
  -3   5   4 3290.75  130.26   1
  -5  -3   4 3201.98  119.22   4
  -3   5   4 3246.79  119.39   4
   3  -5   4 3332.29  119.19   4
   5   3   4 3244.10  118.84   4
  -2   5  -4 22.0856  5.3348   2
   5   2  -4 20.8464  3.7183   2
  -5  -2  -4 16.5478  4.4175   2
   2  -5   4 19.3770  3.0263   4
   2  -5   4 23.5789  6.1748   3
   5   2   4 20.3623  2.5268   4
  -2   5   4 13.7767  3.5877   1
  -5  -2   4 26.3943  3.3810   4
   2  -5   4 20.2043  2.6547   4
  -2   5   4 24.4871  2.7856   4
  -5  -1  -4 6.11352 3.75209   2
  -1   5  -4 4.04361 4.61225   2
   1  -5   4 2.71706 5.19860   3
   5   1   4 2.36344 1.70745   4
  -1   5   4 2.75521 2.82652   1
   1  -5   4 5.75461 2.42424   4
  -5  -1   4 5.35245 2.57183   4
  -1   5   4 4.94346 1.79764   4
   1  -5   4 1.84609 1.80611   4
  -5  -1   4 2.40615 3.33508   1
   0   5  -4 -2.2383  2.6194   2
  -5   0  -4 -0.3187  2.6303   2
   5   0   4 1.03559 1.58780   4
   0   5   4 -0.2067  1.9497   4
   0   5   4 -1.5187  1.4712   4
   0   5   4 -0.3661  2.5997   1
   0  -5   4 2.83214 5.09475   3
   0  -5   4 -0.4079  1.7157   4
   0  -5   4 -0.7718  2.3076   4
  -5   0   4 -4.9313  2.8764   1
  -5   0   4 -0.4581  2.3763   4
  -5   1  -4 5.32217 3.24819   2
   1   5  -4 3.05767 4.07836   2
   1   5   4 3.00395 2.04439   4
   1   5   4 5.20796 2.29929   4
  -5   1   4 9.47805 3.62886   1
  -1  -5   4 0.67890 1.86235   4
  -1  -5   4 5.59021 5.51042   3
   1   5   4 4.30462 2.89853   1
  -5   1   4 3.92796 2.60696   4
   5  -1   4 2.00712 1.72920   4
  -1  -5   4 3.30121 1.89131   4
   2   5  -4 24.1239  5.0449   2
  -5   2  -4 14.3148  5.3051   2
  -5   2   4 28.9488  4.5206   1
  -2  -5   4 17.6549  2.6875   4
  -2  -5   4 20.9046  2.7658   4
  -5   2   4 20.9520  3.4698   4
   2   5   4 17.3950  2.7603   4
   2   5   4 20.4746  3.9182   1
   2   5   4 15.6527  2.9520   4
   5  -2   4 21.1339  2.7018   4
  -5   3  -4 3311.90  149.90   2
   3   5  -4 3429.45  148.55   2
   3   5   4 3241.67  118.56   4
  -5   3   4 3447.96  130.06   1
  -3  -5   4 3192.01  118.61   4
   5  -3   4 3286.73  118.58   4
   3   5   4 3458.08  118.74   4
  -5   3   4 3228.56  119.16   4
  -5   4  -4 269.872  17.773   2
   4   5  -4 253.640  14.297   2
  -5   4   4 246.583  11.943   4
   5  -4   4 220.409  15.388   3
   4   5   4 249.096  11.395   4
  -4  -5   4 230.588  11.128   4
  -5   4   4 256.194  13.664   1
  -5   5  -4 11.9864  7.4611   2
   5   5  -4 17.2910  3.7741   2
   5   5   4 18.5371  3.7797   4
  -5   5   4 16.5418  3.9581   4
   5  -5   4 19.4293  6.2414   3
  -5   5   4 19.4467  5.0856   1
  -5  -5   4 19.5061  3.5107   4
  -5   6  -4 228.395  19.863   2
  -6  -5   4 233.517  11.156   4
  -5   6   4 238.921  12.232   4
   5  -6   4 204.173  16.892   3
  -5   6   4 238.632  14.104   1
  -4   6  -4 130.261  14.761   2
   6   4  -4 107.774   8.046   1
   6   4   4 135.269   8.145   4
  -4   6   4 135.402   8.635   4
   4  -6   4 135.063  12.636   3
  -6  -4   4 130.713   7.393   4
  -4   6   4 141.309  10.241   1
  -3   6  -4 8.38790 7.26061   2
  -6  -3  -4 5.77276 4.20829   2
   6   3  -4 15.7847  4.0522   1
  -3   6   4 11.4307  2.7803   4
   3  -6   4 10.4754  4.8385   3
  -3   6   4 10.7906  4.4401   1
  -6  -3   4 14.3322  3.3642   4
  -6  -2  -4 127.985   9.583   2
  -2   6  -4 155.134  14.153   2
  -2   6   4 129.495   7.655   4
   2  -6   4 118.846   7.052   4
  -2   6   4 132.218   9.005   1
  -6  -2   4 125.893   7.149   4
   2  -6   4 136.626  11.507   3
  -6  -1  -4 393.722  20.552   2
  -1   6  -4 378.642  23.167   2
   1  -6   4 387.779  23.425   3
   6   1   4 361.075  15.348   4
  -6  -1   4 392.832  16.255   4
   1  -6   4 363.492  15.525   4
  -1   6   4 386.314  15.926   4
  -1   6   4 386.609  17.859   1
  -6  -1   4 395.070  18.360   1
   0   6  -4 4620.83  204.69   2
  -6   0  -4 4849.04  203.37   2
   0  -6   4 4332.83  162.39   4
  -6   0   4 4505.29  177.61   1
   6   0   4 4501.30  162.29   4
  -6   0   4 4537.85  162.98   4
   0   6   4 4548.52  162.61   4
   0  -6   4 4742.65  215.61   3
   0   6   4 4538.99  177.28   1
  -6   1  -4 389.794  21.259   2
   1   6  -4 362.144  21.496   2
  -6   1   4 393.986  18.323   1
   1   6   4 369.569  17.643   1
  -1  -6   4 365.711  15.465   4
  -1  -6   4 427.885  23.793   3
  -6   1   4 373.644  15.917   4
   1   6   4 385.619  15.788   4
   6  -1   4 363.957  15.301   4
  -6   2  -4 131.803  10.286   2
   2   6  -4 132.662  10.538   2
  -6   2   4 125.913   7.891   4
  -2  -6   4 129.472  11.474   3
   2   6   4 115.884   7.354   4
  -6   2   4 139.133   9.684   1
  -2  -6   4 118.186   7.027   4
   2   6   4 129.990   8.956   1
  -6   3  -4 14.1947  5.9358   2
   3   6  -4 14.8726  4.7563   2
  -3  -6   4 11.3306  2.8965   4
  -6   3   4 7.20284 3.64622   4
  -6   3   4 19.1739  5.0538   1
   3   6   4 8.74536 3.27030   4
   3   6   4 19.1344  4.7280   1
  -6   4  -4 116.435  11.748   2
   4   6  -4 130.729   9.670   2
  -4  -6   4 124.634   7.057   4
  -6   4   4 122.769   8.538   4
   4   6   4 126.740   8.095   4
  -6   4   4 139.526  10.521   1
  -6   5  -4 238.249  19.012   2
  -5  -6   4 224.644  11.443   4
  -6   5   4 237.339  12.352   4
  -6   5   4 233.663  14.346   1
  -6   6  -4 1993.10   95.95   2
  -6   6   4 2001.93   80.79   1
  -6   7  -4 95.3545 13.9346   2
   6  -7   4 96.5350 12.3928   3
  -6   7   4 120.124   9.812   1
  -5   7  -4 149.770  18.127   2
   5  -7   4 123.022  13.597   3
  -5   7   4 144.094  11.712   1
  -4   7  -4 69.3831 12.7000   2
   4  -7   4 76.2273 10.5843   3
  -7  -4   4 65.9224  5.9429   4
  -4   7   4 68.7164  7.9575   1
  -4   7   4 66.9583  6.3080   4
  -3   7  -4 236.275  20.098   2
  -7  -3   4 211.371  11.057   4
  -3   7   4 210.490  13.082   1
   3  -7   4 218.327  17.720   3
  -3   7   4 207.905  11.197   4
  -7  -2  -4 30.3165  5.1515   2
  -2   7  -4 34.1228  9.7278   2
  -2   7   4 28.9829  5.5145   1
   2  -7   4 30.2278  3.3906   4
   2  -7   4 24.7891  8.3165   3
  -7  -2   4 20.9425  4.0921   4
  -2   7   4 27.8111  3.5791   4
  -1   7  -4 498.072  27.603   2
  -7  -1  -4 433.013  23.745   2
   1  -7   4 430.946  18.648   4
   1  -7   4 479.100  27.874   3
  -1   7   4 443.397  19.036   4
  -7  -1   4 480.114  22.091   1
  -7  -1   4 456.385  19.379   4
  -1   7   4 479.507  21.515   1
   0   7  -4 -3.3438  3.9707   2
   7   0  -4 -4.7667  1.7572   4
  -7   0  -4 1.30734 4.17867   2
  -7   0   4 -1.6054  3.1637   4
   0   7   4 6.95219 3.18542   4
   0  -7   4 -0.7301  6.7630   3
   0  -7   4 -3.4806  2.3323   4
  -7   0   4 2.94942 4.66347   1
   0   7   4 -1.4517  3.9697   1
   1   7  -4 443.039  25.848   2
  -7   1  -4 439.124  24.594   2
   1   7   4 480.590  21.353   1
   1   7   4 444.398  18.810   4
  -7   1   4 455.380  21.790   1
  -7   1   4 451.658  19.043   4
  -1  -7   4 487.446  27.002   3
  -1  -7   4 442.170  18.556   4
   2   7  -4 26.9339  6.1918   2
  -7   2  -4 32.2961  6.8419   2
  -2  -7   4 27.2781  3.6920   4
   2   7   4 28.6755  4.2901   4
  -7   2   4 19.9042  5.5888   1
  -2  -7   4 30.4653  8.3099   3
   2   7   4 31.8746  5.7057   1
  -7   2   4 31.1221  4.6221   4
  -7   3  -4 204.266  14.965   2
  -7   3   4 218.019  11.074   4
  -3  -7   4 253.214  16.882   3
   3   7   4 210.222  11.136   4
  -7   3   4 234.083  13.886   1
  -3  -7   4 193.569  10.578   4
   3   7   4 245.372  13.583   1
  -7   4  -4 55.7742  9.6248   2
   4   7  -4 66.8265  7.3116   2
  -7   4   4 68.4746  8.0340   1
  -4  -7   4 56.7865  4.9747   4
  -4  -7   4 70.8676 10.8983   3
   4   7   4 61.6189  7.8026   1
  -7   4   4 59.4570  5.5554   4
  -7   5  -4 152.911  14.714   2
   5   7   4 151.350  11.806   1
  -7   5   4 146.788  11.707   1
  -7   6  -4 114.779  14.893   2
  -7   6   4 118.006  10.913   1
  -7   7  -4 256.850  23.228   2
  -7   7   4 263.522  17.182   1
  -7   8  -4 74.2538 15.7396   2
  -7   8   4 103.764  11.514   1
  -6   8  -4 256.583  25.571   2
   6  -8   4 204.026  20.042   3
  -6   8   4 274.886  16.800   1
  -5   8  -4 -2.2766  6.9786   2
   5  -8   4 15.8712  6.9838   3
  -5   8   4 19.7231  6.7579   1
  -4   8  -4 305.452  26.322   2
   4  -8   4 311.640  23.955   3
  -4   8   4 378.575  19.152   1
  -3   8  -4 20.4747 10.2111   2
  -3   8   4 17.3337  6.0392   1
   3  -8   4 14.9557  9.0618   3
  -2   8  -4 1710.40   84.13   2
   2  -8   4 1699.85   84.88   3
  -2   8   4 1656.14   62.69   4
  -2   8   4 1702.80   68.82   1
  -1   8  -4 204.080  18.374   2
  -8  -1  -4 153.875  11.492   2
  -8  -1   4 181.436  12.717   1
   1  -8   4 156.379   8.699   4
  -1   8   4 165.882   9.182   4
  -8  -1   4 173.470   9.423   4
   1  -8   4 175.162  16.870   3
  -1   8   4 152.409  10.448   1
   0   8  -4 492.341  29.282   2
  -8   0  -4 499.348  25.409   2
   0  -8   4 461.257  19.711   4
   0   8   4 445.896  19.546   4
  -8   0   4 487.750  23.414   1
   0   8   4 475.405  22.635   1
   0  -8   4 494.397  29.583   3
  -8   0   4 454.280  20.329   4
  -8   1  -4 162.866  12.735   2
   1   8  -4 183.209  15.291   2
  -1  -8   4 149.471  15.301   3
   1   8   4 150.395   9.477   4
   1   8   4 169.812  11.672   1
  -1  -8   4 153.627   8.965   4
  -8   1   4 170.359  11.223   1
  -8   1   4 159.074  10.049   4
   2   8  -4 1758.51   80.98   2
  -8   2  -4 1668.96   80.15   2
  -2  -8   4 1736.77   86.07   3
   2   8   4 1804.96   70.05   1
  -8   2   4 1774.61   70.47   1
  -2  -8   4 1589.02   63.22   4
  -8   3  -4 20.2094  7.2584   2
   3   8  -4 27.1732  6.3348   2
  -3  -8   4 13.0467  8.6037   3
  -8   3   4 20.8835  6.5259   1
  -3  -8   4 21.5361  4.2145   4
   3   8   4 15.7182  6.1281   1
   4   8  -4 371.563  21.051   2
  -8   4  -4 344.722  23.623   2
   4   8   4 382.421  20.112   1
  -8   4   4 367.410  20.211   1
  -4  -8   4 385.397  24.370   3
  -8   5  -4 14.2582  8.4312   2
  -8   5   4 20.2079  7.3761   1
  -5  -8   4 21.4267  7.4406   3
   5   8   4 36.7188  7.9819   1
  -8   6  -4 215.038  20.908   2
   6   8   4 275.978  17.716   1
  -8   6   4 265.418  17.229   1
  -6  -8   4 246.128  19.546   3
  -8   7  -4 63.3541 13.9714   2
  -8   7   4 91.8445 10.9673   1
   7   8   4 114.499  12.160   1
  -7  -8   4 81.5715 13.7019   3
  -8   8  -4 1405.67   74.79   2
  -8  -8   4 1468.46   74.82   3
  -8   8   4 1417.86   61.54   1
  -8   9  -4 108.220  18.749   2
  -8   9   4 120.685  11.551   1
  -9  -8   4 103.543  13.945   3
  -8   9   4 134.160  14.496   6
  -9  -8   4 118.716  14.648   6
  -7   9  -4 144.164  20.360   2
  -7   9   4 128.998  13.002   1
  -6   9  -4 -1.5715  8.2525   2
  -6   9   4 9.61854 7.53846   1
  -5   9  -4 634.079  44.980   2
  -5   9   4 824.370  34.045   1
   5  -9   4 690.106  42.468   3
  -4   9  -4 24.7303 12.7125   2
  -4   9   4 69.8394  9.0235   1
   4  -9   4 45.2241 11.4279   3
  -3   9  -4 44.5207 13.3332   2
  -3   9   4 108.660   9.976   1
   3  -9   4 79.9850 13.3727   3
  -2   9  -4 37.1833 12.4437   2
  -2   9   4 45.4160  7.6205   1
   2  -9   4 41.0552  8.8953   3
  -1   9  -4 697.965  39.931   2
   1  -9   4 687.604  39.835   3
  -1   9   4 656.834  30.925   1
   0   9  -4 6.56674 8.51781   2
  -9   0   4 2.61712 4.60934   1
   0   9   4 5.41608 5.62936   1
   0  -9   4 1.09446 6.28866   3
  -9   1  -4 666.132  35.275   2
   1   9  -4 692.560  37.846   2
  -9   1   4 692.102  32.454   1
  -1  -9   4 696.633  40.387   3
   1   9   4 734.326  31.880   1
  -9   2  -4 29.6974  7.2567   2
   2   9  -4 42.9764  8.4364   2
   2   9   4 53.3098  7.6873   1
  -9   2   4 37.0694  8.1687   1
  -2  -9   4 39.0737 10.6185   3
  -9   3  -4 117.220  12.232   2
   3   9  -4 98.0030 10.5639   2
  -3  -9   4 84.9890 11.6667   3
  -9   3   4 88.5600 10.2615   1
   3   9   4 97.4012  9.9599   1
  -9   4  -4 55.3156 10.1556   2
   4   9   4 71.7946  9.3823   1
  -4  -9   4 66.9486 12.2459   3
  -9   4   4 43.8116  8.8474   1
  -9   5  -4 795.034  44.499   2
   5   9   4 851.666  38.103   1
  -5  -9   4 829.964  46.877   3
  -9   5   4 816.954  37.913   1
  -9   6  -4 -9.5703  5.6579   2
   6   9   4 1.68483 7.91126   1
  -6  -9   4 0.97840 9.93468   3
  -9   6   4 -2.8308  5.1964   1
  -9   7  -4 128.402  15.737   2
  -9   7   4 161.720  17.341   6
  -7  -9   4 137.750  15.294   3
  -9   7   4 135.829  12.193   1
   7   9   4 128.590  13.643   1
  -9   8  -4 118.999  17.891   2
  -8  -9   4 123.201  16.595   3
  -9   8   4 119.391  15.814   6
  -9   8   4 98.5954 12.6035   1
   8   9   4 122.607  13.933   1
  -8  -9   4 101.385  17.524   6
  -9   9  -4  6.3887 12.8495   2
   9   9   4  7.9365 10.0977   1
  -9  -9   4  9.0159 13.6070   6
  -9   9   4 0.97719 8.84826   1
  -9   9   4 12.4107 11.9398   6
  -9  -9   4  8.5994 11.4702   3
  -9  10  -4 50.8897 15.6878   2
  10   9   4 35.7598 11.9152   1
 -10  -9   4 48.4085 15.0831   6
 -10  -9   4 34.8753 13.3471   3
  -9  10   4 62.9177 14.3883   6
  -9  10   4 39.8778 10.8695   1
  -8  10  -4 25.1330 15.2554   2
  -8  10   4 26.5647  9.6764   1
 -10  -8   4 34.7318 13.9527   6
 -10  -8   4 24.8808  9.3411   3
  -8  10   4 28.1815 12.8047   6
  -7  10  -4  2.5986 13.6100   2
  -7  10   4 30.5477 12.0817   6
 -10  -7   4 13.8938 12.6802   6
  -7  10   4 6.73500 5.95984   1
  -6  10  -4 503.678  35.937   2
  -6  10   4 497.789  26.939   1
 -10  -6   4 495.146  33.996   6
  -5  10  -4 27.1536 14.6433   2
  -5  10   4 27.9700  8.4210   1
   5 -10   4 38.2354 12.0947   3
  -4  10  -4 25.0468 13.1211   2
  -4  10   4 52.7763  9.1296   1
   4 -10   4 52.3348 12.9253   3
  -3  10  -4  6.2584 11.3448   2
   3 -10   4 22.3923  8.6250   3
  -3  10   4 39.7240  8.3334   1
  -2  10  -4 16.8564 12.1154   2
   2 -10   4 37.6371 11.6756   3
  -2  10   4 44.9650  8.3661   1
  -1  10  -4 -2.3214  7.0700   2
   1 -10   4 1.58340 6.90979   3
  -1  10   4 -3.8051  6.2767   1
   0  10  -4 624.118  37.718   2
   0  10   4 592.538  29.028   1
 -10   0   4 587.272  29.801   1
   0 -10   4 621.632  37.851   3
   1  10  -4 3.73674 8.29002   2
   1  10   4 -1.7120  6.4476   1
  -1 -10   4 3.27697 6.91082   3
 -10   1   4 0.81387 5.19912   1
   2  10  -4 45.7919  9.8532   2
  -2 -10   4 48.1052  9.8988   3
 -10   2   4 37.8638  8.7909   1
   2  10   4 35.3744  8.1998   1
   3  10  -4 22.3170  7.5510   2
 -10   3  -4 36.0353  8.3293   2
  -3 -10   4 47.4975 12.0932   3
   3  10   4 39.7995  8.6652   1
 -10   3   4 31.2522  8.3915   1
 -10   4  -4 72.9864 11.0131   2
   4  10   4 57.9632  9.4806   1
  -4 -10   4 65.9193 12.9577   3
 -10   4   4 48.0886  9.6829   1
 -10   5  -4 27.7476  9.7713   2
 -10   5   4 33.5402  7.5152   1
   5  10   4 40.2976  9.4988   1
  -5 -10   4 36.7140  9.8596   3
 -10   5   4 41.0476 12.1526   6
 -10   6  -4 461.137  32.027   2
 -10   6   4 516.044  34.102   6
  -6 -10   4 520.261  34.444   3
   6  10   4 511.969  27.834   1
 -10   6   4 516.291  27.529   1
 -10   7  -4 11.3000 10.5450   2
   7  10   4 20.5407  9.7220   1
 -10   7   4 5.40318 8.91703   1
  -7 -10   4 16.2408 11.8602   3
 -10   7   4 14.5803 11.5213   6
 -10   8  -4 26.0563 12.1900   2
  -8 -10   4 15.3776 13.7300   6
 -10   8   4 21.6398  9.8436   1
  -8 -10   4 15.6517 12.0310   3
 -10   8   4 35.0615 12.6795   6
   8  10   4 17.7703 10.1924   1
 -10   9  -4 52.4357 14.2089   2
   9  10   4 53.6918  9.9287   1
 -10   9   4 85.8398 14.7756   6
 -10   9   4 53.6649 11.2354   1
  -9 -10   4 46.3336 15.3848   6
  -9 -10   4 23.3333 12.9034   3
 -10  10  -4 21.0531 10.2614   2
  10  10   4 34.1996 12.1078   1
 -10  10   4 16.7265  7.6753   1
 -10 -10   4 27.0910 12.8100   3
 -10 -10   4 56.6234 15.4290   6
 -10  10   4 46.2352 13.6407   6
 -10  11  -4 41.9363 11.5815   2
 -11 -10   4 64.5290 16.2087   6
  11  10   4 68.3966 13.7546   1
 -10  11   4 38.2770  8.8532   1
 -10  11   4 88.9896 15.0096   6
  -9  11  -4 357.315  31.909   2
 -11  -9   4 379.708  27.022   3
  -9  11   4 355.543  28.799   6
  -9  11   4 307.708  23.110   1
  11   9   4 318.334  25.017   1
  -8  11  -4 13.2277 14.8531   2
  -8  11   4 15.6738 12.6622   6
 -11  -8   4 14.6004 11.9479   3
  -8  11   4 12.4077 10.0284   1
 -11  -8   4 14.1736 13.2710   6
  -7  11  -4 116.363  20.739   2
 -11  -7   4 103.895  16.535   6
  -7  11   4 91.8783 11.0022   1
  -7  11   4 106.267  16.116   6
  -6  11  -4 29.7802 15.7632   2
  -6  11   4 40.0901 10.4216   1
 -11  -6   4 23.8616 13.0011   6
  -6  11   4 31.9551 12.5381   6
  -5  11  -4 19.1714 15.4851   2
 -11  -5   4  5.2993 11.6336   6
  -5  11   4 -5.9094  8.3285   1
   5 -11   4 -5.2294 10.7307   3
  -4  11  -4 258.624  28.817   2
 -11  -4   4 194.419  20.740   6
  -4  11   4 205.200  16.908   1
   4 -11   4 191.240  20.608   3
  -3  11  -4 921.238  58.365   2
  -3  11   4 1059.66   44.61   1
 -11  -3   4 1036.53   56.94   6
   3 -11   4 912.119  56.112   3
  -2  11  -4 105.853  18.926   2
  -2  11   4 164.376  13.730   1
 -11  -2   4 164.239  17.225   6
   2 -11   4 128.356  15.834   3
  -1  11  -4  6.1895 11.1255   2
   1 -11   4  4.3934 10.6907   3
 -11  -1   4 -2.6190 10.0737   6
  -1  11   4 1.18621 7.33433   1
   0  11  -4 -5.1379 10.3123   2
   0 -11   4 -13.010  10.023   3
   0  11   4 0.78790 7.54765   1
 -11   0   4  1.6365 10.1106   6
   1  11  -4 2.68573 6.66148   2
 -11   1   4 7.62156 6.02877   1
  -1 -11   4 -1.4315  7.7510   3
   1  11   4 1.88660 7.42329   1
 -11   1   4 13.5297 10.6264   6
   2  11  -4 141.114  16.012   2
  -2 -11   4 133.109  17.690   3
 -11   2   4 177.967  17.818   6
 -11   2   4 141.630  14.042   1
   2  11   4 158.611  13.554   1
 -11   3   4 1065.89   47.48   1
   3  11   4 1019.96   46.56   1
 -11   3   4 1062.38   59.49   6
  -3 -11   4 1010.57   57.07   3
 -11   4   4 237.262  22.319   6
 -11   4   4 227.468  16.174   1
   4  11   4 217.001  17.613   1
  -4 -11   4 202.629  21.080   3
   5  11   4 5.66821 8.87957   1
 -11   5   4 2.01074 9.18120   1
  -5 -11   4 17.3180 11.9017   3
 -11   5   4 27.4413 11.8432   6
 -11   6  -4 19.0510  9.8834   2
 -11   6   4 48.2101 13.5290   6
 -11   6   4 32.7449 10.0351   1
  -6 -11   4 28.5320  9.8037   3
   6  11   4 40.1440 10.8008   1
 -11   7  -4 91.0088 14.2583   2
 -11   7   4 111.407  15.436   6
  -7 -11   4 75.8739 16.7106   6
 -11   7   4 62.5825 11.8772   1
  -7 -11   4 99.4944 16.5347   3
   7  11   4 81.3907 13.2832   1
 -11   8  -4  6.6880 10.6322   2
   8  11   4  2.6744 10.4762   1
 -11   8   4 3.81121 9.54256   1
 -11   8   4 33.3630 12.9573   6
  -8 -11   4  0.8944 14.4879   6
  -8 -11   4 15.5484  9.3326   3
 -11   9  -4 248.150  24.544   2
  -9 -11   4 298.257  27.406   3
 -11   9   4 292.031  19.962   1
  -9 -11   4 334.358  29.722   6
 -11   9   4 399.135  30.207   6
   9  11   4 333.262  23.742   1
 -11  10  -4 49.2912 14.1705   2
  10  11   4 51.3118 13.1311   1
 -11  10   4 44.3994 11.0227   1
 -10 -11   4 55.0801 16.1046   6
 -11  10   4 78.6340 16.4504   6
  -9  12  -4 16.9913 10.6568   2
  -9  12   4 13.5151 15.5106   6
 -12  -9   4  8.2259 16.7677   6
  -8  12  -4 21.8036 11.4919   2
 -12  -8   4 12.6809 13.9346   6
  -8  12   4  1.6082 15.1506   6
  -8  12   4 2.46175 6.87243   1
  -7  12  -4 67.0579 18.1993   2
  -7  12   4 80.0312 15.6369   6
 -12  -7   4 104.307  16.820   6
  -7  12   4 69.2580 12.4572   1
  -6  12  -4 387.853  35.028   2
  -6  12   4 290.756  21.955   1
 -12  -6   4 320.777  28.133   6
  -6  12   4 318.388  27.687   6
  -5  12  -4 57.9289 14.6750   2
 -12  -5   4 71.0992 14.8417   6
   5 -12   4 48.8599 14.3510   3
  -5  12   4 53.8988 14.3081   6
  -5  12   4 64.3524 11.3739   1
  -4  12  -4 101.834  20.504   2
 -12  -4   4 130.928  17.311   6
  -4  12   4 165.882  15.245   1
   4 -12   4 108.238  15.847   3
  -3  12  -4  3.5019 14.2068   2
   3 -12   4 -0.2292 12.2050   3
  -3  12   4 -3.4690  8.3134   1
 -12  -3   4  7.0947 11.8079   6
  -2  12  -4 1.75186 8.78898   2
   2 -12   4  0.7057 11.4961   3
 -12  -2   4  5.6313 11.0863   6
  -2  12   4 7.34081 8.57969   1
  -1  12  -4 90.3400 17.6715   2
 -12  -1   4 92.8473 14.5975   6
   1 -12   4 92.3515 16.6073   3
  -1  12   4 77.3691 11.3557   1
   0  12  -4 486.691  35.221   2
 -12   0   4 526.733  34.278   6
   0 -12   4 426.784  34.773   3
   0  12   4 551.617  27.649   1
   1  12  -4 78.8225 14.3616   2
 -12   1   4 102.283  15.478   6
   1  12   4 95.1524 12.0082   1
  -1 -12   4 87.5154 13.9121   3
   2  12  -4 8.36647 9.01478   2
 -12   2   4 7.58302 9.35050   1
 -12   2   4 20.3312 11.8904   6
   2  12   4 13.4405  8.9315   1
  -2 -12   4 -1.7794 10.9584   3
 -12   3   4 -4.6811  6.6469   1
 -12   3   4 22.6214 12.2076   6
   3  12   4 -1.3111  8.8136   1
  -3 -12   4 7.91280 8.68548   3
   4  12   4 126.873  14.091   1
  -4 -12   4 117.162  15.854   3
 -12   4   4 167.419  15.968   1
 -12   4   4 150.025  20.210   6
 -12   5   4 49.9105  9.4388   1
 -12   5   4 83.6949 14.7900   6
   5  12   4 50.9925 11.7487   1
  -5 -12   4 58.1426 12.1541   3
  -6 -12   4 297.059  27.618   3
 -12   6   4 355.056  27.814   6
 -12   6   4 282.448  21.715   1
   6  12   4 306.780  22.149   1
  -6 -12   4 270.448  28.630   6
  -7 -12   4 70.4865 17.5625   6
 -12   7   4 58.7365 11.9891   1
 -12   7   4 82.6104 14.8105   6
   7  12   4 58.0416 12.4561   1
  -7 -12   4 74.8487 15.6279   3
 -12   8   4 1.25524 9.95133   1
 -12   8   4 35.5167 12.8688   6
  -8 -12   4 21.3409 18.4608   6
   8  12   4 -4.4632 10.9933   1
 -12   9   4 36.6072 12.1672   6
  -9 -12   4  1.1209 17.5282   6
  -8  13  -4 34.7207 16.8084   2
 -13  -8   4 26.7059 16.7876   6
  -8  13   4 18.2348 13.0209   6
  -7  13  -4 75.4724 18.5839   2
  -7  13   4 58.2488  9.7055   1
 -13  -7   4 109.268  16.554   6
  -7  13   4 93.3666 15.9698   6
  -6  13  -4 82.2676 16.1908   2
  -6  13   4 82.6927 13.1272   1
 -13  -6   4 79.7238 18.1452   6
  -6  13   4 58.0374 14.6170   6
  -5  13  -4 189.459  24.419   2
  -5  13   4 131.031  15.189   1
 -13  -5   4 214.315  21.004   6
  -5  13   4 191.833  20.086   6
  -4  13  -4 71.3465 19.4426   2
  -4  13   4 55.7787 14.2299   6
 -13  -4   4 69.4394 14.9814   6
  -4  13   4 49.5023 11.8699   1
   4 -13   4 50.3234 15.0787   3
  -3  13  -4 19.3638 15.7658   2
 -13  -3   4 22.0974 12.9342   6
  -3  13   4 20.5547 10.3219   1
  -3  13   4 15.4812 12.3594   6
   3 -13   4 24.8174 10.3784   3
  -2  13  -4 17.8912 14.6524   2
 -13  -2   4 68.6955 14.5187   6
   2 -13   4 40.2408 11.6314   3
  -2  13   4 35.0725 11.0634   1
  -2  13   4 44.0563 14.5411   6
  -1  13  -4 143.553  20.928   2
 -13  -1   4 209.588  20.269   6
  -1  13   4 165.498  14.355   1
   1 -13   4 145.192  20.538   3
   0  13  -4  4.9923 11.5925   2
   0  13   4 -2.8119  8.8567   1
 -13   0   4 22.4361 12.7946   6
   0 -13   4 -1.7683 12.4534   3
   1  13  -4 145.729  17.681   2
   1  13   4 151.961  14.974   1
 -13   1   4 155.672  18.315   6
  -1 -13   4 135.074  17.136   3
 -13   2   4 77.3221 14.6794   6
  -2 -13   4 68.3779 15.5628   3
   2  13   4 35.3230 10.8673   1
 -13   3   4 45.4916 16.1291   6
 -13   3   4 -2.7471  9.9199   1
   3  13   4 17.0989 10.1767   1
  -3 -13   4  7.2728 12.8315   3
 -13   4   4 53.1130 11.9422   1
   4  13   4 62.6829 12.3599   1
  -4 -13   4 39.3027 16.0121   6
 -13   4   4 87.7572 15.4398   6
  -4 -13   4 69.1498 16.0073   3
   5  13   4 153.290  15.991   1
  -5 -13   4 152.731  21.095   3
 -13   5   4 204.296  20.010   6
 -13   5   4 181.139  17.633   1
  -5 -13   4 158.470  21.550   6
 -13   6   4 61.0573 13.0142   1
   6  13   4 70.8797 13.2392   1
 -13   6   4 103.318  15.758   6
  -6 -13   4 64.2953 17.6623   6
   7  13   4 87.7580 13.9704   1
 -13   7   4 120.211  16.447   6
 -13   7   4 99.6926 14.3843   1
  -7 -13   4 96.3561 18.9574   6
  -8 -13   4  9.6779 18.7095   6
 -13   8   4 43.1244 12.7252   6
  -6  14  -4 59.4202 17.4930   2
 -14  -6   4 68.1040 14.6924   6
  -6  14   4 39.2279 14.3144   6
  -5  14  -4 88.8117 20.0189   2
  -5  14   4 45.3209 11.6410   1
 -14  -5   4 79.7145 17.5729   6
  -5  14   4 64.2457 15.3981   6
  -4  14  -4 159.715  23.297   2
  -4  14   4 125.184  17.706   6
 -14  -4   4 144.581  18.418   6
  -4  14   4 129.130  15.290   1
  -3  14  -4  6.4444 14.4587   2
  -3  14   4 11.2811  7.6936   1
  -3  14   4 15.9186 13.0482   6
  -2  14  -4 441.537  36.123   2
  -2  14   4 432.054  27.033   1
  -2  14   4 471.364  33.873   6
  -1  14  -4 135.388  17.941   2
  -1  14   4 175.632  19.569   6
 -14  -1   4 255.087  23.477   6
  -1  14   4 153.579  16.195   1
   1 -14   4 115.154  17.301   3
   0  14  -4 72.4084 15.3364   2
   0 -14   4 85.4226 17.8105   3
 -14   0   4 119.110  17.400   6
   0  14   4 100.457  15.877   6
   0  14   4 125.387  14.629   1
   1  14  -4 136.213  18.903   2
  -1 -14   4 77.2715 19.4662   6
   1  14   4 170.346  18.061   6
  -1 -14   4 120.208  17.170   3
 -14   1   4 187.250  19.591   6
   1  14   4 187.214  16.768   1
   2  14   4 402.970  32.794   6
  -2 -14   4 382.219  33.906   6
   2  14   4 418.669  25.771   1
  -3 -14   4  4.4682 15.1218   6
   3  14   4 24.7127 11.0730   1
   3  14   4 -1.3529 12.2234   6
 -14   3   4 44.6285 13.5793   6
   4  14   4 113.075  17.374   6
   4  14   4 121.977  15.103   1
  -4 -14   4 158.176  21.703   6
 -14   4   4 85.3390 11.9389   1
 -14   4   4 179.461  20.886   6
   5  14   4 83.3976 13.2318   1
  -5 -14   4 72.8406 18.2868   6
 -14   5   4 68.5710 13.0404   1
 -14   5   4 110.670  17.898   6
   5  14   4 51.5496 14.5364   6
 -14   6   4 81.9116 13.9932   6
   6  14   4 42.5407 13.9045   6
  -6 -14   4 37.9298 19.8061   6
   3 -15   4 26.8583 18.1864   6
  -3  15   4 27.7119 13.2099   6
 -15  -3   4 45.7945 16.3547   6
  -2  15  -4 21.5153 13.7353   2
  -2  15   4 25.5868 12.9077   6
   2 -15   4  5.0351 14.8973   6
  -1  15  -4 99.6217 15.2815   2
   1 -15   4 108.877  19.353   6
   0  15  -4  3.6420 10.9602   2
 -15   0   4 18.7548 12.5081   6
   0 -15   4 -16.186  14.696   6
  -1 -15   4 50.3991 20.6781   6
 -15   1   4 130.299  16.898   6
   1  15   4 115.637  16.723   6
 -15   2   4 49.1949 13.4947   6
  -2 -15   4  1.1186 15.6388   6
   2  15   4 26.2617 13.0510   6
   3  15   4 10.9183 12.7911   6
  -3 -15   4 -1.0162 15.7923   6
 -15   3   4 41.5432 13.0936   6
   0   0  -5 -0.1780  4.1468   2
   0  -1  -5 -0.7398  2.9086   2
  -1   0  -5 -0.5949  2.8771   2
   0   1  -5 -0.9310  2.8977   2
   1   0  -5 0.40796 4.01265   2
  -1   0   5 4.39438 1.44964   1
  -1   0   5 0.16486 0.95633   4
  -1   0   5 0.52865 0.87673   4
   1  -1  -5 -1.8692  3.8172   2
  -1   1  -5 -1.8754  4.1427   2
  -1  -1  -5 -3.0718  4.0681   2
   1   1  -5 -5.2520  3.6084   2
  -1  -1   5 -0.3542  1.4721   1
  -1   1   5 0.88217 1.61887   1
  -1  -1   5 1.30429 1.14997   4
  -1   1   5 -0.5259  1.0578   4
  -1  -1   5 0.79794 1.01370   4
  -1   2  -5 1635.87   74.09   2
   1  -2  -5 1816.61   73.83   2
   2   1  -5 1508.83   72.97   2
  -2  -1  -5 1578.64   73.58   2
  -1   2   5 1559.88   56.81   4
  -2  -1   5 1612.28   56.94   4
  -2  -1   5 1529.74   62.13   1
   1  -2   5 1510.51   56.32   4
  -1   2   5 1537.46   62.08   1
   1  -2   5 1617.41   56.45   4
  -2  -1   5 1653.95   56.99   4
   0   2  -5 15.1724  5.2318   2
   2   0  -5 9.54641 4.30727   2
   0  -2  -5 6.07730 4.84395   2
  -2   0  -5 8.73044 3.78762   2
   0  -2   5 8.47531 1.05004   4
   0   2   5 7.34904 1.40489   4
  -2   0   5 11.7170  2.2762   1
   2   0   5 7.21885 2.39518   3
   0   2   5 10.2123  1.7674   1
   0  -2   5 9.64186 1.33180   4
  -2   0   5 10.4488  1.7706   4
   1   2  -5 1633.57   74.42   2
  -2   1  -5 1704.16   74.94   2
   2  -1  -5 1731.02   74.17   2
  -1  -2  -5 1598.42   74.17   2
  -2   1   5 1511.90   62.87   1
   1   2   5 1627.26   57.10   4
  -1  -2   5 1554.54   57.37   4
  -2   1   5 1551.73   57.66   4
  -1  -2   5 1546.31   57.33   4
   2  -1   5 1684.41   76.40   3
   1   2   5 1613.96   62.54   1
   2   2  -5 2.51359 4.00716   2
  -2  -2  -5 -1.5981  4.3448   2
  -2   2  -5 0.28760 4.66746   2
  -2   2   5 0.41066 2.34684   1
   2  -2   5 -0.8302  3.1324   3
  -2  -2   5 -1.4567  1.5115   4
   2  -2   5 1.61110 1.14206   4
  -2   2   5 0.77980 1.55334   4
   2   2   5 -0.2634  1.0549   4
  -2  -2   5 -0.2138  1.9453   4
   2  -2   5 -1.3874  0.8394   4
  -3  -2  -5 85.4935  8.6688   2
  -2   3  -5 90.2821  9.5029   2
   3   2  -5 88.4232  8.2842   2
  -3  -2   5 75.6891  5.0029   4
   2  -3   5 77.2050  3.9599   4
   2  -3   5 80.1543  4.4978   4
   2  -3   5 87.7101  8.3597   3
  -2   3   5 80.6229  4.9068   4
  -2   3   5 72.1377  6.0495   1
  -3  -2   5 82.3090  4.8130   4
   3   2   5 83.4848  4.1311   4
   3   1  -5 10.0295  4.3248   2
  -1   3  -5 6.73242 4.99118   2
  -3  -1  -5 9.10747 4.98132   2
  -1   3   5 7.95570 1.80907   4
  -3  -1   5 10.1189  2.9986   1
   1  -3   5 10.3001  1.8772   4
  -1   3   5 6.33399 2.52820   1
   1  -3   5 16.3968  4.9198   3
   3   1   5 8.91794 1.17628   4
   1  -3   5 9.90652 1.48255   4
  -3  -1   5 8.57193 2.02470   4
  -3   0  -5 0.24914 4.57412   2
   3   0  -5 0.11938 2.71154   2
   0   3  -5 0.55072 2.97642   2
   0  -3   5 2.13370 1.41048   4
   0  -3   5 0.88794 1.22668   4
   3   0   5 1.64604 0.86486   4
  -3   0   5 0.11188 2.09297   4
   0   3   5 -0.1457  1.6764   4
   0   3   5 -0.9803  1.9736   1
  -3   0   5 2.94291 2.67810   1
   1   3  -5 8.29530 4.89904   2
  -3   1  -5 5.32876 5.11902   2
   1   3   5 12.7890  1.7908   4
  -1  -3   5 8.89261 1.90294   4
   3  -1   5 8.34883 2.70675   3
   1   3   5 8.43602 2.39598   1
   1   3   5 10.7443  1.9282   4
   3  -1   5 6.88734 1.23654   4
  -3   1   5 9.27525 2.13924   4
  -1  -3   5 7.84713 1.51383   4
  -3   1   5 11.7770  3.1029   1
  -2  -3  -5 88.7089  8.1170   2
   2   3  -5 88.2383  7.7936   2
  -3   2  -5 78.8591  9.0709   2
  -3   2   5 78.0388  5.7974   1
   2   3   5 80.5802  4.2958   4
   2   3   5 77.1951  4.2681   4
  -2  -3   5 75.7770  4.8372   4
  -3   2   5 77.2475  5.0566   4
   3  -2   5 76.4817  6.7871   3
  -2  -3   5 79.0727  4.7317   4
   3  -2   5 77.9176  4.1092   4
  -3   3  -5 -0.5255  4.9666   2
  -3  -3  -5 -0.6951  4.7151   2
   3   3  -5 -7.2413  3.5476   2
  -3   3   5 1.83993 2.29815   4
  -3  -3   5 0.74475 1.84749   4
   3  -3   5 8.59141 1.88253   4
   3  -3   5 -0.5204  3.6414   3
   3   3   5 -0.6239  1.6906   4
  -3   3   5 2.00097 2.83121   1
  -3  -3   5 -2.2519  2.2193   4
   3   3   5 1.45335 1.71302   4
   3  -3   5 0.42959 1.60659   4
  -4  -3  -5 92.1664  9.1611   2
  -3   4  -5 109.722  10.777   2
   4   3  -5 87.2579  8.3187   2
  -3   4   5 100.812   7.992   1
   3  -4   5 91.3668  5.5439   4
   3  -4   5 93.3304  9.0512   3
  -3   4   5 86.9079  6.1880   4
  -4  -3   5 89.4317  5.8012   4
   4   3   5 92.2167  5.1317   4
   4   2  -5 39.8717  5.7639   2
  -4  -2  -5 38.8016  6.5134   2
  -2   4  -5 34.1006  7.2148   2
   2  -4   5 42.4592  3.4492   4
  -2   4   5 40.0741  4.4818   1
  -2   4   5 40.3736  3.6819   4
   2  -4   5 38.7837  2.9849   4
   4   2   5 40.4435  3.0718   4
   2  -4   5 39.4796  6.5944   3
  -4  -2   5 31.0727  3.4555   4
  -1   4  -5 2278.55  103.71   2
  -4  -1  -5 2229.81  102.80   2
   4   1  -5 2303.67  101.89   2
   1  -4   5 2298.77   80.78   4
  -4  -1   5 2241.78   88.58   1
   1  -4   5 2434.14  108.35   3
  -1   4   5 2252.35   88.32   1
   1  -4   5 2221.55   80.56   4
  -4  -1   5 2203.18   81.12   4
   4   1   5 2191.15   80.31   4
  -1   4   5 2208.75   80.85   4
   0   4  -5 119.867  11.189   2
  -4   0  -5 123.153  11.004   2
  -4   0   5 108.340   6.398   4
   0   4   5 112.070   6.001   4
  -4   0   5 122.517   7.930   1
   4   0   5 116.962   5.394   4
   0  -4   5 111.082   5.587   4
   0   4   5 117.134   7.276   1
   0  -4   5 126.043   6.125   4
   0  -4   5 134.801  10.351   3
  -4   1  -5 2374.01  103.81   2
   1   4  -5 2261.94  103.39   2
  -4   1   5 2254.74   81.54   4
   4  -1   5 2198.17   80.55   4
  -1  -4   5 2121.71   80.85   4
   1   4   5 2309.89   88.44   1
   1   4   5 2263.51   80.97   4
  -4   1   5 2336.56   88.92   1
   1   4   5 2277.65   80.98   4
  -1  -4   5 2271.19   81.12   4
   2   4  -5 42.0521  6.8777   2
  -4   2  -5 40.3439  7.3203   2
  -4   2   5 38.1214  4.7347   1
   4  -2   5 43.0348  3.2423   4
  -2  -4   5 35.2122  3.6491   4
  -2  -4   5 38.5829  3.2814   4
  -4   2   5 36.9618  3.8571   4
   2   4   5 44.8366  4.7076   1
   2   4   5 35.5613  3.3320   4
   2   4   5 41.7031  3.2623   4
  -4   3  -5 89.2759  9.5515   2
   3   4  -5 90.8888  9.0158   2
   4  -3   5 93.1994  8.1868   3
   3   4   5 88.8460  5.5103   4
   4  -3   5 93.9122  5.3673   4
  -4   3   5 94.9867  5.7999   4
  -3  -4   5 78.6020  5.4667   4
  -4   3   5 105.341   7.567   1
   4   4  -5 -1.5816  3.6612   2
  -4   4  -5 -3.8093  6.0011   2
   4  -4   5 2.69663 4.39727   3
  -4   4   5 -4.0030  3.5902   1
  -4   4   5 -1.1443  2.8290   4
  -4  -4   5 -0.3510  2.2606   4
  -4   5  -5 774.302  38.728   2
   5   4  -5 675.805  34.307   2
   4  -5   5 661.572  37.372   3
  -4   5   5 743.010  31.049   1
  -3   5  -5 89.0230 11.4716   2
   5   3  -5 94.6260  8.2522   2
  -5  -3  -5 116.607  10.615   2
  -3   5   5 107.341   8.359   1
   3  -5   5 106.232  10.559   3
  -5  -2  -5 367.830  20.944   2
  -2   5  -5 361.789  22.960   2
   5   2  -5 402.061  19.937   2
   2  -5   5 386.691  21.864   3
  -2   5   5 381.159  17.366   1
  -5  -2   5 354.972  15.284   4
  -2   5   5 368.133  15.511   4
   5   2   5 350.327  14.704   4
  -1   5  -5 37.6330  7.6421   2
  -5  -1  -5 34.4399  6.5596   2
  -5  -1   5 32.4969  3.8169   4
  -5  -1   5 37.5592  4.9177   1
  -1   5   5 33.2033  3.5419   4
  -1   5   5 44.4177  4.7567   1
   1  -5   5 34.4760  6.0575   3
   5   1   5 29.1463  3.0715   4
   0   5  -5 0.00189 5.20576   2
  -5   0  -5 3.97455 5.07322   2
   5   0   5 -1.3608  1.5052   4
  -5   0   5 -3.6661  2.4350   4
   0  -5   5 -0.6064  1.6758   4
   0   5   5 2.47948 3.51285   1
  -5   0   5 -2.5263  3.3222   1
   0  -5   5 -0.3855  5.7256   3
   0   5   5 -0.3520  2.3140   4
  -5   1  -5 29.7589  6.8758   2
   1   5  -5 39.5405  7.1169   2
  -1  -5   5 34.0948  7.6644   3
  -5   1   5 36.1002  4.9429   1
  -1  -5   5 29.2199  3.0931   4
   5  -1   5 34.8887  3.1894   4
   1   5   5 31.7823  3.5136   4
   1   5   5 37.9849  4.5030   1
  -5   1   5 30.8792  3.8798   4
  -5   2  -5 389.118  22.684   2
   2   5  -5 370.956  21.497   2
  -5   2   5 382.418  17.991   1
   5  -2   5 368.664  15.127   4
   2   5   5 382.868  17.393   1
  -5   2   5 375.850  16.166   4
   3   5  -5 91.7258  9.5542   2
  -5   3  -5 104.262  10.676   2
  -5   3   5 100.221   7.120   4
  -5   3   5 112.823   8.862   1
   3   5   5 108.402   8.271   1
  -5   4  -5 695.783  38.984   2
  -5   4   5 762.817  32.162   1
   5   5  -5 -1.8735  3.7473   2
  -5   5  -5 -1.5157  5.2563   2
   5  -5   5 1.26234 5.27047   3
  -5   5   5 2.77337 4.96256   1
  -5   6  -5 184.609  18.598   2
  -5   6   5 186.628  12.742   1
   5  -6   5 146.938  13.113   3
  -4   6  -5 20.9565  9.0266   2
  -4   6   5 5.53257 4.91769   1
   4  -6   5 4.62438 6.71059   3
  -3   6  -5 26.5469  8.7567   2
  -6  -3  -5 26.5641  6.3661   2
   6   3  -5 24.7641  5.2784   2
  -3   6   5 20.7802  5.2068   1
   3  -6   5 19.5874  7.2419   3
  -2   6  -5 57.5561 10.4659   2
  -6  -2  -5 64.3747  7.9416   2
   2  -6   5 63.4517  9.4861   3
  -2   6   5 55.0090  6.7454   1
  -6  -1  -5 344.836  21.127   2
  -1   6  -5 371.918  22.810   2
  -1   6   5 377.830  17.705   1
   1  -6   5 392.418  22.947   3
  -6  -1   5 376.390  18.293   1
  -6   0  -5 113.212   9.828   2
   0   6  -5 111.290  11.019   2
   0  -6   5 103.176  10.816   3
  -6   0   5 107.057   8.575   1
  -6   0   5 106.813   7.295   4
   0   6   5 107.064   8.029   1
   1   6  -5 368.388  22.975   2
  -6   1  -5 382.500  22.858   2
   1   6   5 410.867  18.377   1
  -6   1   5 382.500  18.885   1
  -1  -6   5 402.780  24.913   3
  -6   2  -5 52.8281  8.9358   2
   2   6  -5 46.5690  7.7543   2
  -6   2   5 55.9895  6.7293   1
   2   6   5 64.9165  6.7910   1
  -2  -6   5 47.1098  8.2338   3
  -6   3  -5 24.7813  7.7065   2
   3   6  -5 19.7450  5.7933   2
   3   6   5 19.7882  5.1349   1
  -6   3   5 26.7335  5.8520   1
   4   6  -5 10.1594  5.0491   2
  -6   4  -5 8.07333 7.63095   2
  -6   4   5 12.1909  5.6036   1
   4   6   5 13.5487  6.3600   1
  -6   5  -5 195.582  18.311   2
  -6   5   5 165.100  12.865   1
  -6   6  -5 -3.1756  8.8175   2
  -6   6   5 -2.7357  5.9198   1
  -6   7  -5 245.671  24.182   2
  -6   7   5 256.590  16.669   1
  -5   7  -5 143.114  17.933   2
   5  -7   5 131.071  13.612   3
  -5   7   5 119.231  10.849   1
  -4   7  -5 1130.43   60.14   2
  -4   7   5 1163.04   47.86   1
   4  -7   5 1074.55   58.32   3
  -7  -3  -5 137.645  12.014   2
  -3   7  -5 135.014  16.382   2
  -3   7   5 142.681  11.061   1
   3  -7   5 129.391  13.974   3
  -7  -2  -5 704.449  37.594   2
  -2   7  -5 767.356  41.818   2
  -2   7   5 801.171  33.370   1
   2  -7   5 770.175  41.975   3
  -7  -1  -5 18.2222  5.9644   2
  -1   7  -5 24.6882  8.3786   2
  -7  -1   5 13.6981  5.7196   1
  -1   7   5 15.2671  5.7453   1
   1  -7   5 20.1471  6.5308   3
  -7   0  -5 1.44314 5.42579   2
   0   7  -5 4.70982 6.69281   2
  -7   0   5 -0.1498  4.8384   1
   0   7   5 1.72308 5.22391   1
   0  -7   5 3.51558 7.32583   3
   1   7  -5 12.1703  6.8494   2
  -7   1  -5 21.8075  6.6462   2
  -1  -7   5 14.5191  8.1716   3
   1   7   5 17.0284  5.8008   1
  -7   1   5 16.4006  5.6863   1
   2   7  -5 774.193  40.596   2
  -7   2  -5 767.568  41.038   2
   2   7   5 808.342  34.564   1
  -2  -7   5 821.450  44.118   3
  -7   2   5 810.427  35.194   1
  -7   3  -5 152.687  14.502   2
   3   7  -5 135.337  12.288   2
   3   7   5 140.876  11.091   1
  -3  -7   5 144.884  14.074   3
  -7   3   5 143.526  11.236   1
  -7   4  -5 1133.88   58.93   2
   4   7  -5 1182.65   56.50   2
   4   7   5 1182.73   49.61   1
  -4  -7   5 1205.84   62.01   3
  -7   4   5 1161.82   49.85   1
  -7   5  -5 145.580  15.051   2
   5   7   5 141.435  11.565   1
  -5  -7   5 147.022  15.967   3
  -7   5   5 127.425  11.564   1
  -7   6  -5 258.890  23.183   2
   6   7   5 265.974  17.263   1
  -7   6   5 254.949  17.010   1
  -7   7  -5 -9.6680 10.4550   2
  -7   7   5 -1.9984  6.9045   1
  -7   8  -5 61.7349 13.4586   2
  -7   8   5 85.3901 10.9850   1
  -6   8  -5 41.3137 14.6966   2
  -6   8   5 54.3846  9.5111   1
   6  -8   5 36.5478 10.3255   3
  -5   8  -5 30.1373 10.7325   2
  -5   8   5 44.0345  8.4396   1
   5  -8   5 41.2187 10.3960   3
  -4   8  -5 51.2553 11.9166   2
  -4   8   5 62.3497  8.4880   1
   4  -8   5 45.3342 10.5497   3
  -3   8  -5 10.1342  8.2611   2
   3  -8   5 5.80453 8.62014   3
  -3   8   5 -4.1128  5.5010   1
  -2   8  -5 3.98190 9.75364   2
  -8  -2  -5 -5.6679  4.8358   2
   2  -8   5 -11.569   7.911   3
  -2   8   5 2.85963 5.32397   1
  -1   8  -5 228.465  18.566   2
  -8  -1  -5 205.305  14.907   2
  -8  -1   5 211.845  14.724   1
  -1   8   5 220.238  13.725   1
   1  -8   5 201.516  17.147   3
  -8   0  -5 26.2268  7.0302   2
   0   8  -5 46.3197 10.2828   2
  -8   0   5 36.1178  6.0858   1
   0   8   5 35.0396  6.5271   1
   0  -8   5 24.0074  9.8217   3
  -8   1  -5 229.623  16.571   2
   1   8  -5 211.495  17.937   2
  -1  -8   5 215.303  17.478   3
   1   8   5 212.573  13.754   1
  -8   1   5 210.717  14.788   1
  -8   2  -5 2.72783 6.63953   2
   2   8  -5 4.57616 6.56518   2
   2   8   5 2.21096 5.47479   1
  -2  -8   5 0.36904 5.96928   3
  -8   2   5 1.29495 6.07835   1
  -8   3  -5 6.83472 7.40918   2
   3   8  -5 9.98568 6.12234   2
   3   8   5 7.16094 5.90226   1
  -3  -8   5 8.22601 9.27581   3
  -8   3   5 -1.2889  6.1517   1
   4   8  -5 38.9346  7.4741   2
  -8   4  -5 47.7282 10.8473   2
  -8   4   5 67.1425  9.2008   1
   4   8   5 57.7307  8.5233   1
  -4  -8   5 47.8633  9.7123   3
  -8   5  -5 51.7467 10.0101   2
   5   8   5 43.0505  8.3582   1
  -8   5   5 46.5167  8.4776   1
  -5  -8   5 40.3735  9.4392   3
  -8   6  -5 31.0549 12.1164   2
   6   8   5 61.8254  9.7755   1
  -8   6   5 36.4869  8.8059   1
  -6  -8   5 38.2496  9.5704   3
  -8   7  -5 52.2115 14.5013   2
   7   8   5 75.9168 11.2405   1
  -8   7   5 56.1696 10.1389   1
  -7  -8   5 70.7098 14.3828   3
  -8   8  -5  9.1484 12.9036   2
  -8   8   5 -5.7722  7.9023   1
  -8  -8   5 0.70046 7.91210   3
   8   8   5 -5.2146  8.6352   1
  -8   9  -5 48.6062 16.8830   2
   9   8   5 45.1669 11.2209   1
  -8   9   5 42.7658 10.2846   1
  -9  -8   5 45.1588 11.1777   3
  -7   9  -5 58.2600 17.6689   2
  -7   9   5 63.6164  9.0639   1
  -6   9  -5  8.8048 10.6611   2
  -6   9   5 20.3417  8.3537   1
  -5   9  -5 59.6630 16.4803   2
  -5   9   5 121.330  11.933   1
   5  -9   5 97.1466 14.0692   3
  -4   9  -5 303.071  30.120   2
   4  -9   5 275.463  23.697   3
  -4   9   5 308.057  18.738   1
  -3   9  -5 47.9342 14.9868   2
   3  -9   5 37.0397 11.2675   3
  -3   9   5 38.5605  6.5944   1
  -2   9  -5 319.699  28.465   2
  -2   9   5 356.052  19.506   1
   2  -9   5 340.099  25.687   3
  -1   9  -5 -1.8044  9.7220   2
  -1   9   5 0.42109 5.98399   1
   1  -9   5 10.2890  9.6788   3
  -9   0  -5 0.79456 5.47232   2
   0   9  -5 -4.4432  8.4440   2
   0  -9   5 -8.5090  8.7755   3
  -9   0   5 1.00203 6.97462   1
   0   9   5 -1.6642  5.9702   1
  -9   1  -5 -0.7261  6.1515   2
   1   9  -5 0.11338 7.92194   2
   1   9   5 5.31427 6.05605   1
  -9   1   5 -0.4717  7.1052   1
  -1  -9   5 -2.6942  9.1866   3
   2   9  -5 361.029  24.046   2
  -9   2  -5 369.283  23.515   2
   2   9   5 370.233  20.256   1
  -2  -9   5 381.394  27.265   3
  -9   2   5 352.787  21.067   1
   3   9  -5 48.7017  8.8654   2
  -9   3  -5 46.0406  9.8568   2
  -9   3   5 40.1271  7.0231   1
   3   9   5 44.1344  8.1272   1
  -3  -9   5 37.3104  9.3886   3
  -9   4  -5 269.069  22.502   2
  -9   4   5 319.219  18.242   1
  -4  -9   5 312.164  25.325   3
   4   9   5 343.676  19.553   1
  -9   5  -5 121.838  15.421   2
   5   9   5 118.962  12.513   1
  -9   5   5 103.097  11.836   1
  -5  -9   5 119.646  16.494   3
  -9   6  -5  5.2500 10.3539   2
   6   9   5 27.0478  8.8967   1
  -6  -9   5  8.3763 11.2219   3
  -9   6   5 27.8104  8.7637   1
  -9   7  -5 49.3194 14.1290   2
  -9   7   5 50.8080 10.1931   1
  -7  -9   5 67.7180 12.1706   3
   7   9   5 73.3182 11.5560   1
  -9   8  -5 44.0115 14.9124   2
  -8  -9   5 39.4357 13.5177   3
  -9   8   5 42.3875  8.3474   1
   8   9   5 44.6617 11.1743   1
  -9   9  -5 -0.9248 13.2138   2
  -9   9   5 3.16382 8.82570   1
   9   9   5 10.4474 10.7207   1
  -9  -9   5  9.6522 12.6096   3
  -9  10  -5 106.766  20.243   2
  -9  10   5 113.737  14.165   1
 -10  -9   5 135.627  18.554   3
  10   9   5 114.985  14.999   1
  -8  10  -5 36.6301 17.4754   2
 -10  -8   5 35.0370 10.7813   3
  -8  10   5 50.0591 11.0167   1
  -7  10  -5 408.368  36.764   2
  -7  10   5 422.057  25.059   1
  -6  10  -5 119.555  22.032   2
  -6  10   5 146.303  14.142   1
  -5  10  -5 153.469  23.952   2
   5 -10   5 136.430  17.032   3
  -5  10   5 156.900  14.210   1
  -4  10  -5  2.2275 13.0799   2
   4 -10   5 56.3184 12.6835   3
  -4  10   5 61.1205 10.0471   1
  -3  10  -5 31.0516 14.7103   2
   3 -10   5 30.8744 12.2837   3
  -3  10   5 60.0927  9.7697   1
  -2  10  -5 54.0524 15.5693   2
   2 -10   5 73.9229 12.0447   3
  -2  10   5 91.9788 10.9299   1
  -1  10  -5 605.964  38.712   2
   1 -10   5 521.800  36.116   3
  -1  10   5 575.726  28.317   1
   0  10  -5 360.074  27.030   2
   0 -10   5 299.525  25.963   3
 -10   0   5 315.998  20.354   1
   0  10   5 312.945  19.416   1
   1  10  -5 552.444  33.936   2
   1  10   5 554.842  27.293   1
  -1 -10   5 500.178  34.907   3
 -10   1   5 529.046  27.979   1
   2  10  -5 68.0203 11.5042   2
 -10   2   5 66.2897 10.5982   1
  -2 -10   5 73.0555 13.8478   3
   2  10   5 78.4175 10.1190   1
 -10   3  -5 40.2671  9.7224   2
   3  10  -5 38.3131  8.9478   2
 -10   3   5 47.1400 10.0453   1
  -3 -10   5 45.5302 12.5286   3
   3  10   5 53.8012  9.3782   1
 -10   4  -5 51.1099 10.4903   2
 -10   4   5 39.6136  9.6453   1
   4  10   5 48.1475  9.4950   1
  -4 -10   5 30.6988  9.7240   3
 -10   5  -5 170.929  17.670   2
   5  10   5 159.331  14.312   1
 -10   5   5 116.835  13.339   1
  -5 -10   5 161.288  17.113   3
 -10   6  -5 125.838  15.281   2
 -10   6   5 143.081  14.453   1
   6  10   5 150.058  14.559   1
  -6 -10   5 137.231  16.250   3
 -10   7  -5 364.602  27.625   2
 -10   7   5 414.929  24.508   1
   7  10   5 395.020  22.902   1
  -7 -10   5 397.748  31.019   3
 -10   8  -5 45.9549 14.2997   2
  -8 -10   5 40.3412 14.0265   3
 -10   8   5 30.8855 10.2911   1
   8  10   5 37.6448  8.9295   1
 -10   9  -5 83.6501 17.2790   2
  -9 -10   5 102.984  15.434   3
 -10   9   5 134.082  17.616   6
 -10   9   5 124.024  14.374   1
   9  10   5 114.949  14.995   1
 -10  10  -5 10.2898 13.4449   2
  10  10   5 -5.5192 10.0388   1
 -10  10   5 6.01394 9.60260   1
 -10 -10   5  8.1122 17.4692   6
 -10  10   5 14.6277 12.7497   6
  -9  11  -5 55.7699 17.2370   2
  -9  11   5 61.1724 15.0364   6
 -11  -9   5 43.6059 15.7194   6
  -8  11  -5  4.6560 14.9691   2
  -8  11   5 16.5888 10.0493   1
 -11  -8   5  9.1749 14.4454   6
  -7  11  -5 40.1918 18.5422   2
  -7  11   5 40.7113  8.5561   1
  -6  11  -5 32.9271 17.4713   2
  -6  11   5 41.3293 10.6974   1
  -5  11  -5 -8.8394 14.2284   2
  -5  11   5 8.45249 9.05614   1
   5 -11   5 -0.3332 10.6238   3
  -4  11  -5 -13.635  12.426   2
  -4  11   5 19.1014  9.1094   1
   4 -11   5 13.6121 11.4137   3
  -3  11  -5 -9.0658 12.7604   2
  -3  11   5 6.48061 8.24630   1
   3 -11   5 1.67821 7.78310   3
  -2  11  -5  7.6756 12.9766   2
   2 -11   5  3.7878 11.1873   3
  -2  11   5 6.49573 8.11947   1
  -1  11  -5 -5.4217 11.6982   2
  -1  11   5 -3.7074  7.6606   1
   1 -11   5  9.7943 11.2894   3
   0  11  -5 -14.327  10.091   2
   0 -11   5  5.5681 11.1303   3
   0  11   5 1.73290 5.55576   1
   1  11  -5 10.7760  9.8507   2
 -11   1   5 -11.279   8.285   1
  -1 -11   5 -1.5302 10.9419   3
   1  11   5 7.33484 8.06935   1
   2  11  -5 0.17209 8.25484   2
  -2 -11   5 -6.6375  7.5234   3
   2  11   5 -6.8083  7.6852   1
 -11   2   5 -5.5308  8.5313   1
  -3 -11   5 -4.8758 10.9872   3
 -11   3   5 -2.5851  8.8097   1
   3  11   5 0.76329 5.71554   1
 -11   4   5 20.1324  9.5931   1
  -4 -11   5  4.6877 11.7892   3
   4  11   5 9.79558 6.47398   1
   5  11   5 4.98190 9.17145   1
  -5 -11   5 -1.1933 11.1919   3
 -11   5   5 -7.8857  8.8422   1
 -11   6  -5 18.7686 10.7633   2
   6  11   5 16.7754 10.1292   1
 -11   6   5 26.8300  7.9015   1
  -6 -11   5 -1.5374 12.2369   3
 -11   7  -5 38.6455 12.6947   2
   7  11   5 46.2386 11.4290   1
 -11   7   5 18.5795  7.3484   1
  -7 -11   5 28.5573 10.5405   3
 -11   8  -5  6.2629 11.2394   2
   8  11   5  7.8093 10.8267   1
 -11   8   5 35.2149 13.1399   6
 -11   8   5 9.23911 9.64913   1
 -11   9  -5 38.5734 13.5077   2
 -11   9   5 90.5548 14.8818   6
  -9 -11   5 66.0319 17.0589   6
 -11   9   5 42.3949 10.9844   1
   9  11   5 66.6579 12.7948   1
  -8  12  -5 124.080  21.819   2
  -8  12   5 86.9648 18.6137   6
 -12  -8   5 83.1563 16.9340   6
  -7  12  -5 207.690  26.720   2
 -12  -7   5 178.206  23.106   6
  -7  12   5 186.653  17.380   1
  -6  12  -5 50.9351 14.9118   2
  -6  12   5 49.1964 11.1368   1
 -12  -6   5 53.4319 15.1108   6
  -5  12  -5 51.1836 19.3075   2
   5 -12   5 41.9241 13.4920   3
  -5  12   5 61.5990 11.9085   1
  -4  12  -5 -6.6700 15.3483   2
   4 -12   5 25.5404 12.8040   3
  -4  12   5 -0.2484  9.1915   1
  -3  12  -5 12.0328 15.3833   2
  -3  12   5 30.7264  7.9917   1
   3 -12   5 24.4663 13.0685   3
  -2  12  -5 59.1601 14.2930   2
  -2  12   5 80.6437 12.2257   1
   2 -12   5 68.8223 12.9803   3
  -1  12  -5 186.516  23.809   2
   1 -12   5 180.624  18.889   3
  -1  12   5 160.913  15.208   1
   0  12  -5 133.089  18.951   2
   0  12   5 166.774  15.294   1
   0 -12   5 126.317  18.375   3
   1  12  -5 212.573  21.127   2
  -1 -12   5 169.271  21.258   3
   1  12   5 171.442  15.816   1
 -12   2   5 70.8852 12.5053   1
  -2 -12   5 56.5353 12.7285   3
   2  12   5 73.8981  9.7925   1
   3  12   5 22.3231  7.6108   1
 -12   3   5 24.2323 10.3875   1
  -3 -12   5 28.7658 13.4043   3
  -4 -12   5  1.8364 12.4054   3
   4  12   5 4.02059 8.85717   1
 -12   4   5 -4.8574  6.4491   1
   5  12   5 55.6781 11.7450   1
  -5 -12   5 36.4507 14.3582   3
 -12   5   5 93.0047 16.0598   6
 -12   5   5 59.7178 12.2181   1
 -12   6   5 107.595  15.568   6
 -12   6   5 60.6698 12.6798   1
   6  12   5 47.6637 12.2136   1
  -6 -12   5 29.9829 11.0382   3
 -12   7   5 210.938  19.037   1
 -12   7   5 306.931  27.837   6
   7  12   5 204.198  17.452   1
  -8 -12   5 68.3785 17.7198   6
 -12   8   5 125.804  16.673   6
  -6  13  -5 62.1077 18.9574   2
  -6  13   5 31.0234 14.1496   6
 -13  -6   5 56.7957 15.3421   6
  -5  13  -5 67.4626 19.3922   2
  -5  13   5 54.2738 11.7533   1
 -13  -5   5 73.8321 15.3518   6
  -4  13  -5 187.797  23.904   2
  -4  13   5 207.711  18.005   1
  -3  13  -5 57.3473 18.3822   2
  -3  13   5 94.6254 13.0572   1
   3 -13   5 67.1572 13.1809   3
 -13  -3   5 93.5726 15.6417   6
  -2  13  -5 224.582  27.383   2
   2 -13   5 146.725  20.753   3
  -2  13   5 200.072  17.716   1
 -13  -2   5 233.774  23.149   6
  -1  13  -5 14.1600  9.9864   2
  -1  13   5 30.0815 10.3343   1
   1 -13   5 5.23090 9.04177   3
 -13  -1   5 42.8274 13.4179   6
   0  13  -5 -0.1219 11.3395   2
 -13   0   5 22.5492 12.9530   6
   0  13   5 1.07787 6.68865   1
   0 -13   5 1.00386 8.74281   3
   1  13  -5 23.1579  8.8034   2
 -13   1   5 44.3275 13.4182   6
   1  13   5 18.5355 10.2615   1
  -1 -13   5 15.6501 13.4667   3
 -13   2   5 255.752  23.715   6
  -2 -13   5 142.712  18.776   3
   2  13   5 191.518  17.004   1
   3  13   5 107.155  11.923   1
 -13   3   5 134.169  16.897   6
 -13   3   5 55.3620 12.7503   1
  -3 -13   5 76.4214 14.0173   3
 -13   4   5 201.186  20.826   6
   4  13   5 188.602  17.719   1
 -13   4   5 161.088  17.485   1
   5  13   5 54.7863 12.3520   1
 -13   5   5 51.1623  9.8460   1
 -13   5   5 83.5555 14.8266   6
 -13   6   5 77.2997 14.6997   6
  -4  14  -5 31.2890 17.1008   2
 -14  -4   5 33.0857 14.0116   6
  -3  14  -5  6.0674 14.9754   2
 -14  -3   5 33.1472 13.4309   6
  -2  14  -5 10.1563 13.6002   2
 -14  -2   5 31.7307 13.2670   6
  -2  14   5  6.7918 10.4522   1
  -1  14  -5  9.1159 12.6921   2
 -14  -1   5 32.9368 13.3792   6
  -1  14   5 -8.0940  9.7312   1
   0  14  -5  0.3174 10.6877   2
 -14   0   5 22.2889 13.0806   6
   0  14   5  8.2567 10.5354   1
 -14   1   5 34.6303 13.4843   6
   1  14   5 0.40409 9.80696   1
   2  14   5 12.7273 10.4626   1
 -14   3   5 28.2262 13.0046   6
 -14   4   5 71.8920 14.8504   6
   0   0  -6 957.228  47.114   2
   1   0  -6 -0.8949  3.5416   2
   0  -1  -6 3.36267 5.67644   2
  -1   0  -6 2.91657 5.53016   2
   0   1  -6 4.05445 5.62864   2
   0  -1   6 0.22672 0.67546   4
   0   1   6 0.96156 0.81339   4
   0  -1   6 -1.3862  0.7776   4
  -1  -1  -6 681.437  35.855   2
   1   1  -6 659.705  35.308   2
  -1   1  -6 716.830  36.400   2
   1  -1  -6 751.329  35.951   2
  -1  -1   6 695.340  25.430   4
  -2  -1  -6 148.880  13.443   2
  -1   2  -6 160.129  13.872   2
   2   1  -6 147.707  11.789   2
   1  -2   6 154.397  11.820   3
   2   1   6 165.242   5.998   4
   1  -2   6 156.960   6.390   4
   2   0  -6 1991.96   96.74   2
  -2   0  -6 2057.70   97.61   2
   0  -2  -6 2317.39   97.62   2
   0   2  -6 2194.16   97.76   2
   0  -2   6 2045.73   75.04   4
   1   2  -6 163.198  13.673   2
  -2   1  -6 159.167  13.823   2
  -1  -2  -6 183.342  13.902   2
   2  -1  -6 180.046  13.385   2
   2  -1   6 152.347   5.757   4
  -1  -2   6 152.142   6.897   4
   2   2  -6 7.51147 5.72268   2
  -2   2  -6 16.4706  6.9209   2
  -2  -2  -6 10.0309  6.3212   2
   2  -2   6 10.5789  1.6010   4
   2  -2   6 8.72818 4.79754   3
  -2  -2   6 8.97763 2.47989   4
   2   2   6 5.85914 1.40216   4
  -3  -2  -6 6.41536 6.16662   2
   3   2  -6 11.6630  5.5939   2
  -2   3  -6 10.6859  6.6330   2
   2  -3   6 9.22209 4.86430   3
   2  -3   6 10.4179  2.0529   4
   3   2   6 10.0015  1.6884   4
  -2   3   6 9.51645 3.43101   1
   3   1  -6 4.30709 5.17869   2
  -3  -1  -6 6.75548 5.96524   2
  -1   3  -6 -4.3898  5.6719   2
   3   1   6 0.21308 1.12613   4
   1  -3   6 1.12200 1.66725   4
  -3  -1   6 0.48104 2.96352   1
   1  -3   6 -0.5877  3.2024   3
  -3   0  -6 -0.2258  5.8504   2
   3   0  -6 -3.3469  3.6362   2
   0   3  -6 2.76884 5.99624   2
  -3   0   6 0.40606 2.84214   1
   3   0   6 -0.2634  0.8696   4
   0  -3   6 0.05820 1.75514   4
   1   3  -6 1.26937 4.02664   2
  -3   1  -6 -2.1025  5.8721   2
  -1  -3   6 1.12158 2.18657   4
   3  -1   6 0.23542 1.09671   4
  -3   1   6 0.14373 2.47748   1
   1   3   6 -1.0096  1.4903   4
  -3   2  -6 24.2567  7.4436   2
   2   3  -6 13.2065  4.9330   2
  -3   2   6 15.4752  3.9309   1
   2   3   6 12.5430  1.7837   4
   3  -2   6 10.5492  1.8366   4
   3   3  -6 3536.78  163.05   2
  -3   3  -6 3680.85  164.64   2
  -3  -3  -6 4032.62  163.68   2
   3  -3   6 3601.13  128.88   4
   3   3   6 3460.96  128.73   4
  -3   3   6 3496.05  141.17   1
   4   3  -6 35.1586  6.9259   2
  -3   4  -6 60.7865  8.8608   2
  -4  -3  -6 56.3974  8.8680   2
   3  -4   6 39.2621  7.1596   3
  -3   4   6 50.8024  6.0648   1
  -2   4  -6 151.489  14.091   2
   4   2  -6 130.857  11.523   2
  -4  -2  -6 148.581  13.389   2
  -2   4   6 127.699   8.497   1
   2  -4   6 149.099  12.360   3
   4   2   6 136.269   6.820   4
   4   1  -6 28.7487  6.3531   2
  -4  -1  -6 25.4394  7.2293   2
  -1   4  -6 13.8315  6.9615   2
  -4  -1   6 21.1794  4.0594   1
   4   1   6 19.0272  2.1837   4
   1  -4   6 19.8659  6.4405   3
  -1   4   6 18.8692  3.8910   1
  -4   0  -6 976.045  48.953   2
   0   4  -6 1013.56   49.30   2
   0  -4   6 1042.52   50.84   3
  -4   0   6 976.034  40.186   1
   4   0   6 931.017  35.554   4
  -4   1  -6 20.3993  7.3250   2
   1   4  -6 27.0831  7.2571   2
   4  -1   6 15.8989  2.1037   4
  -4   1   6 19.1293  4.0457   1
  -4   2  -6 131.854  13.437   2
   2   4  -6 141.492  13.278   2
   4  -2   6 142.271   6.672   4
  -4   2   6 144.364   9.140   1
   3   4  -6 61.2207  7.7777   2
  -4   3  -6 47.3059  9.5413   2
  -4   3   6 46.7774  6.3208   1
   4   4  -6 93.4780 10.0887   2
  -4   4  -6 110.955  13.187   2
  -4   4   6 119.774   9.383   1
  -4   5  -6 39.3680  8.9633   2
   5   4  -6 45.9251  7.9229   2
  -4   5   6 45.7491  7.2682   1
  -3   5  -6 486.533  29.767   2
   5   3  -6 452.644  25.595   2
  -5  -3  -6 546.228  27.668   2
  -3   5   6 468.358  22.563   1
   3  -5   6 465.984  27.799   3
  -2   5  -6 3.72935 7.45224   2
  -5  -2  -6 -1.0542  5.8261   2
   5   2  -6 -2.0903  4.8368   2
   2  -5   6 10.0294  6.5141   3
  -2   5   6 8.07632 3.85728   1
  -5  -1  -6 1224.15   59.98   2
  -1   5  -6 1237.32   61.17   2
  -1   5   6 1208.74   50.26   1
   1  -5   6 1284.23   63.01   3
  -5  -1   6 1251.29   50.86   1
   0   5  -6 2.03751 6.45745   2
  -5   0  -6 -0.1603  6.2545   2
   0   5   6 -0.5011  2.9313   1
  -5   0   6 7.14217 4.90431   1
   0  -5   6 -4.3950  4.3670   3
  -5   1  -6 1257.72   61.51   2
   1   5  -6 1271.32   61.02   2
  -1  -5   6 1359.03   64.85   3
   1   5   6 1201.66   50.72   1
  -5   1   6 1236.77   51.46   1
  -5   2  -6 1.96793 6.86682   2
   2   5  -6 3.88302 6.40976   2
  -5   2   6 0.66163 4.10878   1
  -5   3  -6 478.039  29.188   2
   3   5  -6 500.691  27.482   2
  -5   3   6 481.988  22.804   1
  -5   4  -6 35.9640  9.9907   2
   4   5  -6 39.0479  7.4287   2
  -5   4   6 50.1032  6.9346   1
   5   5  -6 1301.14   64.04   2
  -5   5  -6 1377.76   68.20   2
  -5   5   6 1397.78   56.56   1
  -5   6  -6 83.7762 14.5181   2
  -5   6   6 80.2299  9.1105   1
  -4   6  -6 345.715  27.108   2
  -4   6   6 386.159  19.493   1
  -3   6  -6 12.7783  7.2368   2
  -6  -3  -6 23.4574  7.5659   2
  -3   6   6 15.1833  5.1093   1
   3  -6   6 31.2367  8.3721   3
  -6  -2  -6 1027.85   51.31   2
  -2   6  -6 1081.91   54.72   2
  -2   6   6 1056.59   43.83   1
   2  -6   6 1024.38   54.51   3
  -1   6  -6 93.5241 11.4557   2
  -6  -1  -6 85.9815 10.9334   2
  -1   6   6 97.4365  7.8489   1
  -6  -1   6 79.4932  7.9486   1
   1  -6   6 75.1527 10.9401   3
   0   6  -6 186.440  17.229   2
  -6   0  -6 216.078  16.821   2
   0  -6   6 230.759  18.379   3
  -6   0   6 199.210  12.650   1
   0   6   6 201.863  12.346   1
   1   6  -6 111.545  12.393   2
  -6   1  -6 83.7964 11.5743   2
   1   6   6 91.4144  7.4969   1
  -6   1   6 80.5370  8.1059   1
  -1  -6   6 78.1514 11.8466   3
  -6   2  -6 1037.33   53.23   2
   2   6  -6 1061.17   53.07   2
  -2  -6   6 1126.13   57.01   3
   2   6   6 1063.04   44.28   1
  -6   2   6 1059.26   45.06   1
   3   6  -6 18.2989  7.0758   2
  -6   3  -6 21.5386  8.9724   2
  -3  -6   6 13.1112  6.9174   3
   3   6   6 21.5444  5.2648   1
  -6   3   6 11.9267  5.7028   1
   4   6  -6 372.105  22.376   2
  -6   4  -6 359.542  24.307   2
   4   6   6 372.140  19.656   1
  -6   4   6 389.166  20.029   1
  -6   5  -6 71.7371 13.4849   2
  -6   5   6 87.4135  9.4096   1
   5   6   6 97.1173  9.4996   1
  -6   6  -6 42.5710 10.7884   2
  -6   6   6 51.8478  8.3934   1
  -6   7  -6 10.4483  9.1733   2
  -6   7   6 5.08882 7.11702   1
  -5   7  -6 215.096  22.980   2
  -5   7   6 210.745  15.066   1
  -4   7  -6 -8.9898 10.0987   2
   4  -7   6 0.00448 7.67250   3
  -4   7   6 1.86904 5.65480   1
  -3   7  -6 342.473  26.335   2
   3  -7   6 285.543  21.932   3
  -3   7   6 288.677  16.980   1
  -2   7  -6 7.98251 9.58745   2
  -7  -2  -6 12.8899  6.9675   2
   2  -7   6 1.53990 8.04645   3
  -2   7   6 2.27245 4.99015   1
  -1   7  -6 114.428  13.123   2
  -7  -1  -6 105.952  11.546   2
   1  -7   6 104.840  13.333   3
  -1   7   6 104.152   8.896   1
   0   7  -6 -3.0997  5.1833   2
  -7   0  -6 -0.3452  6.9340   2
  -7   0   6 0.96454 6.83434   1
   0  -7   6 8.15862 8.51348   3
   0   7   6 3.16705 4.50716   1
  -7   1  -6 135.283  13.714   2
   1   7  -6 104.635  12.957   2
  -1  -7   6 115.867  12.912   3
   1   7   6 123.412   9.904   1
  -7   1   6 116.805  10.372   1
  -7   2  -6 10.6285  8.1554   2
   2   7  -6 5.35167 5.04693   2
  -2  -7   6 2.04392 6.22905   3
   2   7   6 5.67567 4.78861   1
  -7   2   6 0.25078 5.59701   1
   3   7  -6 310.304  20.532   2
  -7   3  -6 312.310  22.909   2
   3   7   6 319.688  16.992   1
  -7   3   6 281.973  17.698   1
  -3  -7   6 322.121  24.230   3
  -7   4  -6 2.89996 8.89533   2
   4   7  -6 1.11456 6.16475   2
   4   7   6 0.36746 5.45194   1
  -7   4   6 4.26926 6.11929   1
  -4  -7   6 2.50366 6.93077   3
  -7   5  -6 206.582  20.657   2
   5   7   6 238.199  15.320   1
  -7   5   6 202.662  15.632   1
  -5  -7   6 221.317  19.251   3
  -7   6  -6 11.5477 11.2267   2
  -7   6   6 13.1651  5.6884   1
   6   7   6 7.95015 7.02142   1
  -7   7  -6 68.7424 16.7071   2
   7   7   6 82.6457 10.5695   1
  -7   7   6 70.1570 10.3880   1
  -7   8  -6 63.5957 17.2808   2
   8   7   6 72.5440 10.6822   1
  -7   8   6 59.6336 10.3610   1
  -6   8  -6 729.709  49.528   2
  -6   8   6 818.546  37.292   1
  -5   8  -6 5.31041 9.22045   2
  -5   8   6 1.69242 6.80820   1
  -4   8  -6 95.1496 15.5592   2
   4  -8   6 82.9500 12.7546   3
  -4   8   6 88.2030 10.0688   1
  -3   8  -6 29.5925 10.6206   2
  -3   8   6 30.2758  7.2352   1
   3  -8   6 22.5931  7.7331   3
  -8  -2  -6 -0.1153  6.1722   2
  -2   8  -6 23.2134 12.0894   2
   2  -8   6 -2.7928  6.0665   3
  -2   8   6 8.14781 6.01917   1
  -8  -1  -6 137.645  13.005   2
  -1   8  -6 142.493  16.985   2
   1  -8   6 128.744  14.007   3
  -1   8   6 125.469  10.684   1
   0   8  -6 1170.75   61.55   2
  -8   0  -6 1161.11   58.80   2
   0   8   6 1285.31   50.79   1
   0  -8   6 1150.83   63.52   3
  -8   0   6 1212.86   51.52   1
  -8   1  -6 132.679  13.918   2
   1   8  -6 136.120  15.301   2
   1   8   6 138.507  10.964   1
  -1  -8   6 109.999  15.227   3
  -8   1   6 148.962  12.560   1
  -8   2  -6 15.9409  8.5005   2
   2   8  -6 9.44228 5.89166   2
   2   8   6 1.71168 6.94504   1
  -8   2   6 -0.7215  6.3640   1
  -2  -8   6 -1.1516  9.4109   3
   3   8  -6 22.3686  8.1663   2
  -8   3  -6 36.6192 10.3991   2
  -3  -8   6 16.9182  8.1709   3
   3   8   6 28.2115  7.8814   1
  -8   3   6 19.2266  7.4632   1
  -8   4  -6 97.4592 14.4123   2
   4   8   6 116.653  10.898   1
  -8   4   6 92.4265 10.8000   1
  -4  -8   6 111.638  16.074   3
  -8   5  -6 -0.2096  9.7942   2
  -5  -8   6  5.9595 10.7735   3
   5   8   6 7.25823 7.04728   1
  -8   5   6 4.07821 7.17196   1
  -8   6  -6 829.831  49.768   2
   6   8   6 910.033  39.972   1
  -8   6   6 853.064  39.905   1
  -6  -8   6 831.867  50.478   3
  -8   7  -6 72.1528 15.9499   2
   7   8   6 47.7333  9.8345   1
  -8   7   6 75.6139 11.0958   1
  -7  -8   6 71.2200 12.6919   3
  -8   8  -6 52.3432 17.0382   2
   8   8   6 33.7679  9.7294   1
  -8   8   6 29.6161  9.5190   1
  -8  -8   6 30.7594 13.7836   3
  -8   9  -6 85.0270 16.8084   2
   9   8   6 90.0060 12.5466   1
  -8   9   6 92.6382 12.7908   1
  -9  -8   6 117.137  18.216   3
  -7   9  -6 90.6229 20.2685   2
  -7   9   6 137.823  13.967   1
  -6   9  -6 -11.261  13.653   2
  -6   9   6 8.98989 8.55069   1
  -5   9  -6 10.8744 15.0865   2
  -5   9   6 31.9831  8.7919   1
  -4   9  -6 98.7001 20.2831   2
  -4   9   6 152.647  12.001   1
  -3   9  -6 995.480  60.693   2
   3  -9   6 1012.98   57.62   3
  -3   9   6 1113.25   46.59   1
  -2   9  -6 69.3321 13.9492   2
  -2   9   6 93.7425  9.9641   1
   2  -9   6 76.8002 13.8791   3
  -1   9  -6 -4.5780 10.7636   2
  -1   9   6 -0.1659  6.1227   1
   1  -9   6 5.36563 7.37569   3
   0   9  -6 6.09709 9.92603   2
  -9   0  -6 1.63609 6.93408   2
   0   9   6 1.69532 6.10947   1
  -9   0   6 -4.1155  7.1785   1
   0  -9   6 2.43744 9.97927   3
  -9   1  -6 -2.3148  5.0605   2
   1   9  -6 15.4703  9.3707   2
  -1  -9   6 -2.6914 10.2078   3
   1   9   6 5.44099 6.24303   1
  -9   1   6 5.79839 7.45584   1
  -9   2  -6 82.7237 12.2269   2
   2   9  -6 83.3722 12.4637   2
  -9   2   6 91.3240 11.0138   1
  -2  -9   6 68.6000 14.0712   3
   2   9   6 89.7764  9.7966   1
  -9   3  -6 1095.40   58.32   2
   3   9  -6 1104.13   56.82   2
   3   9   6 1241.78   50.33   1
  -3  -9   6 1126.77   61.61   3
  -9   3   6 1110.76   50.18   1
  -9   4  -6 133.133  16.619   2
  -4  -9   6 132.458  15.638   3
  -9   4   6 164.568  14.469   1
   4   9   6 142.426  12.673   1
  -9   5  -6 20.6647 11.3982   2
  -9   5   6 20.2754  8.6183   1
  -5  -9   6 37.1475 10.3021   3
   5   9   6 35.0438  8.8357   1
  -9   6  -6 -3.3903 10.9048   2
  -6  -9   6 0.47500 8.16643   3
  -9   6   6 -2.7516  7.9408   1
   6   9   6 5.83134 8.00467   1
  -9   7  -6 122.200  19.522   2
  -7  -9   6 165.170  20.201   3
   7   9   6 205.769  16.476   1
  -9   7   6 134.834  14.721   1
  -9   8  -6 87.5353 18.4852   2
  -8  -9   6 95.9920 14.6812   3
   8   9   6 95.2725 12.9157   1
  -9   8   6 92.0825 12.9918   1
  -9   9  -6 255.101  25.098   2
  -9   9   6 274.886  20.449   1
   9   9   6 266.176  20.528   1
  -9  10  -6 99.2946 19.6519   2
  -8  10  -6 121.365  21.866   2
  -8  10   6 108.452  11.720   1
  10   8   6 136.378  15.208   1
  -7  10  -6 43.0433 14.9320   2
  -7  10   6 36.6701 10.4053   1
  -6  10  -6 -5.3035 16.1933   2
  -6  10   6 12.1132  9.1815   1
  -5  10  -6  2.6300 14.1345   2
  -5  10   6 9.41656 8.66273   1
  -4  10  -6 92.4840 20.7063   2
   4 -10   6 168.269  19.178   3
  -4  10   6 191.413  15.180   1
  -3  10  -6 22.9520 15.3945   2
   3 -10   6 51.9226 13.1130   3
  -3  10   6 41.7854  9.5109   1
  -2  10  -6 188.574  23.814   2
  -2  10   6 212.749  15.958   1
   2 -10   6 156.515  17.510   3
  -1  10  -6 17.2889 13.4001   2
  -1  10   6 29.4625  8.4943   1
   1 -10   6 13.4701 11.3434   3
   0  10  -6 52.3200 13.5192   2
   0  10   6 31.1974  8.0985   1
   0 -10   6 35.9429 12.8908   3
   1  10  -6 54.4948 12.6805   2
 -10   1   6 34.4007  9.6099   1
  -1 -10   6 24.5515 12.0523   3
   1  10   6 34.2341  8.2354   1
   2  10  -6 213.532  17.853   2
   2  10   6 206.944  16.326   1
  -2 -10   6 201.801  20.116   3
 -10   2   6 239.674  18.044   1
 -10   3  -6 65.1990 12.0120   2
  -3 -10   6 53.9395 14.2155   3
   3  10   6 58.9150  9.6951   1
 -10   3   6 51.2577 10.9078   1
 -10   4  -6 194.564  19.050   2
 -10   4   6 156.549  15.092   1
  -4 -10   6 173.553  20.121   3
   4  10   6 192.493  15.042   1
 -10   5  -6  7.5619 10.1651   2
 -10   5   6 7.09404 8.53289   1
  -5 -10   6 11.3764 12.4168   3
   5  10   6 8.95817 8.32787   1
 -10   6  -6 24.0131 12.2635   2
  -6 -10   6 11.5064 12.4667   3
   6  10   6 18.9188  9.0216   1
 -10   6   6 -1.6900  8.3925   1
 -10   7  -6 24.0291 12.9705   2
 -10   7   6 17.8005  9.5446   1
  -7 -10   6 25.0062 10.3068   3
   7  10   6 34.0532 10.0926   1
 -10   8  -6 76.2218 16.8666   2
 -10   8   6 83.5425 10.6152   1
   8  10   6 116.011  13.520   1
 -10   9  -6 102.269  15.813   2
  -8  11  -6 23.9451 17.3043   2
  -7  11  -6 57.1211 15.7927   2
  -7  11   6 70.0232 12.2336   1
  -6  11  -6 20.2879 18.3437   2
  -6  11   6 13.9967  9.6066   1
  -5  11  -6 427.657  41.831   2
  -5  11   6 623.822  30.455   1
  -4  11  -6 82.1783 20.0295   2
  -4  11   6 192.701  15.872   1
  -3  11  -6 140.984  22.965   2
  -3  11   6 117.690  12.977   1
   3 -11   6 128.253  15.965   3
  -2  11  -6 112.361  20.730   2
   2 -11   6 119.435  17.702   3
  -2  11   6 160.268  14.453   1
  -1  11  -6 454.250  35.742   2
  -1  11   6 472.159  25.638   1
   1 -11   6 414.692  32.819   3
   0  11  -6  0.4896 11.3285   2
   0 -11   6 -9.2548 10.8219   3
   0  11   6 -6.3975  7.6320   1
   1  11  -6 445.302  31.489   2
   1  11   6 451.301  25.363   1
  -1 -11   6 439.934  33.395   3
   2  11  -6 122.596  14.841   2
   2  11   6 103.798  12.652   1
  -2 -11   6 118.950  15.701   3
 -11   2   6 119.377  13.930   1
  -3 -11   6 123.420  18.311   3
 -11   3   6 138.598  14.774   1
   3  11   6 167.298  14.548   1
   4  11   6 160.141  13.465   1
 -11   4   6 153.149  15.462   1
  -4 -11   6 156.317  20.663   3
 -11   5   6 605.089  32.575   1
  -5 -11   6 606.773  41.282   3
   5  11   6 608.558  31.996   1
   6  11   6 24.4365 10.0158   1
 -11   6   6 22.1614 10.4392   1
 -11   7  -6 40.9232 12.8460   2
 -11   7   6 39.3847 11.2105   1
   7  11   6 52.7851 11.4423   1
 -11   8  -6 11.1331  8.9620   2
  -6  12  -6  5.6628 16.3242   2
  -5  12  -6 12.2500 16.3542   2
  -5  12   6 11.3151  9.4797   1
  -4  12  -6  3.4161 15.6991   2
   4 -12   6 60.2211 12.0417   3
  -4  12   6 101.233  12.652   1
  -3  12  -6 -11.484  14.254   2
   3 -12   6  5.8845 12.1052   3
  -3  12   6 9.58370 9.61212   1
  -2  12  -6 205.147  25.829   2
   2 -12   6 200.270  22.682   3
  -2  12   6 258.561  19.612   1
  -1  12  -6 26.8220 14.3570   2
  -1  12   6 6.21267 9.26833   1
   1 -12   6 22.6746 12.9520   3
   0  12  -6  4.7740 12.1645   2
   0 -12   6 17.9054 13.1211   3
   0  12   6 13.3903  8.8531   1
   1  12  -6  7.4814 10.9738   2
  -1 -12   6  6.8902 12.7717   3
   1  12   6 5.04547 6.38664   1
   2  12   6 264.262  19.302   1
  -2 -12   6 199.583  21.317   3
  -3 -12   6 -2.5276  8.6041   3
   3  12   6 8.40307 9.23710   1
 -12   3   6 -0.6710  9.7256   1
   4  12   6 66.5021 11.7221   1
 -12   4   6 57.7289 12.3559   1
   5  12   6 18.4688  9.9734   1
 -12   5   6  6.0437 10.0538   1
  -4  13  -6  7.5898 16.5932   2
  -3  13  -6 217.185  28.252   2
  -3  13   6 316.630  21.402   1
  -2  13  -6 -8.3727 13.0138   2
  -2  13   6 8.84584 9.56089   1
  -1  13  -6 17.7517 13.7187   2
  -1  13   6 24.3011 10.2369   1
   0  13  -6 -4.7620 11.6097   2
   0  13   6 4.49811 9.22639   1
   1  13   6 7.60410 9.73931   1
   2  13   6 11.3551  9.6826   1
   3  13   6 278.639  21.086   1
   0   0  -7 -5.9569  6.4228   2
   0  -1  -7 -1.1921  4.8619   2
   0   1  -7 2.80312 4.93064   2
  -1   0  -7 -1.0126  6.6252   2
   1   0  -7 -5.3873  6.4540   2
  -1   1  -7 4.24835 7.03357   2
   1   1  -7 -2.0213  6.6808   2
  -1  -1  -7 0.53465 4.92587   2
   1  -1  -7 1.32891 7.12466   2
   2   1  -7 754.853  40.148   2
  -1   2  -7 859.007  42.193   2
  -2  -1  -7 758.348  40.554   2
   0  -2  -7 5.10336 7.48804   2
  -2   0  -7 0.64156 7.18880   2
   0   2  -7 -0.2090  7.0384   2
   2   0  -7 1.31431 6.94911   2
  -2   1  -7 778.696  41.787   2
  -1  -2  -7 884.458  42.472   2
   1   2  -7 763.462  41.333   2
  -2   2  -7 2.22472 7.37881   2
  -2  -2  -7 3.62363 7.62145   2
   2   2  -7 -1.3140  6.6631   2
   3   2  -7 41.0310  8.7293   2
  -2   3  -7 40.1704  9.8316   2
  -3  -2  -7 63.0249 10.4392   2
   3   1  -7 4.76856 4.95606   2
  -1   3  -7 10.7462  7.8272   2
  -3  -1  -7 0.76778 7.48005   2
  -3   0  -7 0.34854 5.14638   2
   0   3  -7 -1.6475  7.0262   2
   3   0  -7 0.33283 6.89066   2
   0  -3   7 -0.3037  6.0773   3
  -3   1  -7 0.52797 7.60556   2
   1   3  -7 3.83289 5.15618   2
  -3   2  -7 45.4747 10.1359   2
   2   3  -7 35.4558  8.6743   2
  -3   3  -7 -6.5316  7.4660   2
   3   3  -7 3.32679 7.14171   2
   4   3  -7 51.5229  9.0425   2
  -3   4  -7 51.6862 11.2568   2
   4   2  -7 21.1382  7.5390   2
  -2   4  -7 15.1292  6.8642   2
  -4  -2  -7 23.1158  7.0012   2
  -4  -1  -7 1148.14   59.27   2
   4   1  -7 1289.67   58.45   2
  -1   4  -7 1118.03   59.62   2
   1  -4   7 1222.51   61.08   3
  -4   0  -7 46.5952 10.1453   2
   0   4  -7 32.5696  9.5297   2
   0  -4   7 65.8754 10.0965   3
   1   4  -7 1140.82   57.88   2
  -4   1  -7 1107.30   58.14   2
  -1  -4   7 1232.49   60.76   3
  -4   2  -7 12.5174  6.5821   2
   2   4  -7 8.28343 7.67271   2
  -4   3  -7 55.0538  9.7557   2
   3   4  -7 47.8920  9.1910   2
   4   4  -7 -2.4656  5.9820   2
  -4   4  -7 0.91351 9.02603   2
   5   4  -7 326.142  20.872   2
  -4   5  -7 360.289  26.329   2
  -4   5   7 314.468  18.431   1
   5   3  -7 59.3654  9.0316   2
  -3   5  -7 54.2378 10.3538   2
  -5  -2  -7 202.171  16.103   2
  -2   5  -7 202.363  19.132   2
  -1   5  -7 17.9176  9.2121   2
  -5  -1  -7 19.8316  8.6949   2
   1  -5   7 25.7983  8.4575   3
  -5   0  -7 -2.1786  7.8966   2
   0   5  -7 6.86352 8.23506   2
   0  -5   7 -2.9283  7.4077   3
   1   5  -7 21.0335  8.7801   2
  -5   1  -7 26.6392  9.2660   2
  -1  -5   7 21.6461  9.0521   3
   2   5  -7 199.174  17.218   2
  -5   2  -7 179.217  17.733   2
  -2  -5   7 207.196  19.025   3
  -5   3  -7 61.9302 12.1625   2
   3   5  -7 61.3674 10.2294   2
  -5   3   7 72.7441  8.3752   1
  -5   4  -7 354.974  26.664   2
  -5   4   7 362.374  19.072   1
  -5   5  -7  6.8479 10.6640   2
  -5   5   7 1.29853 5.46363   1
  -5   6  -7 97.2427 17.4437   2
  -5   6   7 98.5793  9.8606   1
  -4   6  -7 -6.6337 10.6143   2
  -4   6   7 11.6051  5.8174   1
  -3   6  -7  6.2277 10.4286   2
  -2   6  -7 29.4389 11.2816   2
  -6  -2  -7 35.7256  9.8336   2
  -6  -1  -7 193.190  17.824   2
  -1   6  -7 184.312  18.543   2
   1  -6   7 183.959  17.737   3
  -6   0  -7 50.8912 10.6218   2
   0   6  -7 31.5798 10.1246   2
  -6   0   7 32.3035  6.4100   1
   0  -6   7 52.9785 10.8189   3
  -6   1  -7 163.887  16.395   2
   1   6  -7 180.745  16.800   2
  -1  -6   7 158.939  15.696   3
  -6   1   7 178.030  12.192   1
  -6   2  -7 13.8059  7.2983   2
   2   6  -7 19.5272  8.8832   2
  -2  -6   7 14.3712  9.8133   3
  -6   2   7 20.7391  6.9016   1
   3   6  -7 12.6638  8.1039   2
  -6   3  -7 9.25816 7.53854   2
  -6   3   7 21.4937  6.2024   1
  -3  -6   7 3.69184 7.16671   3
  -6   4  -7 -1.8200  9.7421   2
   4   6  -7 11.6125  7.3368   2
  -6   4   7 9.15414 5.82275   1
  -4  -6   7 12.3661 10.4218   3
  -6   5  -7 89.4536 15.6633   2
  -6   5   7 81.6221  9.6519   1
  -6   6  -7  3.3426 12.1687   2
  -6   6   7 -1.2981  6.4303   1
  -6   7  -7 156.505  21.668   2
  -6   7   7 153.742  13.693   1
  -5   7  -7 92.8713 18.4680   2
  -5   7   7 87.0374 10.3487   1
  -4   7  -7 646.928  42.159   2
  -4   7   7 609.073  29.469   1
  -3   7  -7 84.0668 16.2299   2
  -3   7   7 78.3159  8.7221   1
  -7  -2  -7 425.072  26.516   2
  -2   7  -7 424.190  30.843   2
   2  -7   7 394.415  27.677   3
  -1   7  -7 22.4153 10.7403   2
  -7  -1  -7 7.33006 6.12653   2
   1  -7   7 20.9366  7.3928   3
  -7   0  -7 -6.9580  7.8861   2
   0   7  -7 -2.8019  8.9306   2
  -7   0   7 -3.4343  5.6102   1
   0  -7   7 9.26933 9.15993   3
  -7   1  -7 8.96723 8.95989   2
   1   7  -7 15.8750  9.2891   2
  -1  -7   7 5.07538 6.88113   3
  -7   1   7 18.3140  7.7854   1
  -7   2  -7 399.601  28.227   2
  -2  -7   7 445.884  28.408   3
  -7   2   7 403.896  21.983   1
   3   7  -7 79.6403 11.7425   2
  -7   3  -7 121.339  15.838   2
  -7   3   7 87.6934  9.8070   1
  -3  -7   7 99.0611 15.1890   3
  -7   4  -7 598.949  38.022   2
  -4  -7   7 614.824  37.581   3
  -7   4   7 601.132  29.364   1
  -7   5  -7 108.783  16.983   2
  -7   5   7 85.9348  9.9110   1
  -5  -7   7 74.8799 13.0150   3
  -7   6  -7 142.185  18.069   2
  -7   6   7 156.308  13.464   1
  -6  -7   7 132.145  18.443   3
  -7   7  -7 -10.959  12.568   2
  -7  -7   7  1.4962 12.0541   3
  -7   7   7 6.87821 7.56105   1
  -7   8  -7 40.8827 17.2569   2
  -7   8   7 34.3976  9.5491   1
  -6   8  -7 21.9075 12.0049   2
  -6   8   7 28.0206  8.7416   1
  -5   8  -7 12.9394 15.1795   2
  -5   8   7 21.0372  7.8787   1
  -4   8  -7 30.2090 15.2638   2
  -4   8   7 20.8632  7.2392   1
  -3   8  -7 7.37091 9.22541   2
  -3   8   7 0.71289 5.92339   1
  -8  -2  -7 -2.2368  8.2454   2
  -2   8  -7 -18.444  10.910   2
   2  -8   7 9.51605 9.56202   3
  -2   8   7 4.29602 5.93357   1
  -8  -1  -7 111.777  13.485   2
  -1   8  -7 129.556  16.074   2
   1  -8   7 153.019  16.563   3
   0   8  -7 21.0981  8.7722   2
  -8   0  -7 19.9327  9.1777   2
   0  -8   7 34.0941 11.3427   3
  -8   1  -7 144.018  15.930   2
   1   8  -7 121.509  15.569   2
  -1  -8   7 124.495  16.389   3
  -8   1   7 143.153  12.668   1
  -8   2  -7 2.33760 9.39301   2
   2   8  -7 4.29090 8.71986   2
  -8   2   7 -14.689   6.454   1
  -2  -8   7  0.1595 10.3030   3
   3   8  -7 2.38483 8.27604   2
  -8   3  -7 -0.2332 10.0296   2
  -3  -8   7  2.8909 10.8855   3
  -8   3   7 5.85320 7.13603   1
  -8   4  -7 36.2438 12.6272   2
  -8   4   7 38.1607  8.5342   1
  -4  -8   7 16.4893 11.9827   3
  -8   5  -7 29.6293 10.3052   2
  -8   5   7 20.3325  8.2897   1
  -5  -8   7 19.8685 12.6212   3
  -8   6  -7 23.7132 13.4827   2
  -6  -8   7 22.0801 13.2991   3
  -8   6   7 25.7220  8.6110   1
  -8   7  -7 38.7137 15.4326   2
  -7  -8   7 47.3103 12.1618   3
  -8   7   7 32.4382  9.1804   1
  -8   8  -7 -8.0951  9.6323   2
  -8   8   7 4.68731 7.94538   1
  -8   9  -7 15.6398 16.1478   2
  -8   9   7 28.6719  9.8935   1
  -7   9  -7 30.6497 13.0032   2
  -7   9   7 46.0816 10.0902   1
  -6   9  -7 16.7052 15.7240   2
  -6   9   7 12.8410  6.2295   1
  -5   9  -7 51.6956 18.5704   2
  -5   9   7 71.9582 10.7491   1
  -4   9  -7 192.493  25.791   2
  -4   9   7 190.145  15.471   1
  -3   9  -7 23.3525 15.3590   2
  -3   9   7 25.0831  7.8899   1
  -2   9  -7 202.211  23.525   2
   2  -9   7 168.114  18.978   3
  -2   9   7 182.268  14.631   1
  -1   9  -7  4.7262 12.0338   2
   1  -9   7  0.4337 10.3964   3
  -1   9   7 -0.7699  6.2939   1
   0   9  -7 -13.227  10.234   2
  -9   0  -7 14.3485  8.5650   2
   0   9   7 -2.4642  6.1377   1
   0  -9   7 -1.0065 10.4024   3
  -9   1  -7 6.58134 8.90561   2
   1   9  -7 0.23892 9.85428   2
  -1  -9   7 -3.0019 10.3853   3
  -9   1   7 -0.4507  7.6835   1
   2   9  -7 234.553  20.484   2
  -9   2  -7 164.412  18.405   2
  -9   2   7 215.777  17.123   1
  -2  -9   7 235.649  22.898   3
  -9   3  -7 25.1742 11.2660   2
  -9   3   7 15.5086  8.9244   1
  -3  -9   7 27.8591 10.0699   3
  -9   4  -7 194.445  20.786   2
  -4  -9   7 170.768  20.418   3
  -9   4   7 218.052  16.953   1
  -9   5  -7 92.9670 16.1416   2
  -9   5   7 74.2828 11.1005   1
  -5  -9   7 83.6355 15.9799   3
  -9   6  -7  4.7471 12.2819   2
  -6  -9   7 8.67413 9.37196   3
  -9   6   7 11.1985  8.6463   1
  -9   7  -7 46.9556 15.2211   2
  -9   7   7 33.2173  9.7446   1
  -9   8  -7 24.8934 11.5167   2
  -9   8   7 14.9410  9.3691   1
  -7  10  -7 204.309  29.128   2
  -7  10   7 254.841  19.087   1
  -6  10  -7 49.2719 18.3514   2
  -6  10   7 55.6300 10.2225   1
  -5  10  -7 65.0318 15.8192   2
  -5  10   7 106.670  12.464   1
  -4  10  -7 19.7843 12.5185   2
  -4  10   7 35.1858  9.3751   1
  -3  10  -7 30.5570 12.5950   2
  -3  10   7 17.5136  7.9495   1
  -2  10  -7 46.0431 17.0579   2
   2 -10   7 17.4440 11.6545   3
  -2  10   7 49.5003 10.6397   1
  -1  10  -7 315.949  29.397   2
  -1  10   7 325.599  20.187   1
   1 -10   7 319.391  27.621   3
   0  10  -7 163.887  20.169   2
   0 -10   7 159.328  17.979   3
   0  10   7 208.617  15.218   1
   1  10  -7 343.185  26.712   2
   1  10   7 320.197  19.563   1
  -1 -10   7 295.115  27.633   3
   2  10  -7 12.9207  9.9098   2
 -10   2   7 34.6666  9.9640   1
  -2 -10   7 48.2846 14.4000   3
 -10   3  -7 22.7963 11.0810   2
  -3 -10   7 28.4379 10.6800   3
 -10   3   7 33.1878 10.2776   1
 -10   4  -7 26.5385 11.7530   2
  -4 -10   7 35.7545 10.9345   3
 -10   4   7 38.4865 10.3583   1
 -10   5  -7 91.4872 15.7275   2
  -5 -10   7 97.3535 14.9853   3
 -10   5   7 116.345  13.380   1
 -10   6  -7 62.5335 14.8253   2
 -10   6   7 51.8373 10.8897   1
 -10   7  -7 219.059  23.138   2
 -10   7   7 242.024  19.069   1
  -6  11  -7 17.8789 12.7883   2
  -5  11  -7 -8.5098 14.7808   2
  -5  11   7 10.8598  8.7220   1
  -4  11  -7 -27.495  13.368   2
  -4  11   7 10.3482  8.4514   1
  -3  11  -7 -10.662   9.420   2
  -3  11   7 7.85446 8.19966   1
  -2  11  -7 -7.7533 13.8907   2
   2 -11   7  2.8178 11.3742   3
  -2  11   7 5.90153 8.18309   1
  -1  11  -7 10.2646 13.6407   2
  -1  11   7 5.05518 7.60875   1
   1 -11   7 -0.0029  8.4412   3
   0  11  -7 -1.7344  8.4486   2
   0  11   7 0.71228 7.53740   1
   0 -11   7 -11.446   7.203   3
   1  11  -7  0.5224 10.4842   2
  -1 -11   7  6.6729 11.8146   3
   1  11   7 1.93427 7.41059   1
   2  11   7 11.6577  7.9581   1
 -11   2   7 3.85762 9.36003   1
  -2 -11   7  5.3786 12.5525   3
 -11   3   7 -5.6017  8.9300   1
 -11   4   7 -8.4768  9.1643   1
 -11   5   7 -12.289   8.666   1
  -4  12  -7 -0.7540 10.2592   2
  -3  12  -7  9.5164 15.4886   2
  -2  12  -7 32.8068 16.5748   2
  -2  12   7 52.2405 11.0610   1
  -1  12  -7 122.306  20.092   2
  -1  12   7 97.6484 12.4600   1
   0  12  -7 68.8051 15.5654   2
   0  12   7 51.5604 10.5161   1
   1  12   7 114.367  13.066   1
   2  12   7 38.7476  9.8043   1
   0   0  -8 3066.16  141.35   2
   1   0  -8 0.82939 8.93446   2
   0   1  -8 3.60437 8.60495   2
  -1   0  -8 6.04284 8.70474   2
   0  -1  -8 11.2312  9.5664   2
  -1   1  -8 126.135  15.081   2
   1   1  -8 148.552  15.639   2
  -1  -1  -8 143.540  15.436   2
   2   1  -8 3.58831 6.07106   2
  -1   2  -8 -2.1566  8.6294   2
  -2  -1  -8 12.3202  7.2961   2
   2   0  -8 158.494  14.024   2
   0   2  -8 103.961  14.034   2
  -2   0  -8 99.5361 13.6863   2
   1   2  -8 2.75975 8.32042   2
  -2   1  -8 18.7005  9.5969   2
  -2   2  -8 809.538  45.718   2
   2   2  -8 797.845  44.501   2
  -2  -2  -8 919.150  46.188   2
   3   2  -8 0.75899 5.89914   2
  -3  -2  -8 2.32473 6.96096   2
  -2   3  -8 -1.9928  9.0155   2
  -1   3  -8 491.616  32.905   2
  -3  -1  -8 553.677  33.563   2
   3   1  -8 597.736  32.757   2
   0   3  -8 -3.2523  8.2066   2
  -3   0  -8 -4.5778  8.7712   2
   1   3  -8 475.157  30.130   2
  -3   1  -8 497.280  29.819   2
  -3   2  -8 3.58796 6.63682   2
   2   3  -8 6.52352 8.57279   2
  -3   3  -8 122.179  15.875   2
   3   3  -8 121.725  14.054   2
  -3   4  -8 10.0086 10.6494   2
   4   3  -8 0.89421 8.26439   2
  -4  -2  -8 317.982  24.089   2
  -2   4  -8 295.732  24.916   2
   4   2  -8 308.171  20.684   2
  -4  -1  -8 20.7774 10.5204   2
  -1   4  -8 23.7504  8.2709   2
   0   4  -8 6.07388 6.58017   2
  -4   0  -8 10.8455  7.4107   2
   1   4  -8 11.8373  9.1379   2
  -4   1  -8 25.9971 10.6114   2
  -1  -4   8 26.3018  8.8462   3
   2   4  -8 278.390  22.108   2
  -4   2  -8 274.539  23.549   2
  -2  -4   8 304.456  22.888   3
  -4   3  -8 8.52018 7.67122   2
   3   4  -8 -1.8161  8.2122   2
  -4   4  -8 280.945  24.316   2
   4   4  -8 238.550  19.580   2
  -4   5  -8 74.5212 12.9715   2
   5   4  -8 72.0671 11.7926   2
  -3   5  -8 1113.91   60.15   2
  -2   5  -8  9.5497 10.7428   2
  -5  -2  -8  2.5993 10.0859   2
  -1   5  -8 -0.2322 10.1271   2
  -5  -1  -8  9.2100 10.0462   2
   0   5  -8 -1.5070  9.4660   2
  -5   0  -8 4.07921 7.10818   2
   1   5  -8 2.50512 9.15916   2
  -5   1  -8 0.28770 9.54643   2
  -1  -5   8 -3.2145  8.0697   3
   2   5  -8 3.02994 8.54561   2
  -5   2  -8 13.3190 10.8422   2
  -2  -5   8 0.82419 8.75891   3
   3   5  -8 1019.63   53.31   2
  -5   3  -8 990.994  54.525   2
  -3  -5   8 1090.78   57.52   3
  -5   4  -8 79.8844 15.4578   2
   4   5  -8 64.4651 11.2856   2
  -5   5  -8 5.52197 9.04721   2
  -5   6  -8 74.6249 14.4707   2
  -4   6  -8 52.9121 13.0276   2
  -3   6  -8  3.8036 12.4516   2
  -6  -2  -8 16.2824 10.7370   2
  -2   6  -8 22.4208 12.1423   2
  -1   6  -8 150.897  18.176   2
  -6  -1  -8 115.809  15.549   2
  -6   0  -8 1413.34   73.52   2
   0   6  -8 1548.19   74.83   2
   1   6  -8 88.5882 14.1940   2
  -6   1  -8 112.205  13.897   2
  -1  -6   8 139.952  15.981   3
   2   6  -8 17.0602  9.7909   2
  -6   2  -8 16.1195  8.6270   2
  -2  -6   8 24.1180 11.0902   3
   3   6  -8 8.99756 6.44330   2
  -6   3  -8 21.2012 11.8672   2
  -3  -6   8  3.6203 10.1268   3
   4   6  -8 44.7381 10.0218   2
  -6   4  -8 51.3795 14.6289   2
  -4  -6   8 66.6234 14.0122   3
  -6   5  -8 84.2358 16.6880   2
  -5  -6   8 58.7906 14.0389   3
  -6   6  -8 731.086  48.521   2
  -6  -6   8 807.567  48.153   3
  -6   7  -8 41.7884 17.8061   2
  -5   7  -8 73.8913 15.6293   2
  -4   7  -8 15.7708 11.3000   2
  -3   7  -8 123.331  19.834   2
  -2   7  -8  9.5493 12.7471   2
  -7  -1  -8 174.071  16.654   2
  -1   7  -8 226.634  22.896   2
   0   7  -8  1.4929 10.9106   2
  -7   0  -8  8.7188 10.2241   2
  -7   1  -8 156.510  18.239   2
   1   7  -8 152.095  17.589   2
  -1  -7   8 203.114  19.960   3
   2   7  -8 20.0214  9.9624   2
  -7   2  -8  6.3398 10.8535   2
  -2  -7   8 14.8588 10.8026   3
   3   7  -8 76.4974 12.4381   2
  -7   3  -8 82.7995 15.5075   2
  -3  -7   8 109.630  14.005   3
  -7   4  -8 18.0726  9.6476   2
  -4  -7   8 32.5854 12.4846   3
  -7   5  -8 47.5391 15.3767   2
  -5  -7   8 73.4461 15.4146   3
  -7   6  -8 46.0776 16.5117   2
  -6  -7   8 27.3799 13.3157   3
  -7   7  -8 111.209  21.051   2
  -7   8  -8 12.5039 12.1749   2
  -6   8  -8 49.7658 19.2891   2
  -5   8  -8 -5.9727 15.0141   2
  -4   8  -8 141.482  23.234   2
  -3   8  -8 -6.8689 14.0949   2
  -2   8  -8 585.581  38.780   2
  -8  -1  -8 53.2762 12.0932   2
  -1   8  -8 39.9439 14.4350   2
  -8   0  -8 113.557  15.182   2
   0   8  -8 101.480  16.468   2
  -8   1  -8 43.6915 12.4045   2
   1   8  -8 53.7850 13.0771   2
  -1  -8   8 45.8879 13.2618   3
   2   8  -8 650.489  37.840   2
  -8   2  -8 605.253  38.694   2
  -8   3  -8  4.0298 11.2288   2
  -3  -8   8 3.97885 8.00223   3
  -8   4  -8 120.177  18.320   2
  -4  -8   8 166.580  19.084   3
  -8   5  -8 11.3651 13.0641   2
  -5  -8   8  7.0382 11.9222   3
  -8   6  -8 64.4849 17.2843   2
  -8   7  -8 29.5839 15.6334   2
  -8   8  -8 699.146  49.293   2
  -6   9  -8 -3.0725 10.5228   2
  -5   9  -8 259.820  29.342   2
  -4   9  -8 25.0473 16.5754   2
  -3   9  -8 36.9255 13.3219   2
  -2   9  -8 14.7887 15.4439   2
  -1   9  -8 294.413  28.193   2
   0   9  -8  1.6318 11.8083   2
  -9   1  -8 246.316  22.743   2
   1   9  -8 262.585  23.873   2
  -1  -9   8 250.359  24.889   3
   2   9  -8 1.16002 9.76315   2
  -9   2  -8 10.7606  7.7311   2
  -2  -9   8  5.3963 12.1056   3
  -9   3  -8 14.4466 11.3643   2
  -3  -9   8  7.2508 11.6058   3
  -9   4  -8 18.4877 12.2175   2
  -9   5  -8 312.819  28.524   2
  -9   6  -8 0.65153 9.26568   2
  -5  10  -8 14.6362 15.2653   2
  -4  10  -8 27.4778 16.1400   2
  -3  10  -8  3.8555 15.0088   2
  -2  10  -8 27.9055 15.8322   2
  -1  10  -8 0.22132 8.92988   2
   0  10  -8 300.004  28.141   2
   1  10  -8 -11.724   9.945   2
 -10   3   8 21.1715  9.3122   1
 -10   4  -8 31.2350 12.1467   2
 -10   4   8 29.6567  9.5998   1
 -10   5  -8  0.9105 11.0331   2
  -2  11  -8 43.7563 17.1467   2
  -1  11  -8 17.3420 14.2081   2
   0  11  -8 -2.7488 11.8119   2
   0   0  -9 -2.8631 10.6819   2
   0   1  -9 13.9423 10.9997   2
  -1   0  -9 -3.5552 10.7023   2
  -1   1  -9  4.6613 10.7718   2
   1   1  -9 -2.7075 10.3034   2
  -2  -1  -9 403.161  26.497   2
  -1   2  -9 323.033  25.230   2
   2   1  -9 420.905  28.447   2
   0   2  -9 2.91058 7.57303   2
  -2   0  -9 13.0037  8.4289   2
   1   2  -9 341.472  26.308   2
  -2   1  -9 351.967  27.318   2
   2   2  -9 -6.6777  9.7311   2
  -2   2  -9 -4.8744 10.3428   2
  -2   3  -9 27.5258 12.2043   2
   3   2  -9 27.5840 11.2587   2
  -1   3  -9  3.3597 11.0456   2
  -3  -1  -9  6.8163 11.3468   2
  -3   0  -9  2.9379 11.0661   2
   0   3  -9 -1.7242 10.1587   2
   1   3  -9 -4.1474  9.6041   2
  -3   1  -9 14.9396 11.6165   2
  -3   2  -9 13.6005  8.5244   2
   2   3  -9 21.3601  8.2341   2
  -3   3  -9 -0.5434 11.3641   2
   3   3  -9 -1.4510  9.7533   2
  -3   4  -9 14.1410  9.0798   2
  -2   4  -9 30.4494 12.7249   2
  -4  -1  -9 614.031  36.220   2
  -1   4  -9 488.223  33.155   2
   0   4  -9 21.5069  9.0783   2
  -4   0  -9 26.4344 12.4780   2
  -4   1  -9 548.149  35.584   2
   1   4  -9 532.766  34.394   2
  -4   2  -9 -0.0633 11.0181   2
   2   4  -9 3.38009 9.82402   2
  -4   3  -9 25.5305  9.9370   2
   3   4  -9 24.6550 10.3801   2
  -4   4  -9  6.6182 12.6959   2
   4   4  -9 -8.1276  8.6257   2
  -4   5  -9 256.600  26.464   2
  -3   5  -9 42.6976 14.6726   2
  -2   5  -9 84.7430 15.9003   2
  -1   5  -9 19.1858 12.1414   2
  -5  -1  -9  9.8162 11.7308   2
   0   5  -9 -9.7746  9.8843   2
  -5   0  -9 11.6399 11.5231   2
   1   5  -9 4.07294 7.76622   2
  -5   1  -9 16.8500 12.0448   2
   2   5  -9 108.989  15.281   2
  -5   2  -9 85.5214 16.0935   2
  -5   3  -9 21.5001  9.7512   2
   3   5  -9 30.2730 10.6298   2
  -5   4  -9 211.090  22.558   2
  -4  -5   9 197.893  20.646   3
  -5   5  -9  2.2162 13.2779   2
  -5  -5   9 0.81689 9.66491   3
  -5   6  -9 41.8096 17.5491   2
  -4   6  -9  7.1016 14.7120   2
  -3   6  -9 25.6733 14.7279   2
  -2   6  -9 12.5803  9.9161   2
  -6  -1  -9 89.3648 15.3987   2
  -1   6  -9 80.4441 15.5573   2
  -6   0  -9 32.4379 12.6651   2
   0   6  -9 26.3705 12.1812   2
   1   6  -9 83.1852 12.4586   2
  -6   1  -9 106.769  16.261   2
   2   6  -9 23.8165 10.9229   2
  -6   2  -9 15.0701 12.6474   2
   3   6  -9 5.84038 9.09091   2
  -6   3  -9 -0.1358 12.3517   2
  -3  -6   9 -0.6908  9.9884   3
  -6   4  -9  4.6328 13.3715   2
  -4  -6   9  0.3155 10.1944   3
  -6   5  -9 68.0627 16.9679   2
  -6   6  -9 -6.2799 13.9108   2
  -6   7  -9 79.9400 20.4210   2
  -5   7  -9 45.0709 18.0969   2
  -4   7  -9 429.410  37.725   2
  -3   7  -9 28.2221 15.5933   2
  -2   7  -9 220.620  24.244   2
  -1   7  -9 8.50988 9.18843   2
  -7  -1  -9  6.1950 11.3940   2
   0   7  -9 -4.1760 11.3906   2
  -7   0  -9 8.19675 8.62607   2
   1   7  -9  8.4569 10.4390   2
  -7   1  -9 4.37016 8.21890   2
   2   7  -9 180.424  19.001   2
  -7   2  -9 185.864  20.592   2
  -7   3  -9 52.3111 14.7385   2
  -3  -7   9 30.2329 12.0795   3
  -7   4  -9 270.444  26.313   2
  -7   5  -9 45.9356 12.8217   2
  -7   6  -9 67.4555 14.7801   2
  -5   8  -9 -8.8926 16.4273   2
  -4   8  -9 16.8558 12.5361   2
  -3   8  -9  6.6790 16.0965   2
  -2   8  -9  0.5816 14.1149   2
  -1   8  -9 77.1293 17.1944   2
  -8   0  -9  4.2585 11.2293   2
   0   8  -9  4.3282 11.9947   2
   1   8  -9 50.8013 13.6134   2
  -8   1  -9 39.6791 12.8586   2
   2   8  -9 -10.639   8.959   2
  -8   2  -9 -2.5159  7.7286   2
  -8   3  -9  5.2321 12.1947   2
  -8   4  -9 24.5785 13.4734   2
  -8   5  -9 -6.2658 12.9901   2
  -3   9  -9  2.9254 16.2442   2
  -2   9  -9 69.6437 19.0305   2
  -1   9  -9 -15.349  12.878   2
   0   9  -9  3.8989 11.9091   2
   1   9  -9 6.55065 8.13578   2
  -9   2  -9 63.0183 13.8015   2
   0   1 -10  3.0705 12.3461   2
  -1   1 -10 242.097  23.566   2
  -1   2 -10 35.6520 13.6839   2
  -2   0 -10 540.037  36.423   2
   1   2 -10 41.3332 13.9258   2
  -2   1 -10 54.4967 14.7695   2
  -2   2 -10 12.0004 12.6730   2
  -2   3 -10  2.9439 12.3910   2
  -1   3 -10 -11.578  11.151   2
  -3   0 -10 0.39783 8.99150   2
   0   3 -10 -6.4586 11.0033   2
  -3   1 -10  4.5992 12.8545   2
   1   3 -10 -3.7620 11.4180   2
  -3   2 -10  1.1133 12.5439   2
   2   3 -10 -0.2582 11.2964   2
  -3   3 -10 906.051  52.726   2
  -3   4 -10 11.8745  9.7487   2
  -2   4 -10 75.8031 16.6465   2
  -1   4 -10 23.9096 12.8730   2
  -4   0 -10 326.053  24.612   2
   0   4 -10 262.009  22.810   2
  -4   1 -10 -4.0269 12.1867   2
   1   4 -10  3.0527 10.9313   2
   2   4 -10 77.3258 14.9626   2
  -4   2 -10 66.6433 15.8101   2
  -4   3 -10 17.6731 10.1402   2
   3   4 -10 17.1988 12.1174   2
  -4   4 -10 40.4582 15.3612   2
  -4   5 -10  1.6812 14.2421   2
  -3   5 -10 105.374  16.127   2
  -2   5 -10 -11.306  12.466   2
  -1   5 -10 354.787  27.021   2
   0   5 -10 -0.9092  8.0474   2
  -5   0 -10 -1.5430  8.9127   2
   1   5 -10 339.274  25.745   2
  -5   1 -10 408.624  31.130   2
  -5   2 -10 -1.4844 12.5002   2
   2   5 -10 -0.2651 10.3530   2
  -5   3 -10 75.7067 14.1109   2
   3   5 -10 101.658  14.804   2
  -5   4 -10  4.6511 14.1428   2
  -3   6 -10  6.4162 10.4817   2
  -2   6 -10 362.268  31.960   2
  -1   6 -10 22.5334 13.7388   2
   0   6 -10 17.3503  9.5564   2
  -6   0 -10 22.5904 13.7317   2
   1   6 -10 26.0784 12.1618   2
  -6   1 -10 27.5668 14.3482   2
   2   6 -10 285.201  24.569   2
  -6   2 -10 312.877  28.201   2
  -6   3 -10  3.5194 12.9808   2
   0   7 -10  6.5335 12.3419   2
   0   0   0    0.00    0.00   0
;
_shelx_hkl_checksum              20945
#END Tags that were not found in dictionaries
loop_
_space_group_symop_operation_xyz
'x, y, z'
'-x, -y, z'
'-y, x, z+1/2'
'y, -x, z+1/2'
'-x+1/2, y+1/2, -z'
'x+1/2, -y+1/2, -z'
'y+1/2, x+1/2, -z+1/2'
'-y+1/2, -x+1/2, -z+1/2'
'-x, -y, -z'
'x, y, -z'
'y, -x, -z-1/2'
'-y, x, -z-1/2'
'x-1/2, -y-1/2, z'
'-x-1/2, y-1/2, z'
'-y-1/2, -x-1/2, z-1/2'
'y-1/2, x-1/2, z-1/2'
loop_
_atom_site_label
_atom_site_type_symbol
_atom_site_fract_x
_atom_site_fract_y
_atom_site_fract_z
_atom_site_U_iso_or_equiv
_atom_site_adp_type
_atom_site_occupancy
_atom_site_site_symmetry_order
_atom_site_calc_flag
_atom_site_refinement_flags_posn
_atom_site_refinement_flags_adp
_atom_site_refinement_flags_occupancy
Co Co 0.0000 0.5000 0.2500 0.00673(7) Uani 1 4 d S T P
As As 0.18756(2) 0.17182(2) 0.0000 0.00773(6) Uani 1 2 d S T P
O1 O 0.18450(9) 0.31550(9) 0.2500 0.0127(2) Uani 1 2 d S T P
O2 O 0.10790(13) 0.63861(12) 0.0000 0.0090(2) Uani 1 2 d S T P
loop_
_atom_site_aniso_label
_atom_site_aniso_U_11
_atom_site_aniso_U_22
_atom_site_aniso_U_33
_atom_site_aniso_U_23
_atom_site_aniso_U_13
_atom_site_aniso_U_12
Co 0.00765(8) 0.00765(8) 0.00487(15) 0.000 0.000 -0.00130(7)
As 0.00789(7) 0.00768(7) 0.00763(10) 0.000 0.000 0.00115(4)
O1 0.0151(3) 0.0151(3) 0.0078(6) -0.0026(3) -0.0026(3) 0.0084(3)
O2 0.0084(4) 0.0114(4) 0.0071(5) 0.000 0.000 -0.0038(3)
loop_
_atom_type_symbol
_atom_type_description
_atom_type_scat_dispersion_real
_atom_type_scat_dispersion_imag
_atom_type_scat_source
O O 0.0106 0.0060 'International Tables Vol C Tables 4.2.6.8 and 6.1.1.4'
Co Co 0.3494 0.9721 'International Tables Vol C Tables 4.2.6.8 and 6.1.1.4'
As As 0.0499 2.0058 'International Tables Vol C Tables 4.2.6.8 and 6.1.1.4'
loop_
_geom_angle_atom_site_label_1
_geom_angle_atom_site_label_2
_geom_angle_atom_site_label_3
_geom_angle
_geom_angle_site_symmetry_1
_geom_angle_site_symmetry_3
O2 Co O2 88.48(4) . 7_455
O2 Co O2 92.43(4) . 9_565
O2 Co O2 169.76(6) 7_455 9_565
O2 Co O2 169.76(6) . 15_666
O2 Co O2 92.43(4) 7_455 15_666
O2 Co O2 88.48(4) 9_565 15_666
O2 Co O1 95.12(3) . .
O2 Co O1 84.88(3) 7_455 .
O2 Co O1 84.88(3) 9_565 .
O2 Co O1 95.12(3) 15_666 .
O2 Co O1 84.88(3) . 2_565
O2 Co O1 95.12(3) 7_455 2_565
O2 Co O1 95.12(3) 9_565 2_565
O2 Co O1 84.88(3) 15_666 2_565
O1 Co O1 180.0 . 2_565
O2 Co Co 133.78(2) . 9_566
O2 Co Co 46.22(2) 7_455 9_566
O2 Co Co 133.78(2) 9_565 9_566
O2 Co Co 46.22(2) 15_666 9_566
O1 Co Co 90.0 . 9_566
O1 Co Co 90.0 2_565 9_566
O2 Co Co 46.22(2) . 9_565
O2 Co Co 133.78(2) 7_455 9_565
O2 Co Co 46.22(2) 9_565 9_565
O2 Co Co 133.78(2) 15_666 9_565
O1 Co Co 90.0 . 9_565
O1 Co Co 90.0 2_565 9_565
Co Co Co 180.0 9_566 9_565
O2 Co O1 119.49(3) . 9_566
O2 Co O1 60.51(3) 7_455 9_566
O2 Co O1 126.99(3) 9_565 9_566
O2 Co O1 53.01(3) 15_666 9_566
O1 Co O1 127.772(14) . 9_566
O1 Co O1 52.228(14) 2_565 9_566
Co Co O1 37.772(14) 9_566 9_566
Co Co O1 142.228(14) 9_565 9_566
O2 Co O1 126.99(3) . 10_556
O2 Co O1 53.01(3) 7_455 10_556
O2 Co O1 119.49(3) 9_565 10_556
O2 Co O1 60.51(3) 15_666 10_556
O1 Co O1 52.228(14) . 10_556
O1 Co O1 127.772(14) 2_565 10_556
Co Co O1 37.772(14) 9_566 10_556
Co Co O1 142.228(14) 9_565 10_556
O1 Co O1 75.54(3) 9_566 10_556
O2 Co O1 53.01(3) . 9_565
O2 Co O1 126.99(3) 7_455 9_565
O2 Co O1 60.51(3) 9_565 9_565
O2 Co O1 119.49(3) 15_666 9_565
O1 Co O1 127.772(14) . 9_565
O1 Co O1 52.228(14) 2_565 9_565
Co Co O1 142.228(14) 9_566 9_565
Co Co O1 37.772(14) 9_565 9_565
O1 Co O1 104.46(3) 9_566 9_565
O1 Co O1 180.0 10_556 9_565
O2 Co O1 60.51(3) . 10
O2 Co O1 119.49(3) 7_455 10
O2 Co O1 53.01(3) 9_565 10
O2 Co O1 126.99(3) 15_666 10
O1 Co O1 52.228(14) . 10
O1 Co O1 127.772(14) 2_565 10
Co Co O1 142.228(14) 9_566 10
Co Co O1 37.772(14) 9_565 10
O1 Co O1 180.0 9_566 10
O1 Co O1 104.46(3) 10_556 10
O1 Co O1 75.54(3) 9_565 10
O2 As O1 96.76(3) 5_545 10
O2 As O1 96.76(3) 5_545 .
O1 As O1 99.03(4) 10 .
O2 As O2 156.54(3) 5_545 9_565
O1 As O2 68.77(3) 10 9_565
O1 As O2 68.77(3) . 9_565
O2 As O2 61.76(2) 5_545 3_655
O1 As O2 141.32(2) 10 3_655
O1 As O2 56.48(3) . 3_655
O2 As O2 118.068(14) 9_565 3_655
O2 As O2 61.76(2) 5_545 3_654
O1 As O2 56.48(3) 10 3_654
O1 As O2 141.32(2) . 3_654
O2 As O2 118.068(14) 9_565 3_654
O2 As O2 122.38(3) 3_655 3_654
O2 As O1 63.73(3) 5_545 4_554
O1 As O1 104.680(18) 10 4_554
O1 As O1 150.64(2) . 4_554
O2 As O1 136.41(2) 9_565 4_554
O2 As O1 94.206(18) 3_655 4_554
O2 As O1 50.30(2) 3_654 4_554
O2 As O1 63.73(3) 5_545 11_556
O1 As O1 150.64(2) 10 11_556
O1 As O1 104.680(18) . 11_556
O2 As O1 136.41(2) 9_565 11_556
O2 As O1 50.30(2) 3_655 11_556
O2 As O1 94.206(18) 3_654 11_556
O1 As O1 47.950(7) 4_554 11_556
O2 As O2 108.91(4) 5_545 .
O1 As O2 50.05(2) 10 .
O1 As O2 50.05(2) . .
O2 As O2 47.63(3) 9_565 .
O2 As O2 103.89(3) 3_655 .
O2 As O2 103.89(2) 3_654 .
O1 As O2 154.113(11) 4_554 .
O1 As O2 154.113(11) 11_556 .
O2 As O2 133.609(8) 5_545 15_665
O1 As O2 38.81(2) 10 15_665
O1 As O2 102.10(3) . 15_665
O2 As O2 40.566(9) 9_565 15_665
O2 As O2 157.695(16) 3_655 15_665
O2 As O2 77.641(13) 3_654 15_665
O1 As O2 107.218(12) 4_554 15_665
O1 As O2 145.52(2) 11_556 15_665
O2 As O2 58.32(2) . 15_665
O2 As O2 133.609(8) 5_545 15_666
O1 As O2 102.10(3) 10 15_666
O1 As O2 38.81(2) . 15_666
O2 As O2 40.566(9) 9_565 15_666
O2 As O2 77.641(14) 3_655 15_666
O2 As O2 157.695(16) 3_654 15_666
O1 As O2 145.52(2) 4_554 15_666
O1 As O2 107.218(12) 11_556 15_666
O2 As O2 58.32(2) . 15_666
O2 As O2 81.095(19) 15_665 15_666
O2 As O2 27.22(5) 5_545 13_665
O1 As O2 113.37(3) 10 13_665
O1 As O2 113.38(3) . 13_665
O2 As O2 176.24(3) 9_565 13_665
O2 As O2 62.441(17) 3_655 13_665
O2 As O2 62.441(17) 3_654 13_665
O1 As O2 40.600(17) 4_554 13_665
O1 As O2 40.600(17) 11_556 13_665
O2 As O2 136.13(3) . 13_665
O2 As O2 139.393(9) 15_665 13_665
O2 As O2 139.393(9) 15_666 13_665
As O1 As 124.09(6) . 15_666
As O1 Co 117.95(3) . .
As O1 Co 117.95(3) 15_666 .
As O1 O2 39.94(3) . 5_545
As O1 O2 88.37(4) 15_666 5_545
Co O1 O2 148.020(16) . 5_545
As O1 O2 88.37(4) . 3_655
As O1 O2 39.94(3) 15_666 3_655
Co O1 O2 148.020(16) . 3_655
O2 O1 O2 63.96(3) 5_545 3_655
As O1 O1 139.516(19) . 10_556
As O1 O1 40.484(19) 15_666 10_556
Co O1 O1 90.0 . 10_556
O2 O1 O1 121.687(16) 5_545 10_556
O2 O1 O1 58.313(16) 3_655 10_556
As O1 O1 40.484(19) . 10
As O1 O1 139.516(19) 15_666 10
Co O1 O1 90.0 . 10
O2 O1 O1 58.313(16) 5_545 10
O2 O1 O1 121.687(16) 3_655 10
O1 O1 O1 180.0 10_556 10
As O1 O2 159.28(4) . 7_455
As O1 O2 73.94(2) 15_666 7_455
Co O1 O2 45.37(2) . 7_455
O2 O1 O2 145.18(4) 5_545 7_455
O2 O1 O2 111.767(13) 3_655 7_455
O1 O1 O2 60.368(14) 10_556 7_455
O1 O1 O2 119.632(14) 10 7_455
As O1 O2 73.94(2) . 9_565
As O1 O2 159.28(4) 15_666 9_565
Co O1 O2 45.37(2) . 9_565
O2 O1 O2 111.767(13) 5_545 9_565
O2 O1 O2 145.18(4) 3_655 9_565
O1 O1 O2 119.632(14) 10_556 9_565
O1 O1 O2 60.368(14) 10 9_565
O2 O1 O2 90.75(5) 7_455 9_565
As O1 O2 102.839(19) . .
As O1 O2 119.31(2) 15_666 .
Co O1 O2 40.61(2) . .
O2 O1 O2 112.004(15) 5_545 .
O2 O1 O2 155.95(4) 3_655 .
O1 O1 O2 116.886(11) 10_556 .
O1 O1 O2 63.114(11) 10 .
O2 O1 O2 56.676(19) 7_455 .
O2 O1 O2 58.86(4) 9_565 .
As O1 O2 119.31(2) . 15_666
As O1 O2 102.839(19) 15_666 15_666
Co O1 O2 40.61(2) . 15_666
O2 O1 O2 155.95(4) 5_545 15_666
O2 O1 O2 112.004(15) 3_655 15_666
O1 O1 O2 63.115(11) 10_556 15_666
O1 O1 O2 116.886(11) 10 15_666
O2 O1 O2 58.86(4) 7_455 15_666
O2 O1 O2 56.676(19) 9_565 15_666
O2 O1 O2 81.22(4) . 15_666
As O1 As 96.923(7) . 3
As O1 As 104.174(4) 15_666 3
Co O1 As 67.061(17) . 3
O2 O1 As 126.87(3) 5_545 3
O2 O1 As 93.51(2) 3_655 3
O1 O1 As 66.025(3) 10_556 3
O1 O1 As 113.975(3) 10 3
O2 O1 As 87.04(3) 7_455 3
O2 O1 As 60.268(17) 9_565 3
O2 O1 As 105.95(3) . 3
O2 O1 As 29.94(2) 15_666 3
As O1 As 104.174(4) . 5
As O1 As 96.923(8) 15_666 5
Co O1 As 67.061(17) . 5
O2 O1 As 93.51(2) 5_545 5
O2 O1 As 126.87(3) 3_655 5
O1 O1 As 113.975(3) 10_556 5
O1 O1 As 66.025(3) 10 5
O2 O1 As 60.268(17) 7_455 5
O2 O1 As 87.04(3) 9_565 5
O2 O1 As 29.94(2) . 5
O2 O1 As 105.95(3) 15_666 5
As O1 As 134.12(3) 3 5
As O1 Co 71.694(15) . 9_565
As O1 Co 152.665(17) 15_666 9_565
Co O1 Co 52.228(14) . 9_565
O2 O1 Co 95.989(12) 5_545 9_565
O2 O1 Co 159.19(3) 3_655 9_565
O1 O1 Co 142.229(14) 10_556 9_565
O1 O1 Co 37.772(14) 10 9_565
O2 O1 Co 87.74(3) 7_455 9_565
O2 O1 Co 34.804(17) 9_565 9_565
O2 O1 Co 34.670(15) . 9_565
O2 O1 Co 83.83(2) 15_666 9_565
As O1 Co 94.730(19) 3 9_565
As O1 Co 55.950(10) 5 9_565
As O1 Co 152.666(17) . 9_566
As O1 Co 71.694(15) 15_666 9_566
Co O1 Co 52.228(14) . 9_566
O2 O1 Co 159.19(3) 5_545 9_566
O2 O1 Co 95.989(12) 3_655 9_566
O1 O1 Co 37.772(14) 10_556 9_566
O1 O1 Co 142.229(14) 10 9_566
O2 O1 Co 34.804(17) 7_455 9_566
O2 O1 Co 87.74(3) 9_565 9_566
O2 O1 Co 83.83(2) . 9_566
O2 O1 Co 34.670(15) 15_666 9_566
As O1 Co 55.950(10) 3 9_566
As O1 Co 94.730(19) 5 9_566
Co O1 Co 104.46(3) 9_565 9_566
As O2 Co 121.94(4) 5 9_565
As O2 Co 121.94(4) 5 .
Co O2 Co 87.57(4) 9_565 .
As O2 O1 43.30(2) 5 11_566
Co O2 O1 164.82(4) 9_565 11_566
Co O2 O1 103.778(16) . 11_566
As O2 O1 43.30(2) 5 4_564
Co O2 O1 103.778(16) 9_565 4_564
Co O2 O1 164.82(4) . 4_564
O1 O2 O1 63.37(3) 11_566 4_564
As O2 O2 85.71(3) 5 7_455
Co O2 O2 132.44(3) 9_565 7_455
Co O2 O2 45.76(2) . 7_455
O1 O2 O2 58.020(16) 11_566 7_455
O1 O2 O2 120.817(19) 4_564 7_455
As O2 O2 85.71(3) 5 7_454
Co O2 O2 45.76(2) 9_565 7_454
Co O2 O2 132.44(3) . 7_454
O1 O2 O2 120.817(19) 11_566 7_454
O1 O2 O2 58.020(16) 4_564 7_454
O2 O2 O2 165.30(9) 7_455 7_454
As O2 O1 145.69(3) 5 9_565
Co O2 O1 49.75(2) 9_565 9_565
Co O2 O1 92.18(4) . 9_565
O1 O2 O1 137.86(4) 11_566 9_565
O1 O2 O1 102.83(2) 4_564 9_565
O2 O2 O1 125.47(4) 7_455 9_565
O2 O2 O1 66.39(3) 7_454 9_565
As O2 O1 145.69(3) 5 2_565
Co O2 O1 92.18(4) 9_565 2_565
Co O2 O1 49.75(3) . 2_565
O1 O2 O1 102.83(2) 11_566 2_565
O1 O2 O1 137.86(4) 4_564 2_565
O2 O2 O1 66.39(3) 7_455 2_565
O2 O2 O1 125.47(4) 7_454 2_565
O1 O2 O1 59.26(3) 9_565 2_565
As O2 As 138.09(5) 5 9_565
Co O2 As 86.24(3) 9_565 9_565
Co O2 As 86.24(3) . 9_565
O1 O2 As 104.31(3) 11_566 9_565
O1 O2 As 104.31(3) 4_564 9_565
O2 O2 As 97.18(4) 7_455 9_565
O2 O2 As 97.18(4) 7_454 9_565
O1 O2 As 37.30(2) 9_565 9_565
O1 O2 As 37.30(2) 2_565 9_565
As O2 O2 137.12(7) 5 9_565
Co O2 O2 43.78(2) 9_565 9_565
Co O2 O2 43.78(2) . 9_565
O1 O2 O2 146.44(3) 11_566 9_565
O1 O2 O2 146.44(3) 4_564 9_565
O2 O2 O2 89.094(11) 7_455 9_565
O2 O2 O2 89.094(11) 7_454 9_565
O1 O2 O2 65.09(4) 9_565 9_565
O1 O2 O2 65.09(4) 2_565 9_565
As O2 O2 84.78(5) 9_565 9_565
As O2 O1 86.33(4) 5 .
Co O2 O1 84.82(3) 9_565 .
Co O2 O1 44.27(2) . .
O1 O2 O1 96.21(2) 11_566 .
O1 O2 O1 125.68(4) 4_564 .
O2 O2 O1 56.93(3) 7_455 .
O2 O2 O1 110.57(5) 7_454 .
O1 O2 O1 121.15(4) 9_565 .
O1 O2 O1 94.02(4) 2_565 .
As O2 O1 129.93(3) 9_565 .
O2 O2 O1 56.05(3) 9_565 .
As O2 O1 86.33(4) 5 10
Co O2 O1 44.27(2) 9_565 10
Co O2 O1 84.82(3) . 10
O1 O2 O1 125.68(4) 11_566 10
O1 O2 O1 96.21(2) 4_564 10
O2 O2 O1 110.57(5) 7_455 10
O2 O2 O1 56.93(3) 7_454 10
O1 O2 O1 94.02(4) 9_565 10
O1 O2 O1 121.15(4) 2_565 10
As O2 O1 129.93(3) 9_565 10
O2 O2 O1 56.05(3) 9_565 10
O1 O2 O1 53.77(2) . 10
As O2 As 76.31(2) 5 11_566
Co O2 As 159.67(4) 9_565 11_566
Co O2 As 74.047(6) . 11_566
O1 O2 As 35.153(12) 11_566 11_566
O1 O2 As 95.91(3) 4_564 11_566
O2 O2 As 32.527(19) 7_455 11_566
O2 O2 As 153.492(19) 7_454 11_566
O1 O2 As 121.00(4) 9_565 11_566
O1 O2 As 69.430(12) 2_565 11_566
As O2 As 84.01(2) 9_565 11_566
O2 O2 As 117.329(18) 9_565 11_566
O1 O2 As 87.829(12) . 11_566
O1 O2 As 138.99(3) 10 11_566
As O2 As 76.31(2) 5 11_565
Co O2 As 74.047(6) 9_565 11_565
Co O2 As 159.67(4) . 11_565
O1 O2 As 95.91(3) 11_566 11_565
O1 O2 As 35.153(13) 4_564 11_565
O2 O2 As 153.492(19) 7_455 11_565
O2 O2 As 32.527(19) 7_454 11_565
O1 O2 As 69.430(12) 9_565 11_565
O1 O2 As 121.00(4) 2_565 11_565
As O2 As 84.01(2) 9_565 11_565
O2 O2 As 117.329(18) 9_565 11_565
O1 O2 As 138.99(3) . 11_565
O1 O2 As 87.829(12) 10 11_565
As O2 As 122.38(3) 11_566 11_565
loop_
_geom_bond_atom_site_label_1
_geom_bond_atom_site_label_2
_geom_bond_distance
_geom_bond_site_symmetry_2
Co O2 2.0305(7) .
Co O2 2.0305(7) 7_455
Co O2 2.0305(7) 9_565
Co O2 2.0305(7) 15_666
Co O1 2.1775(11) .
Co O1 2.1775(11) 2_565
Co Co 2.81005(5) 9_566
Co Co 2.81005(5) 9_565
Co O1 3.5550(7) 9_566
Co O1 3.5550(7) 10_556
Co O1 3.5550(7) 9_565
Co O1 3.5550(7) 10
As O2 1.7292(11) 5_545
As O1 1.8473(5) 10
As O1 1.8473(5) .
As O2 2.9296(11) 9_565
As O2 3.2071(5) 3_655
As O2 3.2071(5) 3_654
As O1 3.4578(4) 4_554
As O1 3.4578(4) 11_556
As O2 3.9518(11) .
As O2 4.3226(8) 15_665
As O2 4.3226(8) 15_666
As O2 4.3608(10) 13_665
O1 As 1.8473(5) 15_666
O1 O2 2.6748(12) 5_545
O1 O2 2.6748(12) 3_655
O1 O1 2.81005(5) 10_556
O1 O1 2.81005(5) 10
O1 O2 2.8417(12) 7_455
O1 O2 2.8417(12) 9_565
O1 O2 3.1070(12) .
O1 O2 3.1070(12) 15_666
O1 As 3.4578(4) 3
O1 As 3.4578(4) 5
O1 Co 3.5550(7) 9_565
O1 Co 3.5550(7) 9_566
O2 As 1.7293(11) 5
O2 Co 2.0305(7) 9_565
O2 O1 2.6748(12) 11_566
O2 O1 2.6748(12) 4_564
O2 O2 2.8333(3) 7_455
O2 O2 2.8333(3) 7_454
O2 O1 2.8417(12) 9_565
O2 O1 2.8417(12) 2_565
O2 As 2.9296(11) 9_565
O2 O2 2.932(2) 9_565
O2 O1 3.1070(12) 10
O2 As 3.2071(5) 11_566
O2 As 3.2071(5) 11_565
