#------------------------------------------------------------------------------
#$Date: 2016-03-26 22:57:29 +0200 (Sat, 26 Mar 2016) $
#$Revision: 180524 $
#$URL: svn://www.crystallography.net/cod/cif/7/21/93/7219318.cif $
#------------------------------------------------------------------------------
#
# This file is available in the Crystallography Open Database (COD),
# http://www.crystallography.net/
#
# All data on this site have been placed in the public domain by the
# contributors.
#
data_7219318
loop_
_publ_author_name
'Tarasevych, Arkadii V.'
'Sorochinsky, Alexander E.'
'Kukhar, Valery P.'
'Toupet, Lo\"ic'
'Crassous, Jeanne'
'Guillemin, Jean-Claude'
_publ_section_title
;
 Attrition-induced spontaneous chiral amplification of the \g polymorphic
 modification of glycine
;
_journal_issue                   7
_journal_name_full               CrystEngComm
_journal_page_first              1513
_journal_paper_doi               10.1039/C4CE02434F
_journal_volume                  17
_journal_year                    2015
_chemical_formula_sum            'C2 H5 N O2'
_chemical_formula_weight         75.07
_space_group_crystal_system      trigonal
_space_group_IT_number           144
_space_group_name_Hall           'P 31'
_space_group_name_H-M_alt        'P 31'
_symmetry_space_group_name_Hall  'P 31'
_symmetry_space_group_name_H-M   'P 31'
_atom_sites_solution_hydrogens   geom
_audit_block_doi                 10.5517/cc13tkbt
_audit_creation_method           SHELXL-2014/6
_audit_update_record
;
2014-12-03 deposited with the CCDC.
2015-01-06 downloaded from the CCDC.
;
_cell_angle_alpha                90
_cell_angle_beta                 90
_cell_angle_gamma                120
_cell_formula_units_Z            3
_cell_length_a                   7.0047(2)
_cell_length_b                   7.0047(2)
_cell_length_c                   5.4772(3)
_cell_measurement_reflns_used    2428
_cell_measurement_temperature    200(2)
_cell_measurement_theta_max      69.1020
_cell_measurement_theta_min      7.2630
_cell_volume                     232.739(16)
_computing_cell_refinement
;
CrysAlisPro, Agilent Technologies,
Version 1.171.37.34 (release 22-05-2014 CrysAlis171 .NET)
(compiled May 22 2014,16:03:01)
;
_computing_data_collection
;
CrysAlisPro, Agilent Technologies,
Version 1.171.37.34 (release 22-05-2014 CrysAlis171 .NET)
(compiled May 22 2014,16:03:01)
;
_computing_data_reduction
;
CrysAlisPro, Agilent Technologies,
Version 1.171.37.34 (release 22-05-2014 CrysAlis171 .NET)
(compiled May 22 2014,16:03:01)
;
_computing_molecular_graphics    'MERCURY 3.3(CCDC, 2014)'
_computing_publication_material  'WINGX (L.J. Farrugia, 2012)'
_computing_structure_refinement  'SHELXL-2014/6 (Sheldrick, 2014)'
_computing_structure_solution    'SIR-97_(Altomare & al., 1999)'
_diffrn_ambient_temperature      200(2)
_diffrn_detector                 'CCD plate'
_diffrn_detector_area_resol_mean 8.0662
_diffrn_detector_type            EosS2
_diffrn_measured_fraction_theta_full 0.562
_diffrn_measured_fraction_theta_max 1.000
_diffrn_measurement_device       'four-circle diffractometer'
_diffrn_measurement_device_type  'SuperNova, Single source at offset, EosS2'
_diffrn_radiation_monochromator  mirror
_diffrn_radiation_probe          x-ray
_diffrn_radiation_type           'Cu K\a'
_diffrn_radiation_wavelength     1.54184
_diffrn_reflns_av_R_equivalents  0.0451
_diffrn_reflns_av_unetI/netI     0.0218
_diffrn_reflns_Laue_measured_fraction_full 0.562
_diffrn_reflns_Laue_measured_fraction_max 1.000
_diffrn_reflns_limit_h_max       6
_diffrn_reflns_limit_h_min       -6
_diffrn_reflns_limit_k_max       6
_diffrn_reflns_limit_k_min       -6
_diffrn_reflns_limit_l_max       5
_diffrn_reflns_limit_l_min       -5
_diffrn_reflns_number            1610
_diffrn_reflns_point_group_measured_fraction_full 0.550
_diffrn_reflns_point_group_measured_fraction_max 0.978
_diffrn_reflns_theta_full        67.684
_diffrn_reflns_theta_max         49.723
_diffrn_reflns_theta_min         7.301
_diffrn_source                   'sealed X-ray tube'
_diffrn_source_type              'SuperNova (Cu) X-ray Source'
_exptl_absorpt_coefficient_mu    1.243
_exptl_absorpt_correction_T_max  1.00000
_exptl_absorpt_correction_T_min  0.52487
_exptl_absorpt_correction_type   multi-scan
_exptl_absorpt_process_details
;
CrysAlisPro, Agilent Technologies,
Version 1.171.37.34 (release 22-05-2014 CrysAlis171 .NET)
(compiled May 22 2014,16:03:01)
Empirical absorption correction using spherical harmonics,
 implemented in SCALE3 ABSPACK scaling algorithm.
;
_exptl_crystal_colour            colourless
_exptl_crystal_density_diffrn    1.607
_exptl_crystal_description       block
_exptl_crystal_F_000             120
_exptl_crystal_size_max          0.319
_exptl_crystal_size_mid          0.074
_exptl_crystal_size_min          0.066
_refine_diff_density_max         0.480
_refine_diff_density_min         -0.413
_refine_diff_density_rms         0.106
_refine_ls_abs_structure_details
;
 Flack x determined using 150 quotients [(I+)-(I-)]/[(I+)+(I-)]
 (Parsons, Flack and Wagner, Acta Cryst. B69 (2013) 249-259).
;
_refine_ls_abs_structure_Flack   -0.1(4)
_refine_ls_extinction_coef       0.25(9)
_refine_ls_extinction_expression Fc^*^=kFc[1+0.001xFc^2^\l^3^/sin(2\q)]^-1/4^
_refine_ls_extinction_method     SHELXL
_refine_ls_goodness_of_fit_ref   1.229
_refine_ls_hydrogen_treatment    constr
_refine_ls_matrix_type           full
_refine_ls_number_parameters     47
_refine_ls_number_reflns         309
_refine_ls_number_restraints     1
_refine_ls_restrained_S_all      1.226
_refine_ls_R_factor_all          0.0770
_refine_ls_R_factor_gt           0.0770
_refine_ls_shift/su_max          0.024
_refine_ls_shift/su_mean         0.008
_refine_ls_structure_factor_coef Fsqd
_refine_ls_weighting_details
'w=1/[\s^2^(Fo^2^)+(0.1098P)^2^+1.3308P] where P=(Fo^2^+2Fc^2^)/3'
_refine_ls_weighting_scheme      calc
_refine_ls_wR_factor_gt          0.2202
_refine_ls_wR_factor_ref         0.2202
_reflns_Friedel_coverage         0.956
_reflns_Friedel_fraction_full    0.537
_reflns_Friedel_fraction_max     0.956
_reflns_number_gt                309
_reflns_number_total             309
_reflns_threshold_expression     'I > 2\s(I)'
_cod_data_source_file            c4ce02434f2.cif
_cod_data_source_block           shelx
_cod_depositor_comments
'Adding full bibliography for 7219316--7219319.cif.'
_cod_original_cell_volume        232.738(18)
_cod_database_code               7219318
#BEGIN Tags that were not found in dictionaries:
_shelx_space_group_comment
;
The symmetry employed for this shelxl refinement is uniquely defined
by the following loop, which should always be used as a source of
symmetry information in preference to the above space-group names.
They are only intended as comments.
;
_shelxl_version_number           2014/6
_shelx_res_file
;
TITL test structure: gly_d_cu_200k
CELL  1.54184   7.0047   7.0047   5.4772   90.000   90.000  120.000
ZERR     3.00   0.0002   0.0002   0.0003    0.000    0.000    0.000
LATT  -1
SYMM  - Y,   X - Y, 1/3 + Z
SYMM  - X + Y, - X, 2/3 + Z
SFAC  C    H    N    O
UNIT  6    15   3    6
OMIT -4 100
MERG   2
FMAP   2
PLAN   45
ACTA
BOND   $H
CONF
LIST   4
WPDB  -2
L.S.   8
TEMP   -73.00
WGHT    0.109800    1.330800
EXTI    0.247046
FVAR      31.81765
O1    4    0.323828   -0.109175    0.691301    11.00000    0.03411    0.02027 =
         0.02162    0.00824    0.01001    0.02102
O2    4    0.332445    0.209312    0.719358    11.00000    0.05304    0.01556 =
         0.01591   -0.00463   -0.00913    0.02303
N1    3    0.311699   -0.118349    0.205286    11.00000    0.02043    0.01717 =
         0.01824    0.00677    0.01705    0.00885
AFIX  33
H1A   2    0.323950   -0.101424    0.040274    11.00000   -1.50000
H1B   2    0.411070   -0.155778    0.260773    11.00000   -1.50000
H1C   2    0.172973   -0.226643    0.244245    11.00000   -1.50000
AFIX   0
C1    1    0.335118    0.061825    0.594730    11.00000    0.02521    0.02543 =
         0.00522    0.00199    0.00529    0.01160
C2    1    0.355394    0.089296    0.319048    11.00000    0.02222    0.00324 =
         0.03853    0.00162    0.00936    0.00324
AFIX  23
H2A   2    0.248625    0.131474    0.257804    11.00000   -1.20000
H2B   2    0.505623    0.207964    0.275643    11.00000   -1.20000
AFIX   0
HKLF    4

REM  test structure: gly_d_cu_200k
REM R1 =  0.0770 for     309 Fo > 4sig(Fo)  and  0.0770 for all     309 data
REM     47 parameters refined using      1 restraints

END

WGHT      0.0889      1.3383

REM Highest difference peak  0.480,  deepest hole -0.413,  1-sigma level  0.106
Q1    1   0.3175  0.0813  0.1130  11.00000  0.05    0.48
Q2    1   0.5574  0.1177  0.2839  11.00000  0.05    0.36
Q3    1   0.4875  0.2154  0.6696  11.00000  0.05    0.33
Q4    1   0.3844 -0.3116  0.3282  11.00000  0.05    0.31
Q5    1   0.3356  0.0074 -0.1230  11.00000  0.05    0.30
Q6    1   0.1515  0.0415  0.6334  11.00000  0.05    0.28
Q7    1   0.2095 -0.0883  0.2733  11.00000  0.05    0.24
Q8    1   0.3766  0.3213  0.5863  11.00000  0.05    0.23
Q9    1   0.1331 -0.3625  0.1557  11.00000  0.05    0.23
Q10   1   0.1638 -0.1769  0.5300  11.00000  0.05    0.23
Q11   1   0.1933  0.0719  0.4060  11.00000  0.05    0.20
Q12   1   0.0698  0.0159  0.1029  11.00000  0.05    0.20
Q13   1   0.1738  0.1821  0.0314  11.00000  0.05    0.20
Q14   1   0.5085  0.2532  0.3674  11.00000  0.05    0.19
Q15   1   0.5378  0.4235  0.1873  11.00000  0.05    0.19
Q16   1   0.5676  0.0927  0.7389  11.00000  0.05    0.17
Q17   1   0.6385  0.3019  0.1477  11.00000  0.05    0.16
Q18   1   0.1505 -0.1124 -0.0180  11.00000  0.05    0.12
Q19   1   0.3040  0.3025  0.8624  11.00000  0.05    0.11
Q20   1   0.1467 -0.0452 -0.0080  11.00000  0.05    0.11
Q21   1   0.4071 -0.0874  0.3980  11.00000  0.05    0.09
Q22   1   0.3240  0.3545  0.1062  11.00000  0.05    0.08
Q23   1   0.5274  0.1314  0.0059  11.00000  0.05    0.07
Q24   1   0.5644 -0.0933  0.5927  11.00000  0.05    0.06
;
_shelx_res_checksum              51827
_shelx_hkl_file
;
   0   0  -6 63185.9 2937.70  45
   0   0  -6 63999.8 2628.18  44
   0   0  -5 1.66815 127.248  45
   0   0  -5-7.07100 89.6366  44
   0   0  -4 48.8829 58.5792  68
   0   0  -4 183.392 196.237  53
   0   0  -3 372954. 6944.41  53
   0   0  -3 359091. 6153.51  68
   0   0  -2-0.64462 46.6758  68
   0   0  -2 4.23929 68.9254  53
   0   0  -1 9.27603 16.7345  54
   0   0   1 6.94808 8.61759  54
   0   0   2 91.2113 37.4609   1
   0   0   3 385234. 5137.07   3
   0   0   3 348399. 5824.46  55
   0   0   4-17.2412 110.838  55
   0   0   5-117.942 118.655   6
   0   1  -6 14925.0 1186.91  44
   1  -1  -6 13114.8 1203.41  45
  -1   0  -6 15527.0 1483.19  45
   1  -1  -6 15386.9 1241.03  44
  -1   0  -6 13924.4 1149.61  44
  -1   0  -5 33279.8 2488.74  46
   1  -1  -5 32651.8 2079.20  44
   0   1  -5 35795.2 2529.77  45
  -1   0  -5 30678.6 2408.36  45
  -1   0  -5 30850.6 1968.34  44
   1  -1  -5 32128.9 2313.28  45
   0   1  -5 31160.0 1970.59  44
   0   1  -5 34322.1 2521.33  46
   1  -1  -4 49147.1 2319.35  68
  -1   0  -4 48952.3 2100.30  68
  -1   0  -4 47958.8 2760.10  53
   0   1  -4 49262.8 2315.15  68
   1  -1  -3 6890.09 717.174  68
   0   1  -3 6369.44 708.776  43
  -1   0  -3 6518.63 611.293  68
  -1   0  -3 6354.65 831.726  53
   1  -1  -3 5902.94 711.306  53
   0   1  -3 6699.11 693.585  68
   1  -1  -2 25428.0 1138.82  69
   1  -1  -2 24894.7 1156.53  53
  -1   0  -2 24356.7 959.544  68
   1  -1  -2 25570.2 1031.96  54
  -1   0  -2 25725.7 1370.84  53
   0   1  -2 25392.4 1114.41  68
   0   1  -2 25647.0 1137.58  43
  -1   0  -1 272124. 4288.38  53
   1  -1  -1 259087. 3333.84  64
   0   1  -1 268464. 3602.26   1
  -1   0   0 23800.8 635.679  54
   1  -1   0 22468.8 612.040   1
   1  -1   1 167110. 2438.52   5
  -1   0   1 166275. 2122.65   4
  -1   0   1 172646. 2363.31   3
  -1   0   1 178753. 2824.82  54
   0   1   1 156415. 2822.15   2
   1  -1   1 167048. 2667.14   1
   1  -1   2 861085. 10982.4   1
   1  -1   2 829950. 10356.4  54
   0   1   2 940509. 11150.6  55
  -1   0   2 957030. 10321.9   4
   0   1   2 983162. 11039.1  58
  -1   0   2 999999. 10770.0   3
   1  -1   3 14478.8 879.416  55
   0   1   3 14865.0 922.942  55
  -1   0   3 16347.8 790.968   3
   0   1   4 17162.4 1139.68  57
  -1   0   4 18196.7 1274.59  55
   1  -1   4 20335.0 1227.34   5
   1  -1   4 17770.4 1153.44  55
   0   1   5 3699.65 519.381   6
  -1   1  -6 8018.46 882.589  44
   0  -1  -6 6981.17 962.790  45
   1   0  -6 8731.10 916.431  44
  -1   1  -6 9788.25 1101.06  46
   0  -1  -6 7884.24 846.550  44
  -1   1  -5 3330.41 636.426  44
   1   0  -5 3538.38 735.387  45
   1   0  -5 3614.74 677.419  44
  -1   1  -5 4160.50 896.862  46
   0  -1  -5 3968.27 698.131  44
  -1   1  -5 3928.11 844.222  45
   0  -1  -5 3519.95 799.574  45
   1   0  -4 20691.6 1522.03  68
   0  -1  -4 18315.9 1270.77  68
  -1   1  -4 21463.6 1717.95  43
   0  -1  -4 19571.4 1708.40  53
  -1   1  -4 19266.5 1375.58  68
   0  -1  -3 14829.1 960.413  68
   1   0  -3 15883.9 1119.73  68
   0  -1  -3 16424.4 1331.68  53
  -1   1  -3 15989.2 1037.87  68
   0  -1  -2 929336. 12139.1  53
   1   0  -2 905721. 11084.1  47
  -1   1  -2 915997. 11280.9  68
   1   0  -2 891882. 11617.0  69
   0  -1  -2 910778. 10546.5  54
  -1   1  -1 175430. 2894.28  66
   1   0  -1 172928. 2838.47  47
   0  -1  -1 172147. 2960.03  53
   1   0  -1 180890. 2866.06  54
   1   0  -1 169836. 2766.05  69
  -1   1  -1 165665. 3024.99  43
  -1   1  -1 161003. 2579.25  68
   1   0   0 23675.1 629.457  54
   0  -1   0 24342.5 801.260   2
  -1   1   0 22654.9 611.329   1
   1   0   1 249760. 3978.43  58
   0  -1   1 261312. 3323.92   4
  -1   1   1 255125. 2980.70   1
   0  -1   2 24411.7 978.205  54
   1   0   2 24312.1 993.684  59
  -1   1   2 23692.3 895.750  57
   1   0   2 23055.8 1159.99  58
   1   0   2 23732.8 889.604  55
  -1   1   2 26290.6 1039.41  55
  -1   1   3 5874.95 596.990  55
  -1   1   3 6098.53 535.154  57
   1   0   3 7123.42 600.536  55
   1   0   3 5525.08 622.868  58
   0  -1   4 44041.5 1980.84  55
  -1   1   4 43330.9 1951.62  55
   1   0   4 47806.0 1733.99   6
   1  -2  -6 15975.8 1319.09  45
   1  -2  -6 15484.1 1141.97  44
  -2   1  -6 17199.8 1465.14  46
  -2   1  -6 16601.5 1478.33  45
   1   1  -6 15073.4 1085.48  44
   1   1  -5 18727.1 1495.91  44
  -2   1  -5 22222.7 2125.84  46
   1  -2  -5 18414.9 1498.95  44
  -2   1  -5 19942.4 1582.68  44
  -2   1  -5 20760.5 1970.25  45
   1   1  -5 19167.4 1756.95  42
   1  -2  -5 19919.5 1869.23  45
   1  -2  -4 68067.1 3274.86  53
  -2   1  -4 68995.0 2859.03  44
   1   1  -4 61876.0 3255.25  42
  -2   1  -4 67490.8 3332.94  43
   1   1  -4 64382.5 2688.21  44
  -2   1  -4 73025.8 2699.82  68
  -2   1  -4 72761.2 3570.27  45
  -2   1  -4 69741.2 3717.46  46
   1   1  -4 65764.4 2800.20  68
   1   1  -4 79900.2 3814.19  46
   1  -2  -4 66562.9 2747.38  44
  -2   1  -3 162496. 3697.56  68
   1  -2  -3 167097. 4591.06  53
   1  -2  -2 229911. 3332.49  64
   1   1  -2 231042. 4259.10  47
   1  -2  -2 225886. 4072.95  69
   1   1  -2 218269. 4206.66  68
  -2   1  -2 219293. 3847.83  68
   1   1  -1 64517.7 1798.57  52
   1   1  -1 68608.2 1612.44  68
  -2   1  -1 57374.5 1832.40  43
  -2   1  -1 70226.3 1310.95  67
  -2   1  -1 58564.0 1595.76  66
   1  -2  -1 64078.4 1232.79  64
   1  -2  -1 59762.4 1706.40   2
   1  -2   0 891837. 9657.40  63
   1   1   0 818221. 10813.3   2
  -2   1   0 784701. 10002.5  62
   1   1   0 880737. 9667.77  65
   1   1   0 858046. 10371.8  52
   1  -2   0 907714. 10082.0  60
  -2   1   1 122142. 2392.96  56
   1  -2   1 127115. 2208.22  61
   1   1   1 128960. 2279.06  52
   1  -2   1 124916. 2100.91   4
   1   1   1 117653. 1888.94  65
   1   1   1 134705. 2498.19  58
   1   1   1 121336. 2160.94   6
  -2   1   1 131977. 1946.34  57
   1  -2   2 66598.8 1894.99  61
  -2   1   2 64851.5 1389.80  57
   1  -2   2 63581.1 1577.79   5
   1   1   2 64399.9 1923.03  58
   1  -2   3 62576.5 1899.06   5
  -2   1   3 59816.4 2125.98  55
   1   1   3 63966.5 2164.75  58
  -2   1   4 54868.1 2203.40  56
   1  -2   4 54271.6 1810.81   4
  -3   1  -6 88961.4 3209.60  46
   2  -3  -6 83767.6 2428.29  44
   1   2  -6 83151.3 2602.48  42
  -3   1  -5 13776.2 1491.86  45
   1   2  -5 13116.0 1457.27  42
  -3   1  -5 14938.0 1742.60  46
   2  -3  -5 13513.7 1233.68  44
  -3   1  -4 50287.0 2668.37  38
  -3   1  -4 44122.0 2788.29  43
   1   2  -4 41164.5 2779.33  42
   2  -3  -4 45461.4 2348.54  44
   1   2  -4 46877.0 2355.09  68
  -3   1  -4 46134.8 3168.86  46
  -3   1  -4 49839.6 2905.61  45
  -3   1  -3 21735.9 1757.18  43
   2  -3  -3 29597.4 1714.56  69
   2  -3  -3 20192.4 1618.73  53
   1   2  -3 29393.3 1657.10  68
   2  -3  -2 39304.9 1711.16  69
   2  -3  -2 38841.2 1276.44  64
   1   2  -2 39286.0 1589.21  68
   1   2  -2 35656.9 1738.68  52
  -3   1  -1 149991. 2635.77  67
   1   2  -1 151674. 3511.10  52
   2  -3  -1 154697. 3473.69   2
  -3   1  -1 149862. 3492.00  43
  -3   1  -1 150498. 2904.38  66
  -3   1   0 502283. 6561.80  66
   1   2   0 515706. 7565.29  52
   2  -3   1 57605.8 1749.00  60
   1   2   1 61995.1 1905.12  52
   1   2   1 52452.8 1579.00   6
   1   2   1 58595.4 1299.42  65
  -3   1   1 54642.2 1858.05  62
   2  -3   1 60225.8 1495.12   4
  -3   1   2 16664.2 1019.13  56
   1   2   2 16614.8 933.883   6
   2  -3   2 14443.9 938.427  60
   2  -3   2 16824.8 889.847   4
  -3   1   3 28403.0 1509.14  56
   1   2   3 26876.7 1373.40   6
   2  -3   3 30732.7 1378.80   4
   2  -3   3 26436.7 1458.63  60
  -3   1   4 42770.1 2144.47  62
  -3   1   4 51211.7 2112.86  56
   1   2   4 48034.2 2334.20  57
   2  -3   4 46846.7 2616.39  59
   1   2   4 54999.7 2214.55   6
   2  -2  -6 2191.60 427.894  44
   0   2  -6 2573.84 527.928  46
  -2   0  -6 2399.26 548.116  45
   0   2  -5 5363.38 962.239  42
   0   2  -5 6345.65 1087.31  46
  -2   0  -5 5781.29 812.479  44
  -2   0  -5 5501.57 1037.31  46
   0   2  -5 6258.22 843.536  44
  -2   0  -5 5347.58 978.456  45
   2  -2  -5 5545.87 851.027  44
   0   2  -4 237767. 7021.65  46
   2  -2  -4 203353. 5403.76  68
  -2   0  -4 201670. 6219.24  45
   2  -2  -4 203399. 5410.70  44
   0   2  -4 199246. 5090.21  44
  -2   0  -4 200055. 6545.37  46
   0   2  -4 244138. 6795.19  45
   0   2  -4 181333. 6059.42  42
  -2   0  -4 204620. 5110.76  44
   0   2  -4 202799. 5170.56  68
   0   2  -3 72426.9 2524.60  68
  -2   0  -3 74364.7 3196.77  53
   2  -2  -3 75838.1 2798.64  69
  -2   0  -2 93867.5 3053.82  53
   0   2  -2 97026.6 2522.29  68
   2  -2  -2 97738.3 2058.70  64
   2  -2  -2 96275.1 2709.23  69
   2  -2  -2 92865.4 2610.62  53
   0   2  -2 97586.3 2524.66  52
   0   2  -1 102352. 2208.70  66
   2  -2  -1 95142.1 1829.29  64
  -2   0  -1 103903. 1862.40  70
  -2   0  -1 97224.5 2547.33  53
   0   2  -1 100807. 2039.74  68
   0   2  -1 104839. 2371.24  52
  -2   0   0 280348. 4190.09  61
   2  -2   0 297810. 3560.51   4
   0   2   0 276389. 3838.44  57
  -2   0   0 289616. 4164.12  54
  -2   0   0 286075. 3863.52  67
   2  -2   0 275650. 4302.81  59
   2  -2   1 95401.5 1940.78  60
  -2   0   1 94514.5 2296.48  54
   0   2   1 96637.0 1819.26   6
   2  -2   1 101993. 2334.92   1
  -2   0   1 100994. 2319.17  62
   2  -2   2 505463. 6992.21   5
  -2   0   2 558045. 7261.43  56
  -2   0   2 521363. 6797.26   3
   0   2   2 544578. 6938.72   6
   2  -2   2 471578. 6875.95  60
   2  -2   3 87233.7 2432.23   5
   0   2   3 87508.4 2338.93   6
  -2   0   3 85960.1 2396.62  56
   0   2   4 13432.2 991.958   6
   2  -2   4 11192.3 1227.59  58
   0   2   4 11614.3 1046.15  57
  -2   0   4 10878.2 990.792  62
  -1   2  -6 6505.89 901.939  46
   2  -1  -6 7021.14 808.255  44
  -1  -1  -6 5703.25 875.811  45
  -1  -1  -5 12929.6 1573.79  45
   2  -1  -5 14586.3 1393.99  44
  -1  -1  -5 13780.8 1225.93  44
  -1   2  -5 13147.7 1256.48  44
  -1   2  -5 13435.0 1592.53  46
  -1   2  -5 15507.6 1716.20  45
  -1   2  -4 70636.1 3646.14  45
   2  -1  -4 65069.7 2832.13  44
   2  -1  -4 65517.3 2936.75  68
  -1   2  -4 67671.0 3574.00  46
  -1   2  -4 64845.0 2760.77  44
  -1  -1  -4 59155.9 3218.06  53
  -1   2  -4 67660.6 2754.59  68
   2  -1  -3 74347.4 2758.39  69
  -1   2  -3 69816.9 2731.30  43
  -1   2  -3 75484.8 2540.91  68
   2  -1  -2 80512.9 2337.61  69
  -1   2  -2 82986.3 2188.86  68
   2  -1  -1 130835. 1721.36   1
  -1  -1  -1 127684. 2752.95  53
  -1   2  -1 127304. 2500.08   1
   2  -1  -1 126476. 2572.15  54
  -1   2  -1 139582. 2726.55  66
   2  -1  -1 123883. 2109.98  64
  -1   2  -1 117069. 2297.32  68
  -1  -1  -1 125887. 2056.25  70
  -1  -1  -1 115568. 2022.85  63
   2  -1  -1 108692. 1828.49  65
   2  -1   0 869770. 9578.60  64
  -1  -1   0 869216. 9521.55  67
  -1  -1   0 876901. 10291.0  61
   2  -1   0 862527. 10045.0  54
  -1  -1   0 865781. 9406.30   3
   2  -1   1 61526.5 1796.79  59
  -1  -1   1 61248.4 1667.81  54
   2  -1   1 64234.1 1436.84   5
  -1   2   1 58185.0 1483.54  57
   2  -1   2 236735. 3888.03   5
   2  -1   2 239523. 4515.69  59
   2  -1   2 238389. 3444.72   6
  -1  -1   2 225227. 3677.86   3
  -1  -1   2 233926. 3475.76   4
  -1  -1   2 238503. 4071.81  62
  -1   2   2 233591. 4061.99  57
   2  -1   3 161512. 3937.35  59
   2  -1   3 164475. 3499.52   5
  -1  -1   3 153946. 3123.28   3
  -1   2   3 154861. 3516.81  57
   2  -1   3 145769. 4135.38  58
  -1  -1   4 64330.0 2012.43   3
  -1   2   4 66798.9 2357.59  57
   0  -2  -6 11331.0 862.917  44
  -2   2  -6 14152.2 1338.43  46
   0  -2  -6 12376.1 1237.17  45
   2   0  -6 12073.2 966.655  44
  -2   2  -5 15168.9 1715.08  45
  -2   2  -5 13522.5 1633.00  46
   2   0  -5 13132.2 1250.04  44
   0  -2  -5 12631.1 1144.79  44
   2   0  -5 13484.2 1393.39  42
   0  -2  -5 12088.7 1533.66  45
  -2   2  -4 15780.5 1567.17  43
   2   0  -4 13497.4 1289.99  68
  -2   2  -4 14022.5 1223.94  68
   0  -2  -4 13291.8 1517.43  53
  -2   2  -4 14276.8 1614.85  45
   2   0  -4 12295.5 1175.57  44
   0  -2  -4 13721.7 1184.36  37
   2   0  -4 12956.5 1418.19  42
  -2   2  -4 13405.5 1633.38  46
  -2   2  -4 14486.4 1303.31  44
   2   0  -3 87037.5 3003.53  68
  -2   2  -3 93734.6 2890.69  68
  -2   2  -3 93857.4 3511.83  43
   0  -2  -3 85231.7 3434.07  53
  -2   2  -2 535519. 8770.07  43
   0  -2  -2 539314. 8628.98  53
  -2   2  -2 540197. 7765.68  68
   2   0  -2 535349. 7987.35  47
   2   0  -2 518796. 7992.95  69
  -2   2  -1 104457. 2666.70  43
   2   0  -1 100406. 2232.00  69
   2   0  -1 96010.7 1799.56  65
   0  -2  -1 97641.7 1626.49  60
  -2   2  -1 104487. 2474.19  66
   0  -2  -1 98721.7 1975.44  63
   2   0  -1 101333. 2082.14   2
   2   0  -1 95521.9 2439.18  47
   2   0   0 297392. 4248.84  58
  -2   2   0 302399. 4084.11  56
   2   0   0 300147. 4588.72  47
   0  -2   0 306480. 3746.64  70
   2   0   1 105262. 1870.14   5
   0  -2   1 95352.4 1876.64   4
   2   0   1 95025.0 1995.50   6
  -2   2   1 95945.1 2221.14  56
   0  -2   1 103042. 2380.88  61
   2   0   1 93300.9 1893.17  47
   0  -2   1 110131. 2659.84   2
   2   0   1 99119.2 2386.18  58
  -2   2   1 107597. 1980.91  57
   0  -2   2 94863.9 2042.84   4
  -2   2   2 93517.2 2224.43  55
  -2   2   2 95544.6 2102.31  57
   2   0   2 98164.5 2192.43   5
   0  -2   2 91367.6 2680.44  61
   2   0   2 92758.7 2087.32   6
   2   0   3 75855.8 2128.82   6
  -2   2   3 65069.2 2196.21  55
   0  -2   3 68864.2 2725.35  61
   0  -2   3 66965.7 1876.54   4
   2   0   3 71177.0 2205.34   5
   2   0   3 67104.3 2486.37  58
  -2   2   3 76156.1 2093.95  57
   0  -2   4 176116. 3696.31   3
  -2   2   4 170059. 4496.02  56
  -3   2  -6 46742.2 2318.74  46
   2   1  -6 46096.2 1824.93  42
   1  -3  -6 43996.7 2076.59  45
  -3   2  -5 14205.3 1694.02  46
  -3   2  -5 16056.1 1644.68  45
   1  -3  -5 14121.0 1589.52  45
   2   1  -5 13744.4 1426.63  42
   1  -3  -5 12979.2 1144.75  37
  -3   2  -4 72063.4 3639.54  45
   2   1  -4 61550.8 3298.33  42
  -3   2  -4 69665.1 3514.29  43
   1  -3  -4 65502.8 2816.26  37
  -3   2  -4 65496.5 3771.71  46
   2   1  -4 63048.1 2829.97  68
   1  -3  -4 66882.3 3603.38  53
  -3   2  -3 7530.24 1056.48  43
   2   1  -3 9945.46 1001.46  68
   2   1  -3 8011.59 878.519  47
   2   1  -2 35843.9 1623.79  68
   1  -3  -2 42116.5 2078.85  53
   2   1  -2 37919.4 1811.23  47
  -3   2  -2 38369.7 2041.43  43
  -3   2  -1 77232.3 2517.30  43
  -3   2  -1 78022.1 2300.60  66
   2   1  -1 82105.5 2378.48   2
   1  -3  -1 84910.2 1847.61  60
  -3   2  -1 74125.1 1613.19  67
  -3   2   0 426492. 5839.31  62
   1  -3   0 416919. 5886.17  60
   1  -3   0 407501. 5492.14  63
   2   1   0 407338. 5464.13  65
   2   1   0 402883. 6434.53  52
  -3   2   1 54325.6 1730.31  56
   1  -3   1 49328.3 1743.08  60
   1  -3   1 56892.8 1500.89   4
   2   1   1 61862.9 1486.88  65
   2   1   1 60835.5 1864.80  58
   2   1   1 50581.9 1647.84  52
   2   1   2 60814.9 1687.09   5
  -3   2   2 63306.1 1570.88  57
   2   1   2 66281.0 2189.20  58
   2   1   2 56697.1 1862.01   6
   1  -3   2 58531.6 1887.71  61
  -3   2   2 56938.8 1752.29  55
   1  -3   2 59259.4 1737.10   4
  -3   2   2 58577.6 2060.74  56
   1  -3   3 65960.1 2058.29   4
  -3   2   3 67620.7 2561.04  56
   2   1   3 66500.4 2300.38   6
   2   1   3 73295.9 2276.29   5
   2   1   3 75485.0 2568.10  58
  -3   2   3 61898.6 2220.03  55
  -3   2   4 49805.3 2231.09  56
   1  -3   4 45030.2 2206.33  60
  -4   2  -5 3251.73 763.393  46
   2   2  -5 3341.38 659.894  42
   2  -4  -5 2912.07 626.656  45
   2  -4  -5 2778.78 517.717  37
   2   2  -4 52170.9 3063.88  42
   2  -4  -4 52964.4 2589.48  37
  -4   2  -4 58578.2 3654.72  46
  -4   2  -3 30915.5 2467.65  46
  -4   2  -3 38614.8 2384.11  38
   2  -4  -3 33521.4 2393.96  53
   2  -4  -3 36860.7 2673.10  16
  -4   2  -3 33715.7 2336.27  43
   2   2  -3 29201.8 2244.72  42
   2   2  -3 32352.7 2017.94  47
   2   2  -3 40118.0 2385.99  41
   2  -4  -3 36675.5 2496.42  11
  -4   2  -2 70863.7 3041.19  43
   2   2  -2 65326.6 2768.71  47
  -4   2  -1 82274.9 1993.76  67
   2   2  -1 86257.7 3035.11  52
   2   2   0 7140.58 787.276  52
   2  -4   0 6809.27 608.270  60
  -4   2   0 6963.35 625.328  66
   2  -4   1 30605.5 1407.22  60
   2   2   1 25563.7 1450.83  52
  -4   2   1 29621.3 1504.96  62
   2  -4   2 31944.4 1624.67  60
   2   2   2 32323.0 1624.73   6
  -4   2   2 32376.3 1754.79  62
   2  -4   2 35576.4 1483.66   4
  -4   2   3 22926.1 1500.16  56
  -4   2   3 18123.4 1439.48  62
   2  -4   3 18538.0 1313.46  60
   2  -4   3 20729.0 1241.64   4
   2   2   3 21614.8 1452.88   6
   2   2   4 120928. 3764.71   6
  -5   2  -5 3295.02 657.134  46
   3  -5  -5 3089.80 466.999  37
   2   3  -5 3973.00 590.412  42
   2   3  -4 47171.2 2707.00  42
  -5   2  -4 48009.4 3182.13  46
   3  -5  -4 47638.8 2371.88  37
   2   3  -3 10008.7 1323.68  42
   2   3  -3 13211.0 1456.23  41
   3  -5  -3 12274.9 1611.68  16
   2   3  -3 7189.07 805.433  48
  -5   2  -3 12330.4 1402.82  38
   3  -5  -3 12029.9 1500.38  11
  -5   2  -2 23361.7 2455.62  27
   2   3  -2 19152.6 1640.79  47
   2   3  -2 24738.3 2197.58   8
  -5   2  -2 23392.8 1870.20  38
   3  -5  -2 23946.2 1261.51  64
   3  -5  -2 22598.6 2087.95  16
   2   3  -2 26531.8 2044.62  41
   3  -5  -2 22853.4 1912.80  11
   3  -5  -1 10259.7 778.427  64
  -5   2  -1 10292.6 762.661  67
   2   3  -1 9486.77 1134.17  52
  -5   2   0 45703.0 1664.07  67
   2   3   0 45543.7 2428.92  52
   3  -5   1 41865.1 1899.90  60
   2   3   1 38009.3 2107.40  52
   2   3   2 84983.7 3008.76  57
  -5   2   2 96852.3 3720.23  25
   3  -5   2 85071.9 2861.66  60
  -5   2   2 93666.7 3259.56  62
   2   3   2 102007. 4125.17  30
   2   3   3 5980.08 817.565  57
  -5   2   3 8620.65 1019.96  62
   2   3   3 9161.74 1238.21  30
   3  -5   3 6682.56 760.846  60
   3  -5   3 6024.54 1016.80  59
  -5   2   3 10816.0 1343.13  26
   2   3   4 41932.4 2456.64  30
   2   3   5 7959.43 702.749  17
  -5   2   5 7951.13 825.270  34
   3  -4  -5 2744.57 495.947  37
  -4   1  -5 2783.92 710.852  46
   3  -4  -5 4058.50 600.847  44
   1   3  -5 3597.88 702.188  42
  -4   1  -4 148345. 6038.06  46
   3  -4  -4 147915. 4405.06  44
  -4   1  -4 156852. 5063.24  38
  -4   1  -3 99305.9 5032.47  27
  -4   1  -3 77585.1 3546.15  43
   1   3  -3 68753.4 3629.26  42
   1   3  -3 89615.8 3692.79  41
   3  -4  -3 88648.4 4121.89  16
   3  -4  -3 100643. 4412.17  11
   1   3  -3 109746. 4713.26  46
  -4   1  -3 83067.1 3635.71  38
  -4   1  -2 17587.8 1454.24  43
   3  -4  -2 21433.8 1480.23  69
   1   3  -2 18505.8 1449.73  52
   3  -4  -1 52726.9 1643.75  64
  -4   1  -1 48997.1 1497.25  70
   1   3  -1 48961.9 2244.27  52
  -4   1  -1 50961.8 1616.81  67
   1   3   0 101898. 3196.38  52
  -4   1   0 98078.8 2332.54  67
  -4   1   1 9934.84 860.697  62
   3  -4   1 10111.3 658.480   4
   1   3   1 9190.74 880.742  52
   3  -4   1 10800.8 822.534  60
   3  -4   2 344658. 5726.08   4
   3  -4   2 336540. 6033.56  60
   1   3   2 327102. 6310.72  57
   1   3   3 42342.9 1987.88   6
   1   3   3 33743.9 1954.76  57
  -4   1   3 42208.6 2195.62  62
   3  -4   3 34561.0 2326.52  59
   1   3   5 13150.2 1176.71  30
  -3   0  -6 5020.80 628.302  45
   3  -3  -6 4793.17 546.465  44
   0   3  -6 4428.55 540.328  42
  -3   0  -5 13921.1 1629.16  46
  -3   0  -5 14048.3 1448.79  45
   0   3  -5 12139.1 1416.73  42
   3  -3  -5 15512.0 1356.50  44
  -3   0  -4 41870.4 2730.09  43
   0   3  -4 39875.7 2821.67  42
  -3   0  -4 43807.0 3158.52  46
   3  -3  -4 50479.5 3164.06  11
   0   3  -4 46376.6 2360.91  68
  -3   0  -4 46639.8 2672.73  38
  -3   0  -4 44289.5 2699.36  45
  -3   0  -3 7701.38 1081.35  53
   3  -3  -3 7910.25 993.142  69
   0   3  -3 8948.67 919.094  68
  -3   0  -2 494940. 6858.96  70
   0   3  -2 521132. 7740.87  68
  -3   0  -2 463454. 8803.41  53
   3  -3  -2 516882. 7135.37  64
   0   3  -2 479106. 8132.46  52
   3  -3  -1 27122.1 1031.96  64
  -3   0  -1 25404.2 1371.19  53
   0   3  -1 26618.1 1393.08  52
  -3   0  -1 25832.3 1006.70  70
  -3   0   0 41551.4 1384.42  61
   0   3   0 39707.4 1147.22  57
   3  -3   0 41918.5 1608.41  59
  -3   0   0 41956.0 1240.16  67
  -3   0   1 195453. 3822.86  62
   3  -3   1 167643. 4114.78  59
   0   3   1 163007. 3107.63   6
  -3   0   1 152147. 3631.27  61
   0   3   1 165288. 3325.54  57
   3  -3   1 181495. 3364.56  60
   0   3   2 24032.0 1138.50   6
  -3   0   2 25958.6 1457.91  62
   0   3   2 23203.4 1313.57  57
   3  -3   2 24634.1 1137.37  60
   3  -3   2 23558.3 1608.25  59
   0   3   3 30729.4 1495.84   6
  -3   0   3 31594.7 1772.32  62
   0   3   3 31728.9 1768.26  57
   3  -3   3 29294.2 2011.87  59
  -3   0   4 301051. 6277.11  62
   0   3   4 298044. 5852.15   6
   3  -3   4 299320. 7222.78  59
   0   3   4 302497. 6469.93  57
   3  -2  -6 71213.8 2428.55  44
  -2  -1  -6 71169.2 2809.96  45
  -2  -1  -5 13444.6 1524.89  45
   3  -2  -5 13291.5 1311.01  44
  -1   3  -5 11252.6 1404.92  42
  -1   3  -5 13713.9 1581.62  46
  -1   3  -4 59289.6 3472.66  46
  -2  -1  -4 56210.8 3356.95  46
   3  -2  -4 64766.0 2880.91  42
  -1   3  -4 57833.3 2650.61  68
   3  -2  -4 53951.9 2848.50  68
  -1   3  -4 49534.9 3168.43  42
  -2  -1  -4 54841.5 3175.12  45
  -2  -1  -4 51339.9 3123.51  53
   3  -2  -4 57887.5 2830.13  44
  -1   3  -3 70735.6 2640.75  68
  -2  -1  -3 68074.9 3221.34  53
   3  -2  -3 65637.2 2875.44  69
   3  -2  -2 56854.5 2293.31  69
  -1   3  -2 59495.4 2066.19  68
  -2  -1  -2 57675.1 2483.29  53
  -1   3  -2 61008.0 2007.40  52
  -2  -1  -1 60604.5 1505.61  70
   3  -2  -1 62972.6 1537.50  64
  -1   3  -1 43273.7 1647.73  66
  -2  -1  -1 53065.1 1362.12  63
  -2  -1  -1 38474.6 1680.61  53
  -2  -1   0 406399. 5217.98  67
  -2  -1   0 385622. 5790.07  54
  -1   3   0 396983. 5789.10  66
   3  -2   0 425203. 5966.77   1
   3  -2   0 362819. 5752.32  58
  -1   3   0 414157. 5403.69  57
  -2  -1   0 425880. 5967.72  61
   3  -2   0 399378. 5263.71  64
  -1   3   1 69536.5 1519.70   6
  -2  -1   1 73367.5 1636.57   3
  -2  -1   1 72805.8 1529.28  67
   3  -2   1 77136.0 2427.25  59
  -2  -1   1 67889.5 2201.86  61
  -1   3   1 71932.9 1869.21  57
  -1   3   2 39428.1 1602.39  57
  -2  -1   2 34801.8 1260.36   3
   3  -2   2 39912.5 1939.71  59
  -1   3   2 35480.1 1240.75   6
   3  -2   3 6051.48 871.360  58
  -1   3   3 7622.69 804.969  57
  -2  -1   3 10255.2 755.701   3
   3  -2   3 7654.18 940.035  59
  -1   3   3 9736.13 752.304   6
  -2  -1   3 11693.5 991.824  62
  -1   3   4 62291.5 2212.14   6
   3  -2   4 58059.3 2864.95  58
  -1   3   4 65979.8 2504.36  57
  -2  -1   4 56141.4 2896.63  61
  -2   3  -6 77753.2 2970.66  46
  -1  -2  -6 71762.7 2873.88  45
  -2   3  -5 27507.3 2277.97  46
   3  -1  -5 29292.9 1873.27  42
   3  -1  -5 26411.7 1775.21  44
  -1  -2  -5 29382.4 2353.11  45
  -2   3  -4 52467.3 3283.16  46
   3  -1  -4 56857.6 2879.42  42
   3  -1  -4 56220.6 2679.75  44
  -1  -2  -4 53144.4 3225.38  53
   3  -1  -4 52423.1 2736.01  68
  -1  -2  -3 27976.1 2026.01  53
  -2   3  -3 27961.7 1648.59  68
   3  -1  -3 27305.7 1779.81  69
  -1  -2  -2 11204.6 1053.88  53
  -2   3  -2 13222.6 1111.72  66
  -1  -2  -1 61407.0 1535.25  70
  -2   3  -1 56717.3 2001.30  66
  -1  -2  -1 58752.0 1576.24  63
   3  -1  -1 56606.9 1399.14  65
  -1  -2   0 499083. 6018.23   3
  -1  -2   0 495899. 6379.51  70
   3  -1   0 513427. 6332.89  64
   3  -1   0 507862. 6969.15  54
  -2   3   1 144634. 2855.44   1
  -1  -2   1 143016. 3307.33  61
   3  -1   1 151968. 3508.04  58
  -2   3   2 37007.3 1414.62  57
   3  -1   2 32779.9 1729.81  58
  -1  -2   2 35989.4 1823.03  61
   3  -1   3 24356.0 1683.17  58
  -1  -2   3 29702.4 1304.42   3
   3  -1   3 26678.9 1382.06   5
  -1  -2   3 26465.6 1832.79  61
  -2   3   3 27232.1 1401.79  57
  -1  -2   4 45006.8 2548.98  61
   3  -1   4 45573.0 2369.82  58
  -2   3   4 45220.6 1870.94  57
  -3   3  -6 4602.81 658.252  46
   0  -3  -6 4692.62 658.445  45
   3   0  -6 4851.43 510.374  42
  -3   3  -5 2324.69 642.833  46
   0  -3  -5 1829.15 589.508  45
   3   0  -5 2003.43 435.289  44
   3   0  -5 1778.86 472.572  42
  -3   3  -4 299668. 8484.97  46
   0  -3  -4 309925. 6738.31  37
   3   0  -4 298705. 6489.00  44
   3   0  -4 304508. 7619.60  42
   3   0  -4 283339. 6774.55  68
   0  -3  -4 312044. 8479.37  53
   0  -3  -3 29803.1 2168.95  53
   3   0  -3 29696.9 1830.98  68
   0  -3  -2 23871.1 1639.85  53
   3   0  -2 24066.4 1515.20  47
   3   0  -2 24760.1 1440.68  69
  -3   3  -2 26283.0 1662.84  66
   3   0  -1 172794. 3573.33  69
   3   0  -1 174426. 4113.39  47
  -3   3  -1 172939. 4031.25  66
   3   0  -1 166125. 3026.87  65
  -3   3   0 43810.4 1677.26  66
   0  -3   0 39737.2 1340.09  63
   3   0   0 41583.8 1696.14  47
   0  -3   0 42779.0 1143.02  70
   0  -3   0 37909.5 1380.17  60
   3   0   0 43116.3 1305.63  65
   3   0   1 26274.7 1278.09  58
  -3   3   1 25551.1 1196.59  56
   0  -3   1 28784.9 1324.35  61
  -3   3   1 29900.2 1117.83  57
   3   0   2 521950. 8503.20  58
  -3   3   2 504909. 8302.58  56
   0  -3   2 517842. 8324.38  61
   3   0   2 507368. 7283.27   5
  -3   3   3 7884.64 891.744  56
  -3   3   3 9569.78 752.155  57
   3   0   3 8639.41 778.522   5
   0  -3   3 8693.00 937.317  61
   3   0   3 7834.35 894.241  58
   3   0   3 9106.97 837.212   6
   3   0   4 46809.6 2206.33  58
  -3   3   4 43040.0 2254.91  56
   3   1  -5 13800.8 1274.10  42
   1  -4  -5 15269.7 1564.57  45
  -4   3  -5 14273.0 1526.45  46
  -4   3  -4 20645.8 2122.27  46
   3   1  -4 19376.9 1782.94  42
   1  -4  -4 18773.8 1505.03  37
   3   1  -3 69155.6 2643.99  48
  -4   3  -3 89364.7 4272.92  46
  -4   3  -3 112300. 5200.74  14
   3   1  -3 86317.1 3849.71  42
   1  -4  -3 87096.8 3234.79  37
   3   1  -3 97220.0 3583.73  47
   3   1  -3 101551. 3916.06  49
  -4   3  -3 87619.5 3208.67  39
   1  -4  -3 112420. 4182.01  12
   1  -4  -3 102534. 4359.03  53
   1  -4  -2 270141. 6609.65  53
   3   1  -2 266777. 6212.17  47
  -4   3  -2 270334. 6135.02  66
   3   1  -1 21632.9 1489.06  47
   1  -4  -1 24629.7 1086.44  60
  -4   3  -1 23083.9 1426.06  66
   1  -4   0 50595.9 1612.64  63
   1  -4   0 49386.1 1710.43  60
   3   1   0 53181.6 1625.62  65
   1  -4   1 85158.8 2205.82  63
  -4   3   1 84416.6 2617.05  62
   1  -4   1 79266.7 2511.55  60
   3   1   2 50955.9 2190.09  58
  -4   3   2 45659.2 2024.98  56
   3   1   3 36669.9 1959.37  58
  -4   3   3 32996.0 1904.80  56
  -4   3   4 200955. 5817.99  34
  -5   3  -5 2323.27 550.475  46
   2  -5  -5 2112.65 482.986  45
   3   2  -5 2493.79 457.532  42
  -5   3  -4 23180.6 2133.36  46
   3   2  -4 23533.0 1837.99  42
   2  -5  -4 23081.9 1612.74  37
   2  -5  -3 18647.4 1713.20  12
   2  -5  -3 17122.3 1909.84  16
  -5   3  -3 15384.0 1364.64  39
  -5   3  -3 16035.5 1803.93  46
  -5   3  -3 19502.9 2175.57  14
   3   2  -3 16688.6 1656.57  42
   2  -5  -3 14683.4 1318.32  37
   3   2  -3 12166.6 1091.32  48
   2  -5  -2 85479.4 4037.09  16
   3   2  -2 82260.9 3501.46  47
   2  -5  -2 86762.1 3806.47  53
  -5   3  -1 94328.2 2356.91  67
   2  -5  -1 91262.5 2353.00  64
   3   2  -1 94459.8 3619.79  47
  -5   3   0 51233.5 1730.09  67
   2  -5   0 54505.2 2054.22  60
   3   2   1 15026.7 927.852  65
   2  -5   1 13881.8 1078.33  60
  -5   3   1 14695.9 1095.24  62
   3   2   2 26340.2 1823.40  17
  -5   3   2 23885.1 2032.94  26
  -5   3   2 22138.0 1575.69  62
   2  -5   2 18664.1 1333.37  60
   3   2   2 25047.1 1989.60  30
  -5   3   3 13255.3 1291.04  62
   2  -5   3 12049.5 1085.01  60
   3   2   4 105829. 3574.09  17
  -5   3   4 115396. 4286.15  34
   3   2   5 17093.4 1216.90  29
  -6   3  -4 6453.55 675.368  39
  -6   3  -4 4813.32 816.915  46
   3   3  -4 4915.95 651.477  42
   3  -6  -4 4662.17 619.928  37
   3  -6  -3 50849.1 3165.85  16
  -6   3  -3 41298.6 2731.55  46
   3  -6  -3 50470.8 2675.77  12
  -6   3  -3 42451.3 2232.22  39
   3  -6  -3 41938.6 2159.66  37
  -6   3  -2 8592.48 1569.80  27
   3   3  -2 3734.64 614.995  48
   3  -6  -2 4569.51 956.890  16
  -6   3  -2 7001.87 1267.18  14
  -6   3  -2 5820.22 854.386  39
   3   3  -1 13684.1 1217.86  48
  -6   3  -1 28074.9 2744.42  27
   3   3  -1 19779.7 1755.83  47
   3   3  -1 22648.3 2165.35   8
   3  -6  -1 18501.3 1477.25  21
  -6   3  -1 22594.4 2235.34  14
   3  -6  -1 28942.9 2386.96  23
   3  -6  -1 18116.6 1118.60  64
   3  -6  -1 24588.0 1669.73  19
   3   3   0 161782. 4962.18  29
   3  -6   0 160179. 5308.38  22
  -6   3   0 145554. 4331.82  39
   3  -6   0 153151. 4473.81  21
   3   3   0 178134. 6234.24   8
   3   3   0 149197. 4972.87  47
   3   3   0 180952. 6652.82   7
  -6   3   0 155242. 3534.91  67
   3   3   1 8640.29 1035.76  17
   3   3   1 7956.63 1097.54  29
  -6   3   1 8669.70 1316.18  26
   3  -6   1 7501.25 1079.30  22
   3  -6   1 6627.13 840.221  21
   3  -6   1 10308.7 949.937  60
   3   3   1 7066.54 1118.53  30
  -6   3   1 8791.11 779.091  67
  -6   3   1 9738.20 1243.32  34
   3   3   2 15053.5 1427.72  17
   3   3   2 17204.7 1657.51  29
  -6   3   2 14174.0 1639.34  26
   3  -6   2 15698.6 1542.09  22
  -6   3   2 15524.6 1611.41  34
   3   3   2 13704.4 1581.71  30
   3   3   3 25875.2 1824.77  17
   3   3   3 22533.7 1885.47  30
   3   3   4 14596.3 1133.23  17
   3   3   4 18248.0 1440.09  29
  -6   3   4 15964.7 1374.16  34
  -7   3  -3 2405.37 433.161  39
   4  -7  -3 1852.74 361.080  37
   3   4  -3 2075.24 404.565  49
  -7   3  -2 17434.0 1777.98  14
   4  -7  -2 19982.5 1618.75  12
  -7   3  -2 15911.6 1299.95  39
   4  -7  -2 17147.7 1696.85  16
  -7   3  -1 25561.5 2505.36  27
   4  -7  -1 26050.4 2141.64  16
   4  -7  -1 27477.0 1695.79  19
  -7   3  -1 24614.0 2263.92  14
   3   4  -1 24911.4 2154.10   8
  -7   3  -1 20426.9 1523.85  39
   3   4   0 5658.36 738.130  48
   4  -7   0 6838.84 904.972  21
  -7   3   0 11416.9 1582.73  27
  -7   3   0 9906.20 1442.47  14
   4  -7   0 9156.56 1296.45  23
   4  -7   0 6201.63 1034.78  22
   3   4   0 8279.53 1296.16   8
   3   4   1 27086.0 2333.04   8
   4  -7   1 22501.2 1584.70  21
   4  -7   1 24973.5 2008.30  22
  -7   3   1 23781.2 1833.23  34
   3   4   1 25329.3 1791.36  29
   3   4   1 22451.6 1573.17  17
   3   4   2 71769.5 3052.97  29
  -7   3   2 70685.2 3176.47  34
   4  -7   2 66971.9 3098.73  22
   3   4   2 64604.9 2735.73  17
   3   4   3 2819.57 526.889  29
   3   4   3 2648.13 475.652  17
  -7   3   3 2527.02 527.941  34
  -6   2  -4 1489.93 475.845  46
  -6   2  -4 1164.76 281.841  39
   4  -6  -4 1327.42 329.876  37
   2   4  -4 1201.21 310.394  42
   4  -6  -3 43137.8 2823.18  16
  -6   2  -3 33898.9 2540.05  46
   4  -6  -3 38972.1 2525.74  11
   4  -6  -2 56728.4 3378.88  16
   2   4  -2 74300.1 3569.79  41
  -6   2  -2 71190.7 4462.08  27
   2   4  -2 39992.6 2062.68  48
   4  -6  -2 53304.4 3072.42  11
   4  -6  -1 35993.2 2103.55  21
  -6   2  -1 39705.2 3243.70  27
   2   4  -1 41559.8 2655.86  41
   4  -6  -1 36404.9 1686.25  64
   4  -6  -1 38184.6 2695.05  22
   2   4  -1 40812.0 2830.78   8
   2   4  -1 40238.9 3267.34   7
   4  -6  -1 40932.2 2558.63  11
  -6   2   0 184780. 6712.71  27
  -6   2   0 167203. 5952.32  26
   4  -6   0 138197. 3496.69  64
   4  -6   0 173607. 5706.81  22
   4  -6   0 167512. 4760.02  21
  -6   2   0 145101. 3453.23  67
   2   4   0 177379. 6809.23   7
   2   4   0 157731. 5184.25  52
  -6   2   1 14513.9 1003.44  67
  -6   2   1 15238.8 1734.76  26
  -6   2   1 14298.3 1502.59  25
   4  -6   1 16558.8 1696.26  22
   4  -6   1 15340.5 1367.39  21
   2   4   1 16036.7 1360.39  17
  -6   2   1 18665.8 1624.29  34
   2   4   1 15505.9 1924.19   7
   2   4   1 15244.7 1636.42  30
  -6   2   2 14629.3 1670.99  26
  -6   2   2 10979.9 1276.64  25
   4  -6   2 11574.6 1097.21  21
   2   4   2 14597.0 1360.28  17
   2   4   2 13095.6 1532.07  30
   2   4   2 13612.0 1766.46   7
  -6   2   3 25089.6 2016.00  26
   2   4   3 28352.7 1867.47  17
   2   4   3 24602.4 2001.09  30
   2   4   4 59083.6 2309.88  17
   2   4   4 52604.0 2421.16  30
  -5   1  -5 1437.59 423.738  46
   1   4  -5 832.553 242.609  42
   4  -5  -5 1210.21 276.122  37
  -5   1  -4 31355.3 2536.37  46
   4  -5  -4 27527.6 1649.08  44
   1   4  -4 25667.5 1979.41  42
  -5   1  -4 33813.6 2133.36  38
  -5   1  -3 13108.3 1432.95  38
   4  -5  -3 14713.8 1676.43  16
   1   4  -3 8987.80 891.666  48
   1   4  -3 11886.8 1451.32  42
   1   4  -3 14300.6 1498.86  41
  -5   1  -3 15168.6 2044.31  27
   4  -5  -3 16660.4 1830.32  11
  -5   1  -2 38768.9 2412.90  38
   1   4  -2 41521.2 2610.96  41
   4  -5  -2 37083.8 2206.68  69
   1   4  -2 34459.7 2224.63  52
  -5   1  -2 45859.0 3443.88  27
   4  -5  -2 43678.5 2847.13  11
   4  -5  -2 39990.8 1766.98  64
   1   4  -1 81499.3 2954.27  51
   4  -5  -1 70667.5 2297.69  64
  -5   1  -1 86124.1 4447.64  27
   4  -5  -1 84018.2 3762.99  22
   4  -5  -1 79082.9 2974.48  21
   1   4  -1 78540.0 3537.00  41
   1   4  -1 80401.4 4404.79   7
   1   4  -1 68812.8 3132.81  52
   1   4   0 11722.9 1235.25  52
  -5   1   0 12602.2 866.816  67
   4  -5   0 15346.7 986.832  64
   1   4   1 12291.1 1297.72   9
  -5   1   1 15798.7 1651.83  26
  -5   1   1 12921.2 1350.62  25
  -5   1   1 10661.1 806.866  67
   1   4   1 12212.2 1347.45  30
   4  -5   1 11759.8 1204.93  59
   1   4   1 12533.9 1247.94  52
   1   4   2 24529.5 1833.26   9
  -5   1   2 29059.1 2073.71  25
   4  -5   2 23226.5 1889.09  59
   1   4   2 22968.7 2042.01  32
   1   4   2 24589.4 1535.41  57
   1   4   2 26981.6 2105.82  30
   4  -5   2 26152.7 1476.46  60
  -5   1   3 7114.44 1161.48  26
   1   4   3 5532.66 960.685  30
   1   4   3 4813.09 911.254  32
   1   4   4 36994.6 2305.30  30
   1   4   5 11786.6 842.967  17
   1   4   5 9781.02 843.721  30
  -4   0  -5 2978.07 670.971  46
   4  -4  -5 3082.78 526.420  44
   0   4  -5 2917.51 597.353  42
  -4   0  -5 2669.30 503.476  38
   4  -4  -5 3093.72 492.870  37
  -4   0  -4 8678.96 1146.04  38
  -4   0  -4 8475.17 1361.80  46
   0   4  -4 8029.22 1219.53  42
   4  -4  -4 10365.3 1440.54  11
   4  -4  -3 39113.2 2442.34  69
   0   4  -3 54930.4 3299.06  46
  -4   0  -3 36340.2 2381.66  43
   0   4  -3 32756.3 2520.52  42
   0   4  -3 42276.0 2505.18  41
  -4   0  -3 41186.6 2586.73  38
  -4   0  -3 48208.4 3532.39  13
   4  -4  -3 49270.6 3181.58  11
   0   4  -2 15633.8 1351.15  52
  -4   0  -2 15617.6 955.604  70
   4  -4  -2 18273.0 1094.44  64
  -4   0  -1 54532.1 1776.78  70
   4  -4  -1 57160.1 1882.10  64
   0   4  -1 53602.8 2404.31  52
  -4   0   0 263346. 4468.50  67
   4  -4   0 271225. 4593.94  64
  -4   0   1 63138.3 1875.51  67
   0   4   1 71912.8 2731.33  52
   4  -4   1 75055.0 2950.07  59
  -4   0   1 59726.7 2228.35  61
   0   4   1 67122.2 2107.43  57
   4  -4   2 25919.4 1303.12   4
   0   4   2 22678.0 1344.30   6
  -4   0   2 21706.4 1545.99  61
   4  -4   2 28797.0 1407.60  60
   4  -4   2 27759.9 1980.39  59
   0   4   2 25932.4 1471.28  57
   0   4   3 15318.9 1175.43   6
  -4   0   3 13481.6 1358.79  61
  -4   0   3 16975.1 1327.45  62
   4  -4   3 15979.3 1604.61  59
   0   4   3 16909.3 1683.43  32
   0   4   3 14796.0 1228.51  57
   0   4   4 34514.8 2323.20  32
  -3  -1  -5 11970.2 1214.79  45
   4  -3  -5 14396.6 1259.40  44
  -3  -1  -5 14025.6 1234.58  38
  -1   4  -5 11946.2 1309.92  42
  -1   4  -4 178218. 6213.82  46
  -3  -1  -4 144660. 5789.46  46
  -3  -1  -4 138288. 4887.77  45
   4  -3  -4 199016. 5042.77  42
  -1   4  -4 123312. 5205.39  42
   4  -3  -4 151190. 5455.44  11
   4  -3  -3 26566.9 2165.91  10
   4  -3  -3 44524.4 2338.76  42
  -1   4  -3 29307.4 1981.05  41
  -1   4  -3 36230.6 1954.75  40
  -3  -1  -3 29620.6 2687.27  13
   4  -3  -3 33351.2 2222.64  69
  -3  -1  -3 29354.4 1776.83  36
  -1   4  -3 35049.5 2544.30  46
   4  -3  -3 24088.2 1864.24  50
   4  -3  -3 24171.7 2111.21  11
  -3  -1  -3 22934.7 1959.42  53
  -1   4  -2 40423.3 1933.52  52
   4  -3  -2 41416.9 1611.35  64
  -3  -1  -2 41474.9 2283.17  53
   4  -3  -2 41132.3 2201.82  69
  -3  -1  -1 92857.8 2283.45  70
  -1   4  -1 99262.3 2842.06  66
   4  -3  -1 90771.3 2289.38  64
  -1   4  -1 94686.7 2921.17  52
  -1   4   0 41935.1 1640.40  66
  -3  -1   0 44255.4 1393.88  67
  -1   4   0 53255.4 1546.37  57
   4  -3   0 50655.6 1519.47  64
   4  -3   1 19470.8 886.910  64
  -3  -1   1 19745.9 881.614  67
  -3  -1   1 19119.4 1224.39  61
   4  -3   1 20782.0 1424.84  58
  -1   4   1 21304.4 1081.15  57
  -1   4   2 271034. 4803.67   6
  -3  -1   2 252153. 5942.20  61
   4  -3   2 256688. 6439.75  58
  -1   4   3 86948.3 2672.60   6
   4  -3   3 89344.2 3902.82  58
  -3  -1   3 82365.6 3510.18  61
  -1   4   5 14772.3 1317.59  32
  -2  -2  -5 10119.3 1066.89  38
  -2   4  -5 12643.2 1426.03  46
  -2  -2  -5 10800.0 1260.54  45
   4  -2  -5 10745.2 1066.71  44
   4  -2  -5 14161.7 1166.78  42
  -2   4  -5 10091.5 1230.45  42
   4  -2  -4 160575. 5110.05  50
  -2   4  -4 147037. 5669.61  46
   4  -2  -4 159785. 4888.49  42
  -2  -2  -4 155538. 4319.05  36
   4  -2  -3 23910.0 2044.79  10
  -2   4  -3 21073.9 1929.46  46
   4  -2  -3 23017.7 1722.43  42
  -2   4  -3 22142.5 1551.37  40
  -2  -2  -3 23686.5 2337.23  13
  -2  -2  -3 22107.3 1552.77  36
   4  -2  -3 21417.2 1710.81  69
   4  -2  -3 19468.6 1649.07  50
  -2  -2  -3 18836.6 1774.52  53
  -2   4  -2 30286.5 1832.55  66
  -2  -2  -2 27138.3 1855.07  53
  -2  -2  -1 28243.8 1193.55  63
  -2  -2  -1 28529.2 1180.44  70
   4  -2  -1 30368.6 1084.62  65
  -2   4   0 7022.97 543.327  57
  -2   4   0 6393.54 660.322  66
  -2  -2   0 6765.96 526.206  70
   4  -2   0 6929.07 511.538  64
  -2  -2   1 77313.4 1891.60   3
  -2  -2   1 82569.2 2680.98  61
   4  -2   1 86302.1 2811.95  58
  -2   4   1 91788.1 2330.08  57
  -2  -2   2 68681.4 2783.08  61
  -2   4   2 73352.6 2304.17  57
   4  -2   2 67923.7 2846.57  58
  -2   4   3 31888.6 1431.92   6
  -2  -2   3 29572.7 1390.16   3
  -2  -2   3 31442.8 2084.66  61
  -2   4   3 35004.6 1722.84  57
   4  -2   3 29364.9 2031.00  58
  -2   4   3 31220.4 1623.54  31
  -2   4   4 62178.8 2227.15   6
  -3   4  -5 12745.9 1423.53  46
  -1  -3  -5 11542.7 1359.63  45
   4  -1  -5 10059.7 930.333  44
   4  -1  -5 12947.2 1139.85  42
   4  -1  -4 24104.5 1883.29  50
  -3   4  -4 22752.0 2157.94  46
   4  -1  -4 20490.9 1544.57  44
   4  -1  -4 21943.3 1754.61  42
  -1  -3  -4 24249.5 1655.57  36
   4  -1  -3 35175.2 2291.10  49
   4  -1  -3 36253.9 2456.71  10
  -3   4  -3 38563.2 2663.69  46
   4  -1  -3 42605.4 2455.53  42
  -3   4  -3 38147.9 2137.69  40
   4  -1  -3 40346.2 2304.77  69
  -1  -3  -3 31099.3 2327.36  53
  -3   4  -2 334499. 7240.52  66
   4  -1  -2 319395. 6578.50  69
  -1  -3  -2 320203. 7209.37  53
   4  -1  -1 9560.43 632.514  65
   4  -1  -1 8757.96 815.625  69
  -1  -3  -1 6645.64 788.963  53
  -3   4  -1 7795.57 859.950  66
  -1  -3  -1 10063.9 758.595  63
   4  -1   0 90070.4 2202.13  65
  -1  -3   0 93097.1 2109.62  70
  -3   4   0 106184. 3060.22  66
  -1  -3   0 91343.1 2411.41  63
   4  -1   0 104936. 2536.06  58
  -1  -3   1 53308.8 1551.91   3
  -1  -3   1 58466.3 2191.81  61
   4  -1   1 48764.8 2004.91  58
  -3   4   1 57484.6 1786.75  57
  -3   4   1 46962.2 1743.13  56
  -1  -3   2 20343.5 1046.21   3
   4  -1   2 18852.9 1364.53  58
  -3   4   2 18486.7 1287.36  56
  -3   4   2 23319.2 1257.64  57
  -1  -3   2 22157.3 1506.64  61
  -1  -3   3 78109.7 3179.03  61
   4  -1   3 77491.4 3105.16  58
  -3   4   3 88023.5 2710.72  57
  -3   4   3 82206.3 3153.39  56
  -3   4   4 151011. 3782.28  31
  -3   4   5 4708.43 681.313  33
  -4   4  -5 2707.68 600.878  46
   0  -4  -5 2859.18 643.617  45
   4   0  -5 3284.50 559.930  42
   4   0  -4 34474.0 2210.56  49
  -4   4  -4 29422.4 2376.77  46
   4   0  -4 33565.1 2220.25  42
   0  -4  -4 32064.7 1913.34  36
   4   0  -3 14305.0 1495.50  49
   4   0  -3 13165.9 1380.22  42
  -4   4  -3 16656.6 1384.05  39
   0  -4  -3 13109.2 1232.46  37
   0  -4  -3 16777.4 1665.37  12
   0  -4  -3 13048.6 1531.76  53
   4   0  -2 25364.6 1775.12  47
  -4   4  -2 24740.7 1854.43  66
   0  -4  -2 24580.9 1879.86  53
   4   0  -1 69308.1 2013.40  65
   4   0  -1 63756.9 2701.98  47
  -4   4  -1 68881.8 2822.41  66
   4   0   0 288203. 4836.33  65
   4   0   0 273251. 5699.00  47
   0  -4   0 266106. 4812.06  63
  -4   4   0 287041. 5858.44  66
   0  -4   0 262680. 4836.45  60
   4   0   1 55148.0 1839.94  65
   0  -4   1 48599.8 1810.77  63
   0  -4   1 48072.8 2064.53  60
   4   0   1 66095.3 2384.05  58
  -4   4   1 62333.7 2171.46  56
   0  -4   2 14912.9 1301.20  60
   4   0   2 16225.8 985.455  65
   4   0   2 19529.4 1419.90  58
  -4   4   2 20046.5 1375.24  56
  -4   4   3 50278.5 2842.72  34
   4   0   3 46136.3 2328.26  58
  -4   4   3 44565.5 2283.90  56
  -4   4   4 8808.39 852.841  31
  -4   4   5 3228.80 561.738  33
  -5   4  -5 4980.34 696.902  46
   1  -5  -5 4682.84 709.592  45
   4   1  -5 6196.37 659.706  42
  -5   4  -4 27588.8 2158.00  46
   4   1  -4 29085.1 1919.68  42
  -5   4  -4 25480.5 1604.67  40
   1  -5  -4 26843.0 1677.39  37
   4   1  -4 31907.9 1972.91  49
   4   1  -3 1149.62 424.150  49
   4   1  -3 1332.77 432.235  42
  -5   4  -3 1765.60 705.755  14
  -5   4  -3 1790.93 462.550  39
   1  -5  -3 802.674 291.367  37
   1  -5  -3 978.847 387.044  12
   1  -5  -2 17493.5 1754.31  16
   4   1  -2 19073.9 1645.90  47
  -5   4  -2 21182.7 2311.75  14
  -5   4  -2 21060.0 1668.48  39
  -5   4  -2 18527.8 1596.50  66
   1  -5  -2 15783.6 1268.96  37
   1  -5  -2 18611.3 1458.39  19
   4   1  -2 13957.0 1184.73  48
   4   1  -2 19185.7 1811.34  29
   1  -5  -2 15793.6 1610.43  53
   1  -5  -2 19182.8 1744.83  12
   4   1  -1 4829.16 794.506  47
  -5   4  -1 4788.59 1006.80  14
   1  -5  -1 5950.12 1094.90  23
   4   1  -1 4937.42 960.432   8
  -5   4  -1 4882.33 762.309  39
  -5   4  -1 4097.40 696.989  66
   1  -5  -1 4647.24 724.357  19
   4   1  -1 2817.14 495.591  48
   4   1  -1 5273.60 894.234  29
   4   1   0 39296.9 2145.73  47
   4   1   0 39103.2 1611.15  65
   1  -5   0 35817.6 1615.06  60
   4   1   1 20041.0 1738.19  29
   4   1   1 22910.2 1215.05  65
  -5   4   1 16108.8 1284.76  66
   1  -5   1 19976.4 1298.44  60
   1  -5   1 22409.2 1189.26  63
  -5   4   1 23011.5 1955.46  34
   4   1   1 17360.3 1449.96  17
   4   1   2 22254.4 1696.75  17
   4   1   2 28337.0 2146.76  29
  -5   4   2 30014.4 2295.62  34
   1  -5   2 21283.3 1500.24  60
   4   1   3 12138.5 1415.94  29
   4   1   3 10114.9 1125.96  17
  -5   4   3 11342.0 1415.21  34
   4   1   4 41008.8 2365.41  29
  -5   4   4 35862.9 2222.70  34
  -5   4   5 1555.65 353.342  33
   4   1   5 1460.94 276.225  18
  -6   4  -4 101509. 3555.42  46
   4   2  -4 112325. 3126.30  42
  -6   4  -4 94712.1 2866.40  40
   2  -6  -4 116932. 3168.47  37
   4   2  -3 24266.7 1845.74  49
  -6   4  -3 28102.3 2533.72  14
  -6   4  -3 25025.0 1700.26  39
   2  -6  -3 21069.6 1480.07  37
   2  -6  -3 28155.0 2027.62  12
   4   2  -2 9413.66 999.442  48
   2  -6  -2 12658.5 1538.39  16
   2  -6  -2 13907.5 1486.06  12
  -6   4  -2 15665.4 1994.31  14
  -6   4  -2 14485.0 1381.73  39
   2  -6  -2 13660.8 1161.88  37
   2  -6  -2 14827.6 1282.63  19
   4   2  -1 25852.5 2002.27  47
   2  -6  -1 26760.2 2130.82  16
  -6   4  -1 29631.9 2677.03  14
   2  -6  -1 33758.2 2675.90  23
   4   2  -1 31827.2 2615.28   8
  -6   4  -1 27645.8 1919.53  39
   2  -6  -1 28841.7 1861.22  19
   4   2  -1 28236.6 2117.10  29
   4   2   0 34299.5 1835.88  48
   4   2   0 48109.8 2647.88  47
  -6   4   0 60393.0 3722.42  14
   4   2   0 47727.2 2781.78  29
   2  -6   0 58351.1 3460.87  23
   2  -6   0 38119.4 2438.27  22
  -6   4   0 57712.9 2637.97  39
   4   2   0 52548.4 3351.74   8
  -6   4   0 58816.7 3308.78  34
   2  -6   0 55286.2 2614.94  19
   2  -6   0 72770.9 2466.32  60
   4   2   1 14473.3 1529.73  29
   4   2   1 15235.4 1774.49   8
   2  -6   1 15216.4 1338.87  19
   2  -6   1 14695.6 1163.27  60
   4   2   1 16406.8 1388.72  18
   4   2   1 12411.6 1291.93  17
   4   2   2 160706. 5393.72  29
   4   2   2 133993. 4503.66  17
  -6   4   2 155613. 5451.45  34
   2  -6   2 130691. 3793.93  19
   4   2   3 20560.7 1587.52  17
   4   2   3 22945.4 1910.03  29
  -6   4   3 24845.6 2028.58  34
   4   2   4 1566.31 407.217  29
   4   2   4 937.437 262.216  17
  -6   4   4 1239.69 390.388  34
   4   3  -3 1717.94 393.788  49
  -7   4  -3 1978.44 393.857  39
   3  -7  -3 1354.50 292.371  37
   3  -7  -3 1396.68 346.708  12
  -7   4  -2 69397.4 3810.05  14
  -7   4  -2 60752.5 2631.64  39
   3  -7  -2 64124.9 2976.14  12
   4   3  -1 8289.82 893.814  48
   3  -7  -1 10098.8 1284.43  16
  -7   4  -1 11502.9 1613.98  14
   3  -7  -1 11484.5 1467.73  23
   4   3  -1 11062.2 1487.90   8
  -7   4  -1 12051.2 1190.35  39
   3  -7  -1 12304.8 1151.83  19
   3  -7  -1 11481.5 1307.95  12
   4   3   0 40358.9 2881.06   8
  -7   4   0 36492.5 2853.70  14
   3  -7   0 39541.6 2185.71  19
   4   3   0 35356.0 2213.66  29
   4   3   1 9182.62 1136.24  29
  -7   4   1 10946.2 1484.91  14
   3  -7   1 10554.5 1446.01  23
   3  -7   1 7323.75 1015.49  22
   4   3   1 9821.24 1402.74   8
  -7   4   1 10255.3 1277.34  34
   3  -7   1 10344.5 1094.14  19
  -7   4   2 7835.80 1134.07  14
   4   3   2 7921.71 1156.80   8
   4   3   2 9005.47 1106.99  29
  -7   4   2 9721.60 1214.30  34
   3  -7   2 7935.18 827.872  19
   4   3   2 9528.42 944.364  18
   4   3   2 7133.36 908.118  17
   4   3   3 5348.29 764.317  29
   4   3   3 5424.42 658.402  18
  -7   4   3 5166.86 794.442  34
   4   3   3 4686.86 635.661  17
   4   4  -2 35850.3 1654.45  49
   4  -8  -2 41417.3 1821.14  12
  -8   4  -2 37277.7 1534.76  39
   4   4  -1 3042.91 424.153  48
   4  -8  -1 3716.89 641.327  16
  -8   4  -1 3591.06 725.378  14
  -8   4  -1 3894.88 511.907  39
   4  -8  -1 3581.89 498.274  19
   4  -8  -1 4054.20 653.525  12
   4  -8   0 9449.06 1043.76  16
  -8   4   0 9667.38 1234.36  14
   4  -8   0 10530.1 1163.42  23
   4   4   0 8971.74 1121.35   8
   4  -8   0 9189.87 883.372  19
   4  -8   0 10544.6 1065.71  12
   4   4   1 1661.28 363.599  29
   4  -8   1 1992.28 442.667  16
  -8   4   1 2182.25 549.195  14
   4  -8   1 1790.45 477.135  23
   4   4   1 2324.83 545.946   8
   4  -8   1 1736.16 380.105  12
   4  -8   1 1656.97 368.687  19
  -8   4   2 11385.4 1046.52  14
   4  -8   2 11531.6 1127.89  23
   4   4   2 10122.6 987.863   8
   4  -8   2 9837.89 720.608  19
  -8   4   2 10184.4 921.767  34
   4   4   2 9042.08 798.009  29
   5  -8  -2 1943.44 408.633  16
   3   5  -2 2130.11 304.474  48
   3   5  -1 4491.17 498.654  48
   5  -8  -1 7293.83 896.680  16
  -8   3  -1 6962.49 919.247  14
  -8   3  -1 6513.73 630.034  39
   5  -8  -1 7051.97 639.888  19
   5  -8  -1 7775.84 864.753  12
   5  -8   0 38913.3 2159.94  16
  -8   3   0 35000.9 2224.23  14
   3   5   0 37570.7 2188.36   8
   5  -8   0 41752.7 1831.44  19
   5  -8   1 7806.18 783.497  19
  -8   3   1 6186.87 898.808  14
   5  -8   1 7274.31 886.550  23
   3   5   1 6898.73 929.398   8
  -8   3   2 4527.56 661.277  14
   5  -8   2 4929.15 678.757  23
   3   5   2 4775.80 672.107   8
   5  -8   2 4698.27 499.151  19
   2   5  -3 5858.16 529.454  48
  -7   2  -3 7627.72 910.890  46
  -7   2  -3 8575.54 774.360  39
   5  -7  -3 8566.56 754.743  37
   2   5  -2 2798.56 466.383  48
   5  -7  -2 4126.30 781.626  16
  -7   2  -2 5094.42 1046.93  27
   5  -7  -2 3336.62 654.780  11
  -7   2  -1 7886.41 1345.64  27
   5  -7  -1 5541.37 771.876  21
  -7   2  -1 7922.24 1181.06  14
   2   5  -1 6536.24 1018.77   8
   5  -7  -1 8477.38 886.127  19
   5  -7  -1 5371.39 851.556  11
  -7   2   0 23626.1 2270.51  27
   5  -7   0 21570.1 1912.50  22
   5  -7   0 21803.8 1615.34  21
   2   5   0 23081.8 2035.57   8
   2   5   0 24227.4 2360.24   7
  -7   2   1 9871.14 1337.06  26
   5  -7   1 10969.3 1311.40  22
   5  -7   1 9926.99 1060.09  21
   2   5   1 9442.05 1393.86   7
   2   5   1 8595.51 880.704  17
   2   5   2 62243.3 2466.64  17
  -7   2   2 67820.2 3308.21  26
   5  -7   2 76697.8 3340.58  22
   5  -7   2 62201.7 2372.63  21
  -7   2   2 66657.9 2807.83  34
   2   5   2 71979.1 3565.54   7
   2   5   2 59942.6 2983.79  30
   2   5   3 4349.28 582.742  29
   2   5   3 3955.35 534.255  17
   5  -7   3 3891.92 602.460  22
  -7   2   3 4854.54 672.412  34
   2   5   3 4256.02 662.573  30
  -6   1  -4 5827.17 857.484  46
   1   5  -4 4972.79 612.654  42
  -6   1  -4 6100.73 583.366  39
  -6   1  -3 9433.93 1457.95  27
   1   5  -3 8866.30 1060.34  41
  -6   1  -3 7659.74 976.258  38
   5  -6  -3 7255.29 1086.58  11
  -6   1  -2 128879. 5898.01  27
   5  -6  -2 118021. 4722.24  16
   5  -6  -2 97051.9 3362.45  21
   1   5  -2 113415. 4406.38  41
  -6   1  -2 109098. 3998.90  38
   5  -6  -2 112756. 4683.62  11
  -6   1  -1 15091.1 1948.65  27
   1   5  -1 14420.2 1537.83  41
   5  -6  -1 13348.1 1548.23  22
   5  -6  -1 13078.2 1245.91  21
   1   5  -1 12315.1 1772.19   7
  -6   1   0 21258.1 2269.51  27
  -6   1   0 19275.5 1894.56  26
  -6   1   0 15894.8 1570.14  25
   5  -6   0 19757.1 1876.12  22
   5  -6   0 20733.1 1632.42  21
   1   5   0 19833.5 2277.70   7
  -6   1   1 32671.1 2674.29  27
   1   5   1 30572.9 2204.02   9
  -6   1   1 34688.7 2595.20  26
  -6   1   1 29196.9 2172.66  25
   5  -6   1 27555.4 1951.28  28
   1   5   1 28985.4 2217.83  30
   1   5   1 30873.9 2847.31   7
   1   5   2 8561.26 991.605  17
   1   5   2 6760.66 960.909   9
  -6   1   2 8200.90 1242.25  26
  -6   1   2 6703.91 996.162  25
   1   5   2 6938.58 1092.49  30
  -6   1   3 6459.05 997.025  26
  -6   1   3 4708.63 706.602  25
   1   5   3 5694.64 919.995  30
   1   5   4 10872.6 870.680  17
  -6   1   4 9160.87 866.694  26
   1   5   4 9540.75 950.795  30
  -5   0  -4 13211.5 1520.70  46
   5  -5  -4 10930.3 1027.37  44
   0   5  -4 9609.96 1101.44  42
   0   5  -4 13369.9 1130.71  41
  -5   0  -4 11997.1 1188.44  38
   5  -5  -4 12886.8 1398.83  11
  -5   0  -3 50539.1 3530.94  27
  -5   0  -3 41134.4 2504.69  38
   0   5  -3 44551.3 2558.71  41
   5  -5  -3 45145.0 3023.68  11
   0   5  -2 13807.2 1143.17  51
   5  -5  -2 12982.6 1380.54  10
  -5   0  -2 14106.6 1445.42  38
  -5   0  -2 15911.9 2003.80  27
   5  -5  -2 14429.2 1075.27  64
   0   5  -2 12637.2 1427.74  41
  -5   0  -2 14979.7 1931.48  13
   5  -5  -2 13813.8 1430.39  69
   5  -5  -2 15088.3 1752.21  11
   0   5  -2 12024.0 1281.11  52
   0   5  -1 665.692 301.930  52
   0   5  -1 931.809 431.142   7
   0   5  -1 898.321 310.565  51
  -5   0  -1 1206.95 552.102  27
   5  -5  -1 753.732 240.420  64
  -5   0  -1 594.778 288.015  25
   0   5  -1 928.219 352.103   9
   0   5  -1 601.844 286.730  41
   5  -5  -1 849.097 394.714  22
  -5   0  -1 596.350 189.639  70
  -5   0  -1 523.694 340.549  13
   0   5   0 281950. 6143.58  51
   5  -5   0 252838. 6624.13  28
  -5   0   0 299732. 8617.82  27
  -5   0   0 302879. 7626.59  26
   0   5   0 255602. 6600.43   9
  -5   0   0 289616. 6971.63  25
   0   5   0 258156. 6614.73  41
   5  -5   0 260679. 5093.83  64
   0   5   0 277490. 8486.75   7
   0   5   0 255573. 6497.67  52
   0   5   1 23486.2 1535.19  51
   5  -5   1 23380.4 1805.47  28
  -5   0   1 26963.4 2419.78  27
  -5   0   1 30074.2 2362.55  26
   5  -5   1 22609.6 1257.07  64
   0   5   1 22159.9 1821.98   9
  -5   0   1 27630.0 2081.12  25
  -5   0   1 19641.8 1089.29  67
   0   5   1 25177.6 1954.48  30
   0   5   1 21696.5 1693.10  52
  -5   0   2 28575.4 2402.43  27
   0   5   2 23563.1 1841.67   9
   5  -5   2 28612.8 2147.74  59
   0   5   2 22317.0 2119.82  32
   0   5   2 28631.1 2170.17  30
  -5   0   3 53403.4 2724.19  25
   0   5   3 53010.4 2977.06  30
  -5   0   4 55863.8 2686.03  26
   0   5   4 51475.7 2576.42  30
   5  -4  -5 1073.17 274.268  44
  -1   5  -5 1312.10 342.707  42
  -4  -1  -5 935.263 254.491  38
  -4  -1  -4 30504.3 2427.94  46
  -1   5  -4 27229.8 2150.55  42
  -4  -1  -4 32634.2 2154.38  38
   5  -4  -3 9938.99 1337.44  10
  -1   5  -3 9697.74 1185.32  41
  -4  -1  -3 12174.6 1779.07  13
   5  -4  -3 9589.55 1375.40  11
  -1   5  -2 21510.3 1399.23  51
   5  -4  -2 21961.1 1814.01  50
   5  -4  -2 21869.6 1905.41  10
  -4  -1  -2 24734.9 2374.70  27
  -4  -1  -2 25148.6 2503.22  13
   5  -4  -2 22963.8 1826.52  69
  -4  -1  -2 25420.7 1720.54  36
  -1   5  -2 20488.6 1579.09  52
  -1   5  -1 22076.9 1467.81  51
   5  -4  -1 11985.6 1347.52  28
  -4  -1  -1 17311.6 1894.28  27
   5  -4  -1 24764.9 1311.19  64
  -4  -1  -1 19146.0 1105.55  70
  -4  -1  -1 17201.5 1334.53  36
  -1   5  -1 18633.0 1477.65  52
  -1   5   0 40829.6 2179.09  52
  -4  -1   0 36994.6 1531.38  70
   5  -4   0 40017.8 1626.11  64
  -4  -1   1 7560.85 1231.85  27
  -4  -1   1 4752.88 494.050  67
   5  -4   1 5721.46 572.502  64
  -4  -1   1 4519.09 619.089  61
  -1   5   1 5581.45 974.275  32
  -1   5   1 5695.08 604.910  57
  -4  -1   2 17413.6 1383.34  61
   5  -4   2 17362.0 1574.23  58
  -1   5   2 21593.1 1992.49  32
  -1   5   2 20724.9 1330.08  57
  -1   5   3 1476.64 547.625  32
  -1   5   4 31662.2 2232.10  32
  -1   5   5 4527.41 619.302  32
  -1   5   5 6198.29 707.263  30
   5  -3  -5 13494.4 1028.85  44
  -2   5  -5 12466.5 1185.86  42
  -3  -2  -5 14421.5 1106.90  38
  -2   5  -4 117095. 4611.63  46
  -3  -2  -4 107552. 3402.18  36
   5  -3  -3 15157.7 1550.26  50
   5  -3  -3 15443.3 1731.03  10
   5  -3  -3 18376.7 1545.75  42
  -2   5  -3 15788.8 1361.32  40
  -3  -2  -3 15976.0 2035.33  13
   5  -3  -3 13216.2 1417.65  69
  -3  -2  -3 14017.5 1294.37  36
  -2   5  -2 20512.6 1320.86  51
   5  -3  -2 21241.6 1763.17  50
   5  -3  -2 24036.5 2039.50  10
  -2   5  -2 25057.2 1769.71  40
   5  -3  -2 22083.2 1718.96  69
  -3  -2  -2 23400.9 1652.90  36
   5  -3  -2 21218.2 1798.57  18
  -3  -2  -1 12594.2 863.891  63
  -3  -2  -1 13756.0 919.934  70
  -2   5  -1 15154.2 1235.11  66
   5  -3  -1 13870.2 925.066  64
  -3  -2   0 47391.6 1702.23  70
   5  -3   0 52630.0 1763.11  64
  -3  -2   0 45059.9 1706.84  63
  -2   5   0 51484.4 2183.20  66
  -2   5   1 102253. 3157.67  66
  -3  -2   1 101478. 3160.80  61
   5  -3   1 94793.6 3165.06  58
  -2   5   1 101438. 2676.76  57
  -3  -2   2 88398.8 3278.85  61
  -2   5   2 84280.6 3774.07  33
   5  -3   2 81437.8 3310.33  58
  -2   5   2 94663.7 2888.78  57
  -2   5   2 86726.5 3067.33  31
  -3  -2   3 15561.3 1419.11  61
  -2   5   3 16616.3 1612.85  33
   5  -3   3 15722.1 1503.08  58
  -2   5   3 16838.8 1237.18  57
  -2   5   3 15031.8 1222.18  31
  -2   5   4 31206.7 2266.70  32
  -2   5   5 2316.94 479.728  32
  -3   5  -5 9556.24 1015.05  46
  -2  -3  -5 7926.04 873.890  45
   5  -2  -5 6882.36 669.387  44
  -3   5  -5 6318.80 799.065  42
  -2  -3  -5 7133.52 767.593  38
   5  -2  -4 41574.3 2455.35  50
  -3   5  -4 39773.9 2611.87  46
   5  -2  -4 34808.4 1968.00  44
  -2  -3  -4 39550.3 2041.48  36
   5  -2  -3 6651.60 1030.84  50
   5  -2  -3 7487.21 1185.76  10
   5  -2  -3 10250.6 1150.84  42
  -2  -3  -3 7452.12 955.083  36
  -3   5  -3 8146.91 1004.42  40
  -2  -3  -3 8521.90 1438.59  13
   5  -2  -3 7186.96 996.748  69
   5  -2  -2 100140. 3959.65  49
  -2  -3  -2 97915.4 3841.52  15
  -2  -3  -2 95403.3 3421.30  36
   5  -2  -2 111510. 3729.92  42
  -2  -3  -2 98885.0 4573.74  24
  -3   5  -2 87728.1 3470.85  40
   5  -2  -2 84051.5 3315.75  69
  -3   5  -2 90715.3 3661.64  66
   5  -2  -2 93510.4 3869.18  18
  -2  -3  -1 40638.1 1716.57  63
   5  -2  -1 43824.8 1582.31  65
  -2  -3   0 41921.2 1717.05  63
   5  -2   0 43579.6 1597.77  65
  -2  -3   0 43077.0 1555.93  70
  -3   5   0 47432.4 2230.17  66
  -2  -3   1 10066.8 727.402  70
  -3   5   1 10127.0 999.831  66
   5  -2   1 9524.69 925.348  58
  -3   5   1 11296.6 854.194  57
  -2  -3   2 18542.9 1048.17   3
  -2  -3   2 23869.3 1633.05  61
  -3   5   2 23209.9 1927.62  33
   5  -2   2 22608.4 1615.22  58
  -3   5   2 23544.4 1331.58  57
  -3   5   2 23241.5 1500.51  31
   5  -2   2 23645.5 1599.73  18
  -2  -3   3 12091.2 1219.08  61
  -3   5   3 11958.5 1407.98  33
   5  -2   3 12570.7 1273.25  58
  -3   5   3 12232.6 994.972  57
  -3   5   3 11806.5 1074.45  31
  -3   5   3 10765.5 1133.66  56
  -3   5   4 63779.3 3016.23  33
  -3   5   4 54446.3 2147.79  31
  -3   5   5 5624.67 756.435  32
  -4   5  -5 11873.1 1031.69  46
  -1  -4  -5 10407.4 1011.65  45
   5  -1  -5 12873.3 934.913  42
   5  -1  -4 37398.5 2241.43  50
  -4   5  -4 35911.7 2371.00  46
   5  -1  -4 38988.3 2152.31  42
  -4   5  -4 31938.2 1748.76  40
  -1  -4  -4 32250.0 1823.63  36
   5  -1  -3 6495.43 996.462  10
   5  -1  -3 6686.99 1034.42  49
  -1  -4  -3 6413.06 935.724  15
   5  -1  -3 5491.83 870.915  42
  -4   5  -3 4056.12 722.482  40
  -1  -4  -3 5253.27 798.074  36
   5  -1  -2 22667.0 1885.89  49
  -1  -4  -2 26553.8 1965.52  15
  -4   5  -2 27911.3 2714.62  14
   5  -1  -2 28388.8 1831.28  42
  -1  -4  -2 25166.6 2224.36  24
  -4   5  -2 22356.1 1778.54  40
  -1  -4  -2 25383.8 2054.38  12
  -1  -4  -2 25735.1 2143.06  20
  -4   5  -2 23506.2 1906.07  66
   5  -1  -2 26189.0 1972.56  18
  -1  -4  -2 21084.4 1794.86  53
  -4   5  -1 12176.2 1623.20  34
  -4   5  -1 16596.3 1985.87  14
   5  -1  -1 10611.5 792.506  65
  -1  -4  -1 15295.7 1649.32  24
  -4   5  -1 10197.7 1128.45  40
  -1  -4  -1 13485.0 1414.47  12
  -4   5  -1 12328.6 1257.82  66
  -1  -4  -1 14034.8 1506.17  20
   5  -1  -1 12748.7 1274.69  18
   5  -1  -1 12597.4 1409.75  29
  -1  -4   0 12579.8 954.436  63
   5  -1   0 14498.6 952.911  65
  -4   5   1 72765.0 2900.45  66
   5  -1   1 67225.5 2220.27  65
   5  -1   1 79409.8 3143.09  35
  -1  -4   1 59708.5 2236.74  63
  -4   5   1 77032.0 3862.86  34
  -1  -4   1 58396.5 2380.80  60
  -4   5   1 76978.2 3436.74  33
   5  -1   1 83557.6 2811.85  58
   5  -1   1 82191.7 3157.51  18
  -4   5   2 44609.6 2891.52  34
  -4   5   2 43744.5 2685.21  33
   5  -1   2 42821.9 2219.89  58
  -4   5   2 42143.5 2058.48  31
   5  -1   2 43700.2 2342.68  18
  -4   5   3 14642.1 1571.03  33
  -4   5   3 14604.7 1199.71  31
   5  -1   3 15285.2 1345.12  18
  -4   5   4 32556.3 2149.37  33
  -4   5   4 28950.1 1530.69  31
  -4   5   5 1240.05 300.620  33
   5   0  -4 45119.8 2218.04  50
  -5   5  -4 41042.4 1918.29  40
   0  -5  -4 44493.0 2026.75  36
   5   0  -3 45249.6 2671.08  49
   5   0  -3 50483.1 2528.61  42
  -5   5  -3 39946.7 2327.03  40
   0  -5  -3 48696.0 2839.99  12
   5   0  -2 23287.3 1960.24  49
   0  -5  -2 24665.4 1870.42  15
  -5   5  -2 28184.3 2788.92  14
   0  -5  -2 24232.1 2026.77  20
   0  -5  -2 22390.5 1940.80  12
  -5   5  -2 20641.1 1795.15  66
  -5   5  -1 25695.6 2594.03  14
  -5   5  -1 21862.4 2209.46  34
   0  -5  -1 25705.6 2148.33  24
   0  -5  -1 24709.0 2310.82  23
  -5   5  -1 20834.2 1719.89  66
   0  -5  -1 25571.1 2044.43  20
   0  -5  -1 21479.7 1842.47  12
   0  -5  -1 21306.4 1618.19  19
   5   0  -1 21157.8 1654.94  18
   0  -5  -1 18358.4 1579.22  53
   5   0  -1 22397.9 1972.11  29
  -5   5   0 305454. 8791.81  14
   0  -5   0 292434. 7884.84  23
  -5   5   0 252598. 6217.71  66
   5   0   0 250696. 5931.64  35
   5   0   0 253302. 4925.61  65
   0  -5   0 261388. 6469.14  12
   0  -5   0 250029. 6007.90  19
   0  -5   0 249917. 5154.45  63
  -5   5   0 273076. 7943.51  34
   5   0   0 266499. 6249.27  18
   5   0   0 261138. 7016.75  29
   5   0   1 1063.73 445.839  29
   5   0   1 826.779 231.560  65
   0  -5   1 856.061 344.776  23
  -5   5   1 1065.11 345.308  66
   5   0   1 669.793 281.979  35
   0  -5   1 770.782 254.184  63
   0  -5   1 822.922 293.704  19
  -5   5   1 420.840 271.800  34
   0  -5   1 818.065 265.360  60
  -5   5   1 1063.12 369.557  33
   5   0   1 907.651 324.550  18
   5   0   2 15130.0 1569.92  29
   5   0   2 13429.4 978.058  65
   0  -5   2 11179.7 952.849  63
  -5   5   2 13616.3 1638.50  34
   0  -5   2 12661.2 1161.24  60
  -5   5   2 15024.0 1533.60  33
   5   0   2 16890.8 1499.95  18
   5   0   3 48077.6 2688.76  29
  -5   5   3 46596.5 2870.85  34
  -5   5   3 49561.8 2843.28  33
  -5   5   3 47898.3 2173.36  31
   5   0   3 52507.1 2621.86  18
  -5   5   4 13034.1 1275.37  33
  -5   5   4 10965.0 889.273  31
   5   0   4 13226.2 1087.42  18
   5   1  -4 9720.47 758.882  42
  -6   5  -4 7953.71 711.166  40
   1  -6  -4 7357.45 692.843  36
   5   1  -3 15399.4 1420.25  49
  -6   5  -3 12002.4 1170.06  40
   1  -6  -3 16482.0 1496.92  12
   5   1  -2 30332.8 2212.95  49
  -6   5  -2 33146.7 2954.16  14
   1  -6  -2 28703.2 2132.84  12
  -6   5  -1 44315.6 3137.60  34
  -6   5  -1 51011.1 3682.34  14
   1  -6  -1 45631.7 3227.37  23
  -6   5  -1 47562.1 2610.56  39
   1  -6  -1 48547.3 2798.99  20
   1  -6  -1 44839.0 2677.83  12
   1  -6  -1 42817.4 2345.87  19
   5   1  -1 43409.2 2764.19  29
  -6   5   0 15918.0 1978.27  14
   1  -6   0 14112.4 1713.08  23
   5   1   0 12402.7 1566.17   8
   1  -6   0 12236.9 1233.30  19
  -6   5   0 14216.0 1737.51  34
   1  -6   0 12236.0 1319.43  12
   5   1   0 13779.6 1273.91  18
   5   1   0 13175.2 1498.09  29
   5   1   1 18182.2 1763.00  29
  -6   5   1 20688.3 2141.00  14
   1  -6   1 21833.0 2077.21  23
   1  -6   1 16605.6 1375.75  19
  -6   5   1 18660.5 1954.14  34
   5   1   1 19561.6 1562.57  18
   5   1   2 67021.5 3419.85  29
   1  -6   2 69062.0 3576.73  23
  -6   5   2 68349.5 3688.97  34
  -6   5   2 64539.8 3030.76  33
   5   1   2 75911.0 3215.64  18
   5   1   3 6727.41 960.225  29
  -6   5   3 5828.05 960.873  34
  -6   5   3 6543.71 906.454  33
   5   1   3 8304.39 970.531  18
   5   1   4 32496.6 1619.35  29
  -6   5   4 26129.3 1568.12  34
  -6   5   4 28558.8 1625.26  33
  -6   5   4 26848.7 1236.06  31
   5   1   4 35346.2 1615.16  18
   5   2  -3 11848.5 1015.12  49
  -7   5  -3 10160.7 886.869  40
   2  -7  -3 12475.2 1071.79  12
   5   2  -2 15728.1 1422.09  49
   2  -7  -2 17681.3 1324.28  15
   2  -7  -2 15600.5 1426.47  12
   2  -7  -1 6992.71 981.719  16
  -7   5  -1 7532.27 1302.50  14
   2  -7  -1 8575.80 1094.96  12
   2  -7  -1 7867.06 931.684  19
   5   2  -1 8430.76 1067.50  29
  -7   5   0 43853.6 3155.07  14
   5   2   0 47706.8 3043.71   8
   2  -7   0 46216.3 3030.90  23
  -7   5   0 39667.0 2689.65  34
   2  -7   0 40640.8 2183.54  19
   2  -7   0 40342.4 2353.24  12
   5   2   0 41973.4 2510.31  29
   5   2   1 22749.2 1844.24  29
  -7   5   1 24973.6 2217.07  14
   2  -7   1 26153.5 2205.04  23
   5   2   1 24881.4 2093.18   8
   2  -7   1 21536.7 1510.04  19
  -7   5   1 21504.0 1950.73  34
   5   2   1 23116.7 1522.38  18
   5   2   2 12130.0 1282.83  29
   2  -7   2 14404.9 1504.96  23
   2  -7   2 8791.04 790.668  19
  -7   5   2 11845.0 1376.32  34
   5   2   2 12138.0 1093.33  18
   5   2   3 9234.47 960.418  29
   2  -7   3 8741.98 910.300  23
  -7   5   3 7910.16 967.514  34
  -7   5   3 9122.27 725.015  31
   5   2   3 9033.28 841.647  18
   5   3  -2 8155.69 754.301  49
  -8   5  -2 6825.95 621.867  40
   3  -8  -2 8840.74 817.471  12
   3  -8  -1 4320.04 638.298  16
   5   3  -1 4632.81 653.305  49
  -8   5  -1 6003.12 942.604  14
   3  -8  -1 5097.58 693.577  12
   3  -8   0 6040.20 913.896  23
   3  -8   0 5225.18 698.382  12
   3  -8   0 7069.12 764.170  19
   5   3   0 5066.77 671.202  29
   5   3   1 1728.56 401.027  29
  -8   5   1 2545.68 565.807  14
   3  -8   1 1786.79 476.821  23
   3  -8   1 2479.36 482.713  20
   3  -8   1 2183.77 399.944  19
  -8   5   1 2503.74 514.598  34
   3  -8   2 16882.8 1291.78  23
  -8   5   2 13196.0 1107.28  34
   5   3   2 14330.8 1036.97  29
   2   6  -1 5182.80 486.966  48
   6  -8  -1 6455.18 749.141  16
   2   6   0 3028.74 364.826  48
  -8   2   0 5750.36 825.211  27
   6  -8   0 4270.69 653.745  16
  -8   2   0 4854.12 708.801  14
   2   6   0 4262.08 626.322   8
   6  -8   0 5842.69 592.031  19
  -8   2   1 7023.48 848.607  14
   2   6   1 6620.39 794.003   8
   6  -8   1 8196.91 725.076  19
  -7   1  -3 11558.5 1026.26  46
  -7   1  -3 11856.6 795.506  39
   6  -7  -3 12949.6 1039.80  11
   6  -7  -2 15289.0 1268.08  16
   1   6  -2 11532.4 848.417  48
  -7   1  -2 21320.6 1960.14  27
   1   6  -2 21745.9 1506.89  41
   6  -7  -2 17454.2 1458.79  11
  -7   1  -1 5721.11 1073.89  27
   6  -7  -1 6042.77 900.060  16
   1   6  -1 5942.54 813.917  41
   6  -7  -1 5223.53 685.754  21
   6  -7  -1 5577.78 868.041  11
  -7   1   0 210847. 6789.93  27
   6  -7   0 195826. 5677.79  22
   6  -7   0 199201. 5016.34  21
   1   6   0 197958. 5636.19   8
   1   6   0 206300. 6890.63   7
  -7   1   1 9863.96 1287.58  27
  -7   1   1 10460.4 1244.25  26
   6  -7   1 9847.37 1165.01  22
   6  -7   1 9737.19 1005.92  21
   1   6   1 10027.8 1228.83   8
   1   6   1 9646.28 1385.43   7
  -7   1   2 13094.7 1303.88  26
   6  -7   2 13460.9 1276.70  22
   6  -7   2 13332.0 1022.74  21
   1   6   2 13744.5 1481.05   7
   1   6   2 11662.9 1154.53  30
  -7   1   3 17222.1 1189.27  26
   6  -7   3 19332.9 1229.23  22
   1   6   3 15611.6 1113.02  30
  -6   0  -3 17559.9 1700.60  27
   0   6  -3 15555.0 1264.88  41
  -6   0  -3 15285.1 1225.34  38
   6  -6  -3 16136.0 1489.29  11
  -6   0  -2 5811.63 1131.10  27
   0   6  -2 4939.93 829.336  41
  -6   0  -2 4504.21 698.367  38
   6  -6  -2 4960.53 929.745  11
   0   6  -1 66871.3 2671.80  51
  -6   0  -1 68092.0 4034.89  27
   0   6  -1 57002.1 2975.24  41
  -6   0  -1 66642.8 3686.09  13
   6  -6  -1 58913.1 3034.85  22
   6  -6  -1 63864.9 2684.61  21
   0   6  -1 64065.8 3910.96   7
   0   6   0 9935.91 1027.90  51
  -6   0   0 11486.3 1634.78  27
   0   6   0 8333.28 1104.42   9
  -6   0   0 9272.15 1218.51  26
  -6   0   0 8518.41 1096.59  25
   6  -6   0 10287.9 1263.92  22
   0   6   0 9011.99 1480.69   7
   6  -6   1 8535.30 1089.45  28
  -6   0   1 11149.0 1539.05  27
   0   6   1 8992.32 1144.04   9
  -6   0   1 10535.3 1340.07  26
  -6   0   1 9549.49 1185.84  25
   6  -6   1 9962.89 1265.66  22
   0   6   1 8050.92 1085.11  30
   0   6   1 10859.5 1607.54   7
   6  -6   2 129099. 4188.80  28
  -6   0   2 136951. 5020.36  27
   0   6   2 121840. 4089.16   9
  -6   0   2 126798. 4357.92  25
   0   6   2 130477. 4549.15  30
   0   6   3 1932.91 384.651  17
   6  -6   3 1941.33 395.589  28
  -6   0   3 2528.94 562.414  26
  -6   0   3 2348.66 464.898  25
   0   6   3 2207.59 506.425  30
  -5  -1  -4 27460.5 1805.98  46
   6  -5  -4 27161.7 1440.37  44
  -5  -1  -4 30224.4 1624.29  38
  -1   6  -3 5017.34 842.124  42
  -1   6  -3 5302.90 794.020  41
  -5  -1  -3 5475.64 831.034  38
   6  -5  -3 7128.56 1070.22  11
  -1   6  -2 65943.7 2492.19  51
   6  -5  -2 58343.2 3066.41  10
  -5  -1  -2 68775.4 4014.46  27
  -1   6  -2 59966.9 3071.29  41
  -5  -1  -2 67436.3 4100.90  13
  -5  -1  -2 51466.3 2702.25  38
   6  -5  -2 61864.0 3525.96  11
  -1   6  -1 18106.0 1393.67  51
   6  -5  -1 19793.3 1719.50  10
  -5  -1  -1 20422.6 2194.87  27
  -1   6  -1 16266.0 1466.75   9
  -1   6  -1 17630.0 1670.88  41
  -5  -1  -1 19873.0 2178.06  13
  -1   6  -1 19619.5 2153.60   7
  -1   6   0 14384.5 1276.58  51
   6  -5   0 13182.2 1452.90  28
  -5  -1   0 16379.2 1965.56  27
  -1   6   0 13173.6 1395.92   9
  -5  -1   0 15110.6 1468.64  25
  -1   6   0 12253.2 1322.67  41
  -1   6   0 14373.2 1867.99   7
  -1   6   1 42350.1 2098.14  51
   6  -5   1 46918.7 2726.24  28
  -1   6   1 45085.3 2654.89   9
   6  -5   2 31903.4 2151.45  28
  -1   6   2 28110.2 1994.38   9
  -1   6   2 27342.0 2362.09  32
  -1   6   2 29620.9 2126.22  30
   6  -5   3 15742.5 1363.66  28
  -1   6   3 12071.1 1115.36   9
  -5  -1   3 16090.0 1389.56  25
  -1   6   3 14534.9 1580.19  32
  -1   6   3 15105.5 1443.35  30
   6  -5   4 7807.58 739.262  28
  -5  -1   4 9182.78 921.952  26
  -1   6   4 7592.11 903.829  32
  -1   6   4 9830.75 953.514  30
   6  -4  -4 1208.94 325.420  44
  -2   6  -4 1095.44 391.978  42
  -4  -2  -4 785.661 285.569  38
   6  -4  -3 20550.8 1884.35  10
  -2   6  -3 18790.8 1575.90  41
  -4  -2  -3 20210.0 2230.85  13
   6  -4  -3 17730.7 1647.79  11
   6  -4  -2 149793. 5004.57  50
   6  -4  -2 154677. 5442.13  10
  -4  -2  -2 162923. 6675.31  13
  -4  -2  -2 149160. 4413.81  36
   6  -4  -2 158211. 5528.84  11
  -2   6  -1 13446.1 1294.96  52
  -2   6  -1 16391.3 1322.19  51
   6  -4  -1 11350.9 1344.19  28
  -4  -2  -1 18106.0 1995.06  27
  -4  -2  -1 14387.2 1010.51  70
   6  -4  -1 11607.6 1331.77  18
  -2   6   0 56378.9 2778.53  52
  -2   6   0 62592.3 2651.81  51
   6  -4   0 47093.3 2716.25  28
  -4  -2   0 68429.8 3961.43  27
  -4  -2   0 43041.5 2939.16  24
  -2   6   0 61598.3 2917.44   9
  -4  -2   0 54027.5 1949.44  70
   6  -4   0 43389.1 2502.92  35
   6  -4   0 38866.1 2363.67  18
  -2   6   1 24815.9 1583.50  51
  -4  -2   1 24857.1 1311.28  70
   6  -4   1 28711.4 1935.54  35
  -2   6   1 26060.9 2248.78  32
   6  -4   2 13764.0 1276.67  35
  -2   6   2 14859.6 1717.21  32
  -4  -2   3 34302.8 2477.89  27
  -2   6   3 28022.3 2261.45  32
  -2   6   4 116587. 4020.70  32
   6  -3  -4 13347.3 1047.10  44
  -3   6  -4 11555.0 1260.20  42
   6  -3  -3 21875.8 1819.41  50
   6  -3  -3 22199.0 1989.03  10
  -3   6  -3 26904.3 1776.00  40
  -3  -3  -3 24323.2 2395.13  13
  -3  -3  -3 23454.6 1614.78  36
  -3   6  -2 13391.6 1108.78  51
   6  -3  -2 13925.9 1463.94  50
   6  -3  -2 16472.2 1748.64  10
  -3   6  -2 15027.4 1421.28  40
  -3  -3  -2 14220.3 1292.99  36
   6  -3  -2 14738.5 1576.50  18
   6  -3  -1 6861.54 971.050  50
  -3  -3  -1 7171.62 1049.53  15
  -3  -3  -1 7302.38 1249.67  24
  -3   6  -1 10289.7 1161.07  40
  -3  -3  -1 7112.14 844.249  36
  -3   6  -1 6239.18 895.466  66
   6  -3  -1 6758.37 1024.37  18
   6  -3   0 174766. 5141.20  28
  -3  -3   0 167510. 5050.06  15
  -3  -3   0 172072. 6057.69  24
  -3   6   0 175278. 4618.20  40
  -3  -3   0 149361. 3519.33  70
  -3  -3   0 161176. 5552.37  20
  -3   6   0 156050. 4579.15  66
   6  -3   0 156584. 5010.81  35
   6  -3   0 154043. 3554.86  65
  -3   6   0 165434. 6528.90  34
  -3  -3   0 139584. 3519.72  63
   6  -3   0 156176. 4909.33  18
  -3   6   0 142822. 4134.58  31
  -3  -3   1 24225.7 2105.86  24
  -3  -3   1 17692.1 1053.87  70
  -3   6   1 20673.7 1556.05  66
   6  -3   1 21770.2 1731.55  35
  -3  -3   1 16427.3 1144.24  63
  -3   6   1 16989.7 1387.21  31
   6  -3   1 19577.0 1566.19  18
   6  -3   2 5978.42 884.864  35
  -3   6   2 6229.24 1098.02  33
  -3   6   2 5955.86 1052.17  32
  -3   6   2 6025.33 830.208  31
   6  -3   3 47725.4 2392.14  35
  -3   6   3 42906.2 2693.37  33
  -3   6   3 50483.3 2958.07  32
  -3  -3   4 7916.38 945.568  27
   6  -3   4 5514.81 659.802  35
  -3   6   4 7735.26 1015.35  32
   6  -2  -4 49723.5 2314.89  50
  -2  -4  -4 52483.1 2021.34  36
   6  -2  -3 25392.3 1980.87  10
   6  -2  -3 24093.9 1900.43  50
   6  -2  -3 32387.2 1931.54  42
  -4   6  -3 24902.0 1727.30  40
  -2  -4  -3 27333.7 2387.57  13
  -2  -4  -3 24864.5 1660.05  36
   6  -2  -2 12290.9 1380.15  50
   6  -2  -2 12810.5 1412.42  49
   6  -2  -2 13935.2 1544.81  10
  -2  -4  -2 12107.9 1359.14  15
  -2  -4  -2 12180.3 1587.21  24
  -4   6  -2 13208.4 1352.34  40
  -2  -4  -2 12152.7 1179.79  36
   6  -2  -2 12024.4 1380.53  18
   6  -2  -1 14507.6 1437.72  49
  -2  -4  -1 14446.0 1492.82  15
  -2  -4  -1 14615.8 1744.07  24
  -4   6  -1 14650.2 1404.22  40
  -2  -4  -1 13154.1 1132.02  36
  -2  -4  -1 13068.1 1557.72  20
  -4   6  -1 12896.7 1362.41  66
   6  -2  -1 15121.2 973.037  65
  -4   6  -1 15433.9 2004.91  34
   6  -2  -1 12329.7 1371.75  18
  -2  -4   0 166162. 5119.73  15
  -2  -4   0 189168. 6307.04  24
  -4   6   0 163934. 4905.46  66
  -2  -4   0 175495. 5786.95  20
   6  -2   0 167956. 5136.28  35
   6  -2   0 146584. 3572.60  65
  -4   6   0 167278. 6623.96  34
  -2  -4   0 135402. 3617.10  63
   6  -2   0 164245. 5050.08  18
   6  -2   0 175096. 5399.70  29
  -2  -4   1 47924.4 3034.22  24
  -4   6   1 37507.3 2217.45  66
  -2  -4   1 41979.7 2631.32  20
   6  -2   1 34089.2 1646.54  65
   6  -2   1 39763.7 2387.01  35
  -2  -4   1 32420.7 1667.01  63
  -4   6   1 40003.7 3045.52  34
  -4   6   1 37958.9 2686.66  33
  -4   6   1 36171.1 1974.43  31
   6  -2   1 37863.7 2263.77  18
  -2  -4   2 73134.6 3620.04  24
   6  -2   2 65896.3 3099.20  35
  -4   6   2 68934.3 3656.76  33
  -4   6   2 72024.3 2887.07  31
   6  -2   3 44358.9 2389.91  35
  -4   6   3 38054.9 2546.19  33
  -4   6   3 43690.6 2574.91  32
  -4   6   3 35603.6 1885.17  31
   6  -2   4 1408.52 340.790  35
  -4   6   4 1502.05 391.986  33
  -4   6   4 1368.33 382.517  32
  -4   6   4 1145.33 263.267  31
   6  -1  -4 10676.3 933.187  50
  -5   6  -4 10772.5 806.873  40
  -1  -5  -4 10591.4 820.898  36
   6  -1  -3 3744.12 709.098  50
  -5   6  -3 6145.31 827.364  40
  -1  -5  -3 4500.35 664.392  36
   6  -1  -2 5090.97 878.106  49
   6  -1  -2 4216.03 767.145  10
  -1  -5  -2 4946.26 838.663  15
  -1  -5  -2 5023.85 935.001  24
  -5   6  -2 7322.71 1016.68  40
  -1  -5  -2 4821.38 725.189  36
   6  -1  -2 4086.82 765.988  18
   6  -1  -1 30400.8 2122.26  49
  -1  -5  -1 31173.8 2177.05  15
  -5   6  -1 37894.1 3235.59  14
  -1  -5  -1 29939.0 2433.67  24
  -5   6  -1 29183.7 1997.57  40
  -1  -5  -1 29454.0 2163.07  12
  -1  -5  -1 26460.9 1603.76  36
  -1  -5  -1 31694.3 2392.30  20
  -5   6  -1 29089.6 2728.07  34
   6  -1  -1 27272.9 1991.59  18
   6  -1  -1 30278.0 2344.12  29
  -1  -5   0 19057.7 1643.33  15
  -1  -5   0 21754.2 2052.66  24
   6  -1   0 17239.7 1533.11  35
  -1  -5   0 18651.0 1820.15  20
  -5   6   0 20037.1 2256.75  34
   6  -1   0 18697.2 1629.23  18
   6  -1   0 17458.9 1720.77  29
  -1  -5   1 12815.1 1215.37  15
   6  -1   1 13818.2 1368.89  35
  -1  -5   1 13630.2 1512.88  20
  -5   6   1 15392.6 1921.18  34
  -5   6   1 12124.5 1435.02  33
  -5   6   1 14282.0 1187.91  31
   6  -1   1 13423.6 1362.58  18
   6  -1   1 12692.4 1421.69  29
   6  -1   2 118887. 4154.08  35
  -1  -5   2 118869. 4202.99  20
  -5   6   2 114101. 4990.96  34
  -5   6   2 103892. 4384.27  33
  -5   6   2 109259. 3537.12  31
   6  -1   2 115975. 3986.02  18
   6  -1   3 8212.97 984.458  35
  -5   6   3 7414.82 1066.61  33
  -5   6   3 7488.00 813.129  31
   6  -1   3 8197.73 913.043  18
   6  -1   4 6779.83 740.589  35
  -5   6   4 6878.10 834.804  33
  -5   6   4 7668.11 656.304  31
   6   0  -3 2377.58 502.388  50
   6   0  -3 2135.07 478.220  49
  -6   6  -3 2156.26 443.992  40
   0  -6  -3 2134.07 409.147  36
   6   0  -2 131237. 4462.17  49
   0  -6  -2 127862. 4121.44  15
  -6   6  -2 120472. 4074.81  40
   0  -6  -2 124344. 4386.28  12
   0  -6  -2 115474. 3517.90  36
   6   0  -1 8952.18 1124.60  49
   0  -6  -1 10035.4 1174.42  15
  -6   6  -1 11462.3 1707.80  14
   0  -6  -1 8996.13 1200.89  24
  -6   6  -1 9044.55 1064.80  40
   0  -6  -1 8343.14 1103.95  12
   0  -6  -1 8701.27 1166.63  20
  -6   6  -1 7322.09 1292.10  34
   6   0  -1 7730.32 964.270  18
   6   0  -1 9200.00 1231.15  29
  -6   6   0 9678.25 1497.78  14
   0  -6   0 12169.3 1457.41  24
   0  -6   0 9315.94 1360.31  23
   0  -6   0 9404.88 1240.65  20
  -6   6   0 10515.6 1552.91  34
   6   0   0 9930.54 1126.29  18
   6   0   0 9201.87 1243.39  29
   0  -6   1 63749.4 3382.03  23
   6   0   1 59287.0 2653.49  35
   0  -6   1 67309.0 3308.71  20
  -6   6   1 62809.0 3778.86  34
   6   0   1 65756.8 2969.97  18
  -6   6   1 58800.2 2312.06  31
   6   0   1 59879.7 3162.52  29
   6   0   2 4978.15 836.712  29
   6   0   2 4983.50 737.224  35
   0  -6   2 5510.68 846.332  20
  -6   6   2 4857.75 970.605  34
  -6   6   2 5015.08 833.994  33
  -6   6   2 4598.18 629.971  31
   6   0   2 4921.18 762.618  18
   6   0   3 16521.7 1231.66  35
  -6   6   3 15924.5 1477.05  34
  -6   6   3 15254.8 1341.22  33
  -6   6   3 15459.5 1067.16  31
   6   0   3 16699.5 1250.90  18
   6   0   3 14382.2 1184.20  29
   6   1  -3 9262.70 752.352  50
   6   1  -3 10093.3 832.644  49
  -7   6  -3 10183.4 772.238  40
   1  -7  -3 10017.3 714.556  36
   6   1  -2 9297.51 989.812  49
   1  -7  -2 8139.71 833.598  15
  -7   6  -2 9409.06 918.136  40
   1  -7  -2 9180.01 991.669  12
   1  -7  -2 7851.27 734.251  36
   6   1  -1 4718.77 742.793  49
   1  -7  -1 4751.02 723.961  15
  -7   6  -1 5283.80 1061.87  14
  -7   6  -1 4576.24 651.061  40
   1  -7  -1 4512.92 731.642  12
   1  -7  -1 4559.71 732.280  20
  -7   6  -1 4995.41 908.646  34
  -7   6   0 141374. 5494.82  14
   1  -7   0 129659. 4323.12  24
   1  -7   0 108666. 3608.17  12
   1  -7   0 128792. 4316.18  20
  -7   6   0 130893. 5063.82  34
   6   1   0 109898. 3421.71  18
   6   1   0 119520. 4288.85  29
   6   1   1 1242.69 413.029  29
   1  -7   1 1633.63 479.882  24
   1  -7   1 1227.22 436.878  23
   1  -7   1 1921.05 502.471  20
  -7   6   1 1752.26 554.587  34
   6   1   1 1411.57 364.608  18
   1  -7   2 30655.3 1866.67  23
   1  -7   2 31886.3 1886.96  20
  -7   6   2 30942.9 2153.37  34
   6   1   2 33002.7 1746.15  18
  -7   6   2 28289.2 1338.39  31
   6   1   2 32418.7 1943.78  29
   1  -7   3 22195.3 1355.42  24
  -7   6   3 19428.1 1357.39  34
  -7   6   3 17620.9 917.318  31
   6   1   3 20799.7 1150.54  18
   6   2  -1 6942.79 692.932  49
   2  -8  -1 6603.34 670.708  15
  -8   6  -1 7258.79 950.340  14
   2  -8  -1 6617.89 710.457  12
  -8   6   0 19168.3 1561.14  14
   2  -8   0 16668.6 1056.15  12
   2  -8   0 18091.6 1211.00  20
  -8   6   0 15912.7 1270.68  34
   2  -8   1 15100.7 1130.03  20
  -8   6   1 13288.9 1180.77  34
   6   2   1 12690.0 1028.11  29
  -7   0  -2 56294.7 2593.40  27
   0   7  -2 58782.2 2086.15  41
  -7   0  -1 1606.84 485.506  27
   0   7  -1 1719.65 365.958  41
   7  -7  -1 1636.07 302.485  21
   7  -7  -1 1610.06 418.249  11
  -7   0   0 16797.7 1629.90  27
   7  -7   0 13471.5 1011.53  21
   0   7   0 16921.8 1648.92   7
   7  -7   0 15476.2 1333.01  11
  -7   0   1 23793.8 1773.61  27
   7  -7   1 23929.4 1511.22  22
   7  -7   1 26867.7 1450.15  21
   0   7   1 25919.4 2005.65   7
  -7   0   2 771.479 265.973  26
   7  -7   2 978.520 263.384  22
   7  -7   2 819.852 214.471  21
   0   7   2 575.802 257.836   7
  -1   7  -3 20637.2 1174.18  41
   7  -6  -3 19742.9 1259.02  11
  -6  -1  -2 33756.1 2280.62  27
  -1   7  -2 28153.5 1739.20  41
   7  -6  -2 33297.9 2067.67  11
  -1   7  -1 2196.85 412.358  51
  -6  -1  -1 1874.45 571.381  27
  -1   7  -1 1086.49 363.084  41
  -6  -1  -1 1720.18 535.641  13
   7  -6  -1 1577.69 478.436  11
  -1   7   0 137047. 3676.99  51
  -6  -1   0 136496. 5317.47  27
  -1   7   0 119511. 4003.99   9
   7  -6   0 136599. 3839.96  21
  -1   7   0 131036. 5285.89   7
  -1   7   1 5346.38 619.487  51
   7  -6   1 4108.95 705.462  28
  -6  -1   1 5547.90 998.052  27
  -1   7   1 4996.63 776.690   9
  -6  -1   1 6327.88 878.017  26
  -6  -1   1 5181.64 770.890  25
   7  -6   1 4772.32 737.437  22
  -1   7   1 5056.05 1010.28   7
   7  -6   2 8444.86 913.004  28
  -6  -1   2 9468.71 1130.37  27
  -1   7   2 8757.90 920.361   9
  -6  -1   2 9978.92 1069.12  26
  -6  -1   2 8614.15 921.475  25
   7  -6   2 10969.7 1066.52  22
  -1   7   2 9347.47 1277.13   7
  -6  -1   3 10123.3 889.403  26
  -6  -1   3 8534.14 697.654  25
   7  -6   3 10333.6 866.789  22
  -1   7   3 11266.8 1134.06   7
  -2   7  -3 6829.54 822.024  42
  -2   7  -3 7531.91 799.010  41
  -5  -2  -3 7435.66 765.671  38
   7  -5  -3 7544.97 818.148  11
  -2   7  -2 10341.7 848.050  51
   7  -5  -2 11341.6 1211.57  10
  -2   7  -2 10240.3 1122.24  41
  -5  -2  -2 12928.0 1601.21  13
   7  -5  -2 12258.9 1298.06  11
  -2   7  -1 20795.1 1393.38  51
   7  -5  -1 25204.4 1881.38  10
  -5  -2  -1 23555.3 2142.96  27
  -2   7  -1 20972.4 1709.88  41
  -5  -2  -1 26974.6 2396.28  13
  -2   7   0 41365.3 2063.03  51
   7  -5   0 40625.8 2445.08  28
  -5  -2   0 47403.0 3144.07  27
  -2   7   0 39208.9 2275.91   9
  -5  -2   0 38269.9 2146.93  25
  -2   7   0 36455.0 2173.89  41
  -5  -2   0 45430.4 3009.90  13
  -2   7   0 38832.8 2839.75   7
  -2   7   1 8207.84 829.667  51
   7  -5   1 8691.27 1078.45  28
  -5  -2   1 10890.5 1470.02  27
  -5  -2   1 9863.54 1141.29  26
  -2   7   1 8632.52 1067.40   9
  -5  -2   1 11432.7 1219.37  25
  -2   7   1 10697.1 1509.62   7
   7  -5   2 18356.9 1510.35  28
  -5  -2   2 23190.0 2019.05  27
  -2   7   2 22072.3 1632.17   9
   7  -5   3 13425.7 1087.02  28
  -5  -2   3 12017.8 1099.09  27
  -5  -2   3 14119.6 1196.68  26
  -2   7   3 10823.2 905.980   9
  -5  -2   3 13407.5 1040.02  25
  -2   7   3 11774.7 987.336  30
  -3   7  -3 4510.88 630.033  41
  -4  -3  -3 5534.53 940.317  13
  -4  -3  -3 4520.82 648.790  38
   7  -4  -3 5779.75 824.472  10
  -3   7  -2 8351.65 802.934  51
   7  -4  -2 7749.42 1109.42  10
  -4  -3  -2 8399.96 1354.81  13
  -3   7  -1 10299.7 1010.47  51
  -4  -3  -1 10709.2 1396.23  27
   7  -4  -1 6739.87 998.849  18
  -3   7   0 33792.1 1900.83  51
   7  -4   0 36990.5 2273.87  28
  -4  -3   0 41972.5 2930.82  27
  -4  -3   0 36630.9 2649.24  24
  -3   7   0 33052.0 2062.84   9
   7  -4   0 38057.0 2283.46  18
  -3   7   1 12383.0 1060.91  51
   7  -4   1 11312.4 1243.23  28
  -4  -3   1 10624.7 1322.87  24
  -3   7   1 13848.3 1377.98   9
   7  -4   1 10043.7 1136.61  35
   7  -4   2 69552.7 3009.24  28
  -3   7   2 67940.6 2980.13   9
   7  -4   2 59124.5 2614.75  35
  -3   7   2 59646.0 3142.34  32
   7  -4   3 1675.53 395.966  28
  -4  -3   3 2058.98 502.259  27
  -3   7   3 1693.07 395.350   9
   7  -4   3 1669.01 342.697  35
  -3   7   3 2270.28 531.205  32
   7  -3  -3 3062.85 583.109  10
   7  -3  -3 2974.45 551.897  50
  -4   7  -3 2218.74 432.336  41
  -3  -4  -3 2625.38 603.835  13
  -3  -4  -3 3052.54 469.523  36
  -4   7  -2 60365.1 2258.86  51
   7  -3  -2 66954.5 2952.50  50
   7  -3  -2 71951.2 3352.03  10
  -4   7  -2 79718.4 3089.72  40
  -3  -4  -2 76138.6 4033.26  13
  -3  -4  -2 67291.2 2525.15  36
   7  -3  -1 25598.1 1768.57  50
  -3  -4  -1 26635.4 2283.31  24
  -4   7  -1 26557.3 1762.86  40
  -3  -4  -1 22791.9 1359.96  36
   7  -3  -1 24679.9 1919.90  18
  -3  -4   0 8042.34 998.482  15
  -3  -4   0 9944.29 1354.20  27
  -3  -4   0 6280.70 1115.71  24
  -4   7   0 11558.7 1148.80   9
   7  -3   0 7272.46 1036.21  35
   7  -3   0 5444.63 874.231  18
   7  -3   1 25581.0 1761.49  28
  -3  -4   1 25086.5 2102.61  24
  -3  -4   1 21942.7 1777.02  20
   7  -3   1 23150.9 1782.14  35
   7  -3   1 22158.3 1680.29  18
  -4   7   1 20949.1 1508.44  31
   7  -3   2 20397.8 1540.58  28
  -3  -4   2 16908.6 1492.97  24
   7  -3   2 16676.4 1417.68  35
   7  -3   2 16272.8 1275.50  18
  -4   7   2 15014.6 1252.64  31
  -3  -4   3 2950.81 623.947  27
   7  -3   3 2463.86 460.973  35
  -4   7   3 2269.48 503.867  32
   7  -2  -3 4177.97 616.799  50
  -5   7  -3 5858.09 665.099  40
  -2  -5  -3 4253.27 522.757  36
   7  -2  -2 69481.5 2950.54  50
   7  -2  -2 72834.6 3044.98  10
  -5   7  -2 68828.6 2803.96  40
  -2  -5  -2 66692.1 2392.51  36
   7  -2  -1 9205.62 1057.75  50
  -2  -5  -1 9158.92 1085.81  15
  -2  -5  -1 8302.41 1191.44  24
  -5   7  -1 10028.7 1054.37  40
   7  -2  -1 9173.28 1110.82  18
  -2  -5   0 22259.3 1653.89  15
  -2  -5   0 22079.1 2016.85  24
  -2  -5   0 22763.7 1910.13  20
   7  -2   0 22065.2 1722.57  35
  -5   7   0 26158.3 2540.83  34
   7  -2   0 22070.1 1748.94  18
  -2  -5   1 6329.43 1031.24  24
  -2  -5   1 6342.34 944.173  20
   7  -2   1 5739.93 870.349  35
  -5   7   1 7057.28 1236.17  34
   7  -2   1 6097.03 875.184  18
  -5   7   1 7676.76 852.948  31
  -2  -5   2 4410.40 768.270  24
   7  -2   2 4463.16 718.134  35
  -5   7   2 4547.83 642.094  31
   7  -2   2 4514.47 680.816  18
   7  -2   3 9470.00 908.482  35
  -5   7   3 8677.35 775.707  31
   7  -1  -3 18913.1 1157.28  50
  -6   7  -3 19408.1 1062.47  40
  -1  -6  -3 18066.2 944.878  36
   7  -1  -2 12918.1 1155.67  50
  -1  -6  -2 12487.1 1074.58  15
  -6   7  -2 12709.7 1065.35  40
  -1  -6  -2 12148.4 882.310  36
  -1  -6  -1 8541.11 983.128  15
  -1  -6  -1 9559.65 1161.42  24
  -6   7  -1 8830.07 904.489  40
   7  -1  -1 8452.17 962.898  18
  -1  -6   0 183760. 4915.46  15
  -1  -6   0 204855. 6005.47  24
  -1  -6   0 191643. 5618.09  20
  -6   7   0 204022. 6888.98  34
   7  -1   0 198250. 5226.57  18
  -1  -6   1 6480.77 984.081  24
   7  -1   1 5976.94 783.543  35
  -1  -6   1 5338.62 821.605  20
  -6   7   1 6253.10 1104.01  34
   7  -1   1 5697.39 802.055  18
  -6   7   1 4641.80 577.163  31
   7  -1   1 6115.01 862.304  29
  -1  -6   2 17920.9 1464.80  24
  -1  -6   2 14211.4 1125.66  20
   7  -1   2 18073.4 1300.71  35
  -6   7   2 20040.8 1743.96  34
  -6   7   2 18634.7 1157.31  31
   7  -1   2 17346.3 1291.62  18
   7  -1   3 13922.2 948.688  35
  -6   7   3 12267.9 800.529  31
   7   0  -2 888.912 249.370  50
   0  -7  -2 936.201 231.983  15
  -7   7  -2 915.480 225.883  40
   0  -7  -1 22840.1 1395.50  15
  -7   7  -1 21868.2 1172.90  40
   0  -7   0 14713.4 1121.44  15
   0  -7   0 15337.3 1298.97  24
   0  -7   0 15027.4 1273.33  20
  -7   7   0 15589.0 1561.02  34
   7   0   0 13920.4 1077.01  18
   7   0   1 1575.84 404.616  29
   0  -7   1 1481.41 298.225  15
   0  -7   1 1967.40 464.425  24
   0  -7   1 1741.42 409.924  20
  -7   7   1 1587.14 478.895  34
   7   0   1 1839.86 396.280  18
   0  -7   2 52945.8 2186.64  24
   0  -7   2 46412.2 1817.52  20
  -7   7   2 52580.2 2432.73  34
   7   0   2 51180.0 1922.50  18
  -6  -2  -1 13830.5 1196.68  27
  -2   8  -1 13680.2 979.666  41
   8  -6  -1 15122.8 1143.60  11
  -2   8   0 19003.1 1043.47  51
  -6  -2   0 18757.3 1520.11  27
   8  -6   0 16725.5 929.969  21
  -6  -2   1 7575.76 922.046  27
  -2   8   1 6598.13 702.659   9
  -6  -2   1 5673.90 586.901  25
   8  -6   1 7242.92 635.227  21
  -3   8  -2 12126.1 947.722  41
  -5  -3  -2 14197.7 1246.30  13
   8  -5  -2 15520.9 1083.31  10
  -3   8  -1 2416.44 384.058  51
   8  -5  -1 1459.18 366.956  10
  -5  -3  -1 1756.28 429.476  27
  -3   8  -1 2010.15 435.346  41
  -5  -3  -1 2090.29 523.918  13
   8  -5  -1 1590.29 374.730  11
  -3   8   0 11081.7 866.111  51
   8  -5   0 5699.36 743.823  10
  -5  -3   0 7405.83 997.117  27
  -3   8   0 8870.71 844.574   9
  -3   8   0 8028.11 808.744  41
  -5  -3   0 5626.28 845.529  13
  -3   8   1 4890.87 510.403  51
   8  -5   1 4646.07 630.654  28
  -5  -3   1 5029.28 802.362  27
  -3   8   1 5785.70 714.304   9
  -5  -3   1 4675.97 573.242  25
   8  -5   2 8636.76 770.734  28
  -5  -3   2 8345.69 892.186  27
  -3   8   2 9000.71 793.945   9
  -5  -3   2 8228.44 705.584  25
   8  -4  -2 7808.94 828.803  10
  -4   8  -2 10941.2 928.804  41
  -4  -4  -2 9785.26 1064.33  13
  -4   8  -1 2181.42 380.683  51
   8  -4  -1 1549.52 417.676  10
  -4  -4  -1 1302.43 447.720  13
  -4   8   0 8959.10 808.596  51
  -4  -4   0 8723.01 1039.99  27
   8  -4   0 8133.85 878.481  18
  -4   8   1 3869.72 473.991  51
   8  -4   1 3629.74 536.636  28
  -4  -4   1 4692.02 772.860  27
  -4   8   1 4281.46 616.551   9
  -4  -4   1 3925.09 523.574  25
   8  -4   2 38133.4 1634.13  28
  -4   8   2 38132.3 1733.52   9
   8  -3  -2 4244.86 557.697  10
  -5   8  -2 4075.62 530.643  41
  -3  -5  -2 4043.69 624.552  13
  -5   8  -1 5878.50 607.092  51
   8  -3  -1 7317.01 851.471  10
  -3  -5  -1 6585.88 948.520  13
  -5   8   0 33780.0 1571.78  51
  -3  -5   0 33282.1 2051.15  24
   8  -3   0 34691.3 1868.41  18
  -5   8   1 6290.18 598.835  51
  -3  -5   1 6861.95 857.125  27
  -3  -5   1 6242.12 801.123  24
  -5   8   1 6462.34 691.546   9
   8  -3   1 6929.05 752.572  18
  -3  -5   2 3942.14 602.790  27
  -5   8   2 4175.04 520.110   9
  -6   8  -1 6988.34 590.603  51
  -2  -6  -1 6781.03 837.508  13
   8  -2  -1 6478.45 695.008  18
  -2  -6   0 3974.26 630.678  24
   8  -2   0 4038.44 579.851  18
  -6   8   1 7812.97 604.461  51
  -2  -6   1 7076.85 800.694  24
   8  -2   1 8045.68 773.832  18
   0   0   0    0.00    0.00   0
TITL hexa_775 in P3(1)
REM P3(1) (#144 in standard setting)
CELL 1.54184   7.004685   7.004685   5.477165  90.0000  90.0000 120.0000
ZERR    3.00   0.000217   0.000217   0.000253   0.0000   0.0000   0.0000
LATT -1
SYMM -y, x-y, z+1/3
SYMM -x+y,-x, z+2/3
SFAC C H N O
UNIT 6.00 15.00 3.00 6.00
TREF
HKLF 4
END
;
_shelx_hkl_checksum              13735
#END Tags that were not found in dictionaries
loop_
_space_group_symop_operation_xyz
'x, y, z'
'-y, x-y, z+1/3'
'-x+y, -x, z+2/3'
loop_
_atom_site_label
_atom_site_type_symbol
_atom_site_fract_x
_atom_site_fract_y
_atom_site_fract_z
_atom_site_U_iso_or_equiv
_atom_site_adp_type
_atom_site_occupancy
_atom_site_site_symmetry_order
_atom_site_calc_flag
_atom_site_refinement_flags_posn
_atom_site_refinement_flags_adp
O1 O 0.3238(15) -0.1092(17) 0.691(2) 0.022(4) Uani 1 1 d . .
O2 O 0.3324(19) 0.2093(17) 0.7194(18) 0.026(4) Uani 1 1 d . .
N1 N 0.3117(19) -0.118(2) 0.205(3) 0.019(4) Uani 1 1 d . .
H1A H 0.3240 -0.1014 0.0403 0.028 Uiso 1 1 calc R U
H1B H 0.4111 -0.1558 0.2608 0.028 Uiso 1 1 calc R U
H1C H 0.1730 -0.2266 0.2442 0.028 Uiso 1 1 calc R U
C1 C 0.335(2) 0.062(3) 0.595(3) 0.019(5) Uani 1 1 d . .
C2 C 0.355(3) 0.089(2) 0.319(3) 0.023(5) Uani 1 1 d . .
H2A H 0.2486 0.1315 0.2578 0.027 Uiso 1 1 calc R U
H2B H 0.5056 0.2080 0.2756 0.027 Uiso 1 1 calc R U
loop_
_atom_site_aniso_label
_atom_site_aniso_U_11
_atom_site_aniso_U_22
_atom_site_aniso_U_33
_atom_site_aniso_U_23
_atom_site_aniso_U_13
_atom_site_aniso_U_12
O1 0.034(7) 0.020(7) 0.022(7) 0.008(6) 0.010(6) 0.021(6)
O2 0.053(9) 0.016(7) 0.016(7) -0.005(5) -0.009(5) 0.023(6)
N1 0.020(8) 0.017(8) 0.018(7) 0.007(7) 0.017(7) 0.009(7)
C1 0.025(11) 0.025(11) 0.005(9) 0.002(10) 0.005(8) 0.012(9)
C2 0.022(10) 0.003(9) 0.039(12) 0.002(7) 0.009(8) 0.003(8)
loop_
_atom_type_symbol
_atom_type_description
_atom_type_scat_dispersion_real
_atom_type_scat_dispersion_imag
_atom_type_scat_source
C C 0.0181 0.0091 'International Tables Vol C Tables 4.2.6.8 and 6.1.1.4'
H H 0.0000 0.0000 'International Tables Vol C Tables 4.2.6.8 and 6.1.1.4'
N N 0.0311 0.0180 'International Tables Vol C Tables 4.2.6.8 and 6.1.1.4'
O O 0.0492 0.0322 'International Tables Vol C Tables 4.2.6.8 and 6.1.1.4'
loop_
_geom_angle_atom_site_label_1
_geom_angle_atom_site_label_2
_geom_angle_atom_site_label_3
_geom_angle
C2 N1 H1A 109.5
C2 N1 H1B 109.5
H1A N1 H1B 109.5
C2 N1 H1C 109.5
H1A N1 H1C 109.5
H1B N1 H1C 109.5
O2 C1 O1 122.1(16)
O2 C1 C2 118.6(14)
O1 C1 C2 119.3(15)
N1 C2 C1 109.7(14)
N1 C2 H2A 109.7
C1 C2 H2A 109.7
N1 C2 H2B 109.7
C1 C2 H2B 109.7
H2A C2 H2B 108.2
loop_
_geom_bond_atom_site_label_1
_geom_bond_atom_site_label_2
_geom_bond_distance
O1 C1 1.28(2)
O2 C1 1.25(2)
N1 C2 1.47(2)
N1 H1A 0.9100
N1 H1B 0.9100
N1 H1C 0.9100
C1 C2 1.52(2)
C2 H2A 0.9900
C2 H2B 0.9900
loop_
_geom_torsion_atom_site_label_1
_geom_torsion_atom_site_label_2
_geom_torsion_atom_site_label_3
_geom_torsion_atom_site_label_4
_geom_torsion
O2 C1 C2 N1 -168.9(14)
O1 C1 C2 N1 12(2)
