#------------------------------------------------------------------------------
#$Date: 2016-03-26 23:02:33 +0200 (Sat, 26 Mar 2016) $
#$Revision: 180527 $
#$URL: svn://www.crystallography.net/cod/cif/7/21/96/7219660.cif $
#------------------------------------------------------------------------------
#
# This file is available in the Crystallography Open Database (COD),
# http://www.crystallography.net/
#
# All data on this site have been placed in the public domain by the
# contributors.
#
data_7219660
loop_
_publ_author_name
'Ahmed, Basil Mohammed'
'Mezei, Gellert'
_publ_section_title
;
 Green Protection of Pyrazole, Thermal Isomerization and Deprotection of
 Tetrahydropyranylpyrazoles, and High-Yield, One-Pot Synthesis of
 3(5)-Alkylpyrazoles
;
_journal_name_full               'RSC Adv.'
_journal_paper_doi               10.1039/C5RA00837A
_journal_year                    2015
_chemical_formula_sum            'C12 H20 N4 O'
_chemical_formula_weight         236.32
_chemical_name_systematic        1,6-bis(pyrazol-3(5)-yl)hexane
_space_group_crystal_system      triclinic
_space_group_IT_number           2
_space_group_name_Hall           '-P 1'
_space_group_name_H-M_alt        'P -1'
_symmetry_space_group_name_Hall  '-P 1'
_symmetry_space_group_name_H-M   'P -1'
_atom_sites_solution_hydrogens   mixed
_audit_creation_method           SHELXL-2013
_audit_update_record
;
2014-12-18 deposited with the CCDC.
2015-02-24 downloaded from the CCDC.
;
_cell_angle_alpha                107.833(3)
_cell_angle_beta                 93.710(4)
_cell_angle_gamma                114.352(3)
_cell_formula_units_Z            2
_cell_length_a                   8.8013(4)
_cell_length_b                   9.2025(4)
_cell_length_c                   10.1004(5)
_cell_measurement_reflns_used    4164
_cell_measurement_temperature    297(2)
_cell_measurement_theta_max      24.04
_cell_measurement_theta_min      2.61
_cell_volume                     692.06(6)
_computing_cell_refinement       'Bruker SAINT'
_computing_data_collection       'Bruker APEX2'
_computing_data_reduction        'Bruker SAINT'
_computing_molecular_graphics    'Bruker SHELXTL'
_computing_publication_material  'Bruker SHELXTL'
_computing_structure_refinement  'SHELXL-97 (Sheldrick, 2008)'
_computing_structure_solution    'SHELXS-97 (Sheldrick, 2008)'
_diffrn_ambient_temperature      297(2)
_diffrn_measured_fraction_theta_full 0.876
_diffrn_measured_fraction_theta_max 1.000
_diffrn_measurement_device_type  'Bruker APEX-II CCD'
_diffrn_measurement_method       '\f and \w scans'
_diffrn_radiation_type           MoK\a
_diffrn_radiation_wavelength     0.71073
_diffrn_reflns_av_R_equivalents  0.0697
_diffrn_reflns_av_unetI/netI     0.0356
_diffrn_reflns_Laue_measured_fraction_full 0.876
_diffrn_reflns_Laue_measured_fraction_max 1.000
_diffrn_reflns_limit_h_max       10
_diffrn_reflns_limit_h_min       -10
_diffrn_reflns_limit_k_max       10
_diffrn_reflns_limit_k_min       -10
_diffrn_reflns_limit_l_max       11
_diffrn_reflns_limit_l_min       -11
_diffrn_reflns_number            13883
_diffrn_reflns_point_group_measured_fraction_full 0.876
_diffrn_reflns_point_group_measured_fraction_max 1.000
_diffrn_reflns_theta_full        25.242
_diffrn_reflns_theta_max         24.119
_diffrn_reflns_theta_min         2.604
_exptl_absorpt_coefficient_mu    0.076
_exptl_absorpt_correction_T_max  0.7450
_exptl_absorpt_correction_T_min  0.6733
_exptl_absorpt_correction_type   multi-scan
_exptl_crystal_colour            colorless
_exptl_crystal_density_diffrn    1.134
_exptl_crystal_description       prism
_exptl_crystal_F_000             256
_exptl_crystal_recrystallization_method
'Re-crystallisation from solvent: water, methanol'
_exptl_crystal_size_max          0.40
_exptl_crystal_size_mid          0.15
_exptl_crystal_size_min          0.07
_refine_diff_density_max         0.128
_refine_diff_density_min         -0.185
_refine_diff_density_rms         0.034
_refine_ls_extinction_method     none
_refine_ls_goodness_of_fit_ref   0.955
_refine_ls_hydrogen_treatment    mixed
_refine_ls_matrix_type           full
_refine_ls_number_parameters     160
_refine_ls_number_reflns         2194
_refine_ls_number_restraints     2
_refine_ls_restrained_S_all      0.956
_refine_ls_R_factor_all          0.0835
_refine_ls_R_factor_gt           0.0473
_refine_ls_shift/su_max          0.000
_refine_ls_shift/su_mean         0.000
_refine_ls_structure_factor_coef Fsqd
_refine_ls_weighting_details
;
 w=1/[\s^2^(Fo^2^)+(0.1000P)^2^]
 where P=(Fo^2^+2Fc^2^)/3
;
_refine_ls_weighting_scheme      calc
_refine_ls_wR_factor_gt          0.1275
_refine_ls_wR_factor_ref         0.1577
_reflns_Friedel_coverage         0.000
_reflns_number_gt                1433
_reflns_number_total             2194
_reflns_threshold_expression     'I > 2\s(I)'
_cod_data_source_file            c5ra00837a2.cif
_cod_data_source_block           1,6-bis(pyrazol-3-yl)hexane-hydrate
_cod_database_code               7219660
#BEGIN Tags that were not found in dictionaries:
_shelx_space_group_comment
;
The symmetry employed for this shelxl refinement is uniquely defined
by the following loop, which should always be used as a source of
symmetry information in preference to the above space-group names.
They are only intended as comments.
;
_shelxl_version_number           2013-2
_shelx_res_file
;
TITL GMBA04_0m in P-1
CELL 0.71073 8.8013 9.2025 10.1004 107.833 93.710 114.352
ZERR 2.00 0.0004 0.0004 0.0005 0.003 0.004 0.003
LATT 1
SFAC C  H  N  O
UNIT 24  40  8  2
L.S. 12
ACTA
BOND $H
FMAP 2
PLAN 5
CONF
DFIX 0.82 O1 H1O O1 H2O
TEMP 24.000
WGHT    0.100000
FVAR       0.28679
O1    4    0.015443    0.747596    0.482937    11.00000    0.07221    0.04251 =
         0.06355    0.02282    0.02573    0.02471
H1O   2    0.083927    0.826725    0.455618    11.00000   -1.20000
H2O   2   -0.010571    0.655752    0.414870    11.00000   -1.20000
N1    3    0.086022   -0.438459    0.749485    11.00000    0.07018    0.04309 =
         0.07398    0.02706    0.02563    0.02419
N2    3    0.101110   -0.289669    0.741034    11.00000    0.06025    0.04376 =
         0.05715    0.02453    0.01829    0.02044
AFIX  43
H2N   2    0.087027   -0.274791    0.661993    11.00000   -1.20000
AFIX   0
N3    3    0.770759    0.844636    0.597955    11.00000    0.05408    0.04533 =
         0.06739    0.02514    0.02163    0.02458
AFIX  43
H3N   2    0.846569    0.814785    0.567804    11.00000   -1.20000
AFIX   0
N4    3    0.756712    0.980814    0.586363    11.00000    0.07274    0.04410 =
         0.06675    0.02626    0.02157    0.02835
C1    1    0.118067   -0.407501    0.887101    11.00000    0.11576    0.06125 =
         0.07616    0.04117    0.03445    0.04606
AFIX  43
H1    2    0.117518   -0.487205    0.925894    11.00000   -1.20000
AFIX   0
C2    1    0.152366   -0.242480    0.965839    11.00000    0.11384    0.05725 =
         0.05729    0.02629    0.02298    0.03762
AFIX  43
H2    2    0.178490   -0.191131    1.064699    11.00000   -1.20000
AFIX   0
C3    1    0.140282   -0.168493    0.868985    11.00000    0.05318    0.04132 =
         0.05376    0.01697    0.01814    0.01777
C4    1    0.166521    0.006855    0.884627    11.00000    0.06391    0.04408 =
         0.06227    0.01929    0.02335    0.02194
AFIX  23
H4B   2    0.183756    0.072582    0.984721    11.00000   -1.20000
H4A   2    0.063820   -0.001578    0.834193    11.00000   -1.20000
AFIX   0
C5    1    0.318124    0.102731    0.828157    11.00000    0.05738    0.04257 =
         0.06676    0.02274    0.02004    0.02069
AFIX  23
H5B   2    0.422316    0.125787    0.888035    11.00000   -1.20000
H5A   2    0.309477    0.028872    0.732893    11.00000   -1.20000
AFIX   0
C6    1    0.332708    0.269995    0.822436    11.00000    0.06148    0.04298 =
         0.05944    0.02080    0.01525    0.02175
AFIX  23
H6A   2    0.341694    0.344526    0.917513    11.00000   -1.20000
H6B   2    0.229217    0.247575    0.761986    11.00000   -1.20000
AFIX   0
C7    1    0.485154    0.361697    0.766199    11.00000    0.05784    0.04110 =
         0.06387    0.02286    0.01576    0.02070
AFIX  23
H7B   2    0.588753    0.392617    0.831524    11.00000   -1.20000
H7A   2    0.481431    0.282886    0.675142    11.00000   -1.20000
AFIX   0
C8    1    0.494855    0.521610    0.746763    11.00000    0.05695    0.04143 =
         0.05756    0.02086    0.01670    0.02096
AFIX  23
H8A   2    0.390478    0.491857    0.683075    11.00000   -1.20000
H8B   2    0.502354    0.602446    0.838157    11.00000   -1.20000
AFIX   0
C9    1    0.645913    0.606826    0.686916    11.00000    0.05849    0.04559 =
         0.07508    0.02671    0.02033    0.02453
AFIX  23
H9B   2    0.750200    0.640263    0.752634    11.00000   -1.20000
H9A   2    0.640761    0.524071    0.597629    11.00000   -1.20000
AFIX   0
C10   1    0.654340    0.760704    0.661320    11.00000    0.04946    0.04087 =
         0.06175    0.02263    0.01875    0.01942
C11   1    0.559279    0.847377    0.692548    11.00000    0.07147    0.05788 =
         0.09310    0.04125    0.04166    0.03737
AFIX  43
H11   2    0.467440    0.821332    0.736948    11.00000   -1.20000
AFIX   0
C12   1    0.627135    0.981338    0.644872    11.00000    0.07902    0.05564 =
         0.08365    0.03158    0.03207    0.04190
AFIX  43
H12   2    0.586706    1.061757    0.652942    11.00000   -1.20000
AFIX   0
HKLF 4 1 1 0 0 0 1 0 0 0 1

REM  GMBA04_0m in P-1
REM R1 =  0.0473 for    1433 Fo > 4sig(Fo)  and  0.0835 for all    2194 data
REM    160 parameters refined using      2 restraints

END

WGHT      0.0597      0.0928

REM Highest difference peak  0.128,  deepest hole -0.185,  1-sigma level  0.034
Q1    1   0.3982  0.7758  0.6582  11.00000  0.05    0.13
Q2    1   0.8035  1.0587  0.5413  11.00000  0.05    0.13
Q3    1   0.7232  0.5458  0.6587  11.00000  0.05    0.12
Q4    1   0.4956  0.8609  0.8037  11.00000  0.05    0.12
Q5    1   0.0947 -0.1989  1.0892  11.00000  0.05    0.12
;
_shelx_res_checksum              70583
_shelx_hkl_file
;
  -1   0   0    0.06    0.05
   1   0   0   -0.04    0.04
  -2   0   0    0.54    0.18
   2   0   0    0.50    0.15
  -3   0   0    4.39    0.45
  -3   0   0    3.40    0.37
   3   0   0    3.45    0.34
   3   0   0    2.37    0.36
   3   0   0    2.75    0.26
  -4   0   0    7.41    0.55
  -4   0   0    6.47    0.50
   4   0   0    7.32    0.49
   4   0   0    6.07    0.40
   4   0   0    5.80    0.58
   4   0   0    7.16    0.61
  -5   0   0    3.71    0.50
  -5   0   0    4.31    0.57
   5   0   0    4.85    0.58
   5   0   0    5.50    0.51
   5   0   0    6.26    0.59
   5   0   0    4.86    0.63
  -6   0   0    6.06    0.76
  -6   0   0    5.84    0.75
  -6   0   0    5.54    0.69
   6   0   0    4.30    0.62
   6   0   0    4.42    0.58
   6   0   0    5.71    0.76
   6   0   0    4.29    0.49
  -7   0   0    1.22    0.44
  -7   0   0    2.27    0.53
  -7   0   0    1.42    0.51
   7   0   0    2.16    0.58
   7   0   0    2.55    0.45
   7   0   0    1.35    0.42
   7   0   0    2.61    0.54
  -8   0   0    1.17    0.45
  -8   0   0    0.84    0.58
  -8   0   0    1.47    0.52
   8   0   0    0.90    0.48
   8   0   0    0.64    0.33
   8   0   0    2.02    0.51
   8   0   0    1.77    0.54
   9  -1   0    0.47    0.39
   9  -1   0    0.39    0.45
   9  -1   0    0.47    0.32
   9  -1   0    0.41    0.41
  -9   1   0   -0.07    0.33
  -9   1   0   -0.28    0.56
   8  -1   0    3.75    0.68
   8  -1   0    4.65    0.67
   8  -1   0    4.78    0.83
   8  -1   0    3.70    0.53
  -8   1   0    3.59    0.64
  -8   1   0    5.81    0.94
  -8   1   0    5.42    0.82
   7  -1   0    8.30    0.77
   7  -1   0    7.28    0.86
   7  -1   0    7.10    0.90
   7  -1   0    8.12    0.61
  -7   1   0    6.97    0.83
  -7   1   0    7.70    0.85
  -7   1   0    7.42    0.88
   6  -1   0    0.57    0.36
   6  -1   0    0.63    0.28
   6  -1   0    0.38    0.21
   6  -1   0    0.84    0.36
  -6   1   0    0.77    0.31
  -6   1   0    0.56    0.36
  -6   1   0   -0.23    0.35
   5  -1   0   17.79    0.65
   5  -1   0   17.38    0.84
   5  -1   0   16.81    0.92
   5  -1   0   18.54    0.76
  -5   1   0   17.33    0.85
  -5   1   0   18.22    0.80
  -5   1   0   18.06    0.88
   4  -1   0    0.42    0.17
   4  -1   0    0.11    0.19
   4  -1   0    0.01    0.20
   4  -1   0    0.08    0.11
  -4   1   0    0.29    0.22
  -4   1   0    0.26    0.23
  -4   1   0    0.27    0.17
   3  -1   0   34.12    0.72
  -3   1   0   34.95    0.87
  -3   1   0   34.24    0.93
   2  -1   0 1000.00    4.91
  -2   1   0  990.67    3.65
  -1   1   0   28.36    0.47
   0   1   0    8.17    0.25
  -1  -1   0   20.74    0.57
   1   1   0   20.76    0.54
   1   1   0   20.26    0.53
  -2  -1   0   27.44    0.78
   2   1   0   27.14    0.74
   2   1   0   27.37    0.64
   2   1   0   27.88    0.79
  -3  -1   0   30.78    0.95
  -3  -1   0   29.35    0.94
   3   1   0   29.92    0.91
   3   1   0   30.52    0.79
   3   1   0   30.79    0.96
   3   1   0   30.44    0.93
  -4  -1   0   -0.20    0.20
  -4  -1   0    0.46    0.24
   4   1   0    0.16    0.25
   4   1   0    0.44    0.24
   4   1   0    0.22    0.16
   4   1   0   -0.17    0.14
  -5  -1   0    9.98    0.75
  -5  -1   0   10.05    0.76
   5   1   0    8.59    0.57
   5   1   0    9.49    0.76
   5   1   0    9.54    0.69
   5   1   0    9.38    0.70
  -6  -1   0    2.62    0.54
  -6  -1   0    1.54    0.51
   6   1   0    2.74    0.46
   6   1   0    2.92    0.59
   6   1   0    2.04    0.48
   6   1   0    1.34    0.38
  -7  -1   0    0.05    0.31
  -7  -1   0    0.53    0.38
   7   1   0    0.00    0.25
   7   1   0   -0.48    0.27
   7   1   0    0.13    0.21
   7   1   0   -0.20    0.24
  -8  -1   0    0.33    0.62
  -8  -1   0    0.32    0.39
  -8  -1   0    0.68    0.44
   8   1   0   -0.01    0.30
   8   1   0    0.26    0.33
   8   1   0    0.45    0.43
   9  -2   0    4.58    0.78
   9  -2   0    4.31    0.58
   9  -2   0    5.30    0.95
  -9   2   0    8.08    1.15
  -9   2   0    4.11    0.77
   8  -2   0    0.17    0.25
   8  -2   0    0.48    0.40
   8  -2   0   -0.19    0.32
   8  -2   0    0.11    0.26
  -8   2   0    0.21    0.36
  -8   2   0    0.75    0.54
  -8   2   0    0.13    0.31
   7  -2   0    2.99    0.41
   7  -2   0    3.96    0.55
   7  -2   0    4.08    0.69
   7  -2   0    3.22    0.63
  -7   2   0    4.22    0.71
  -7   2   0    4.60    0.61
  -7   2   0    3.71    0.61
   6  -2   0    4.25    0.48
   6  -2   0    3.42    0.53
   6  -2   0    4.07    0.42
   6  -2   0    4.45    0.66
  -6   2   0    2.51    0.49
  -6   2   0    3.50    0.47
  -6   2   0    3.70    0.54
   5  -2   0    6.64    0.66
   5  -2   0    6.25    0.38
   5  -2   0    6.16    0.44
   5  -2   0    5.35    0.61
   5  -2   0    6.71    0.38
  -5   2   0    6.12    0.64
  -5   2   0    6.09    0.61
   4  -2   0    1.09    0.30
   4  -2   0    0.75    0.18
   4  -2   0    0.85    0.15
   4  -2   0    0.87    0.29
   4  -2   0    0.78    0.18
  -4   2   0    0.58    0.25
  -4   2   0    0.45    0.21
   3  -2   0    6.00    0.34
   3  -2   0    5.58    0.28
  -3   2   0    6.63    0.46
   2  -2   0    0.69    0.19
  -2   2   0    0.64    0.20
  -2   2   0    0.43    0.11
   1  -2   0    0.17    0.14
   1  -2   0    0.19    0.15
  -1   2   0    0.23    0.13
  -1   2   0    0.13    0.10
   0  -2   0    5.68    0.36
   0  -2   0    5.48    0.38
   0   2   0    5.18    0.31
   0   2   0    5.42    0.32
  -1  -2   0   90.08    1.42
  -1  -2   0   91.02    1.22
   1   2   0   93.15    1.30
   1   2   0   91.12    1.10
   1   2   0   90.31    1.34
  -2  -2   0   14.61    0.56
  -2  -2   0   14.62    0.61
  -2  -2   0   14.96    0.70
   2   2   0   15.30    0.65
   2   2   0   15.40    0.67
   2   2   0   15.45    0.55
  -3  -2   0    9.94    0.61
  -3  -2   0    7.91    0.61
  -3  -2   0    8.32    0.47
   3   2   0    8.36    0.58
   3   2   0    8.83    0.62
   3   2   0    9.35    0.56
   3   2   0    8.80    0.50
  -4  -2   0   -0.23    0.20
  -4  -2   0    0.03    0.25
   4   2   0    0.07    0.15
   4   2   0    0.08    0.20
   4   2   0    0.04    0.23
   4   2   0   -0.17    0.23
   4   2   0    0.02    0.19
  -5  -2   0    3.36    0.61
  -5  -2   0    2.42    0.50
   5   2   0    3.35    0.58
   5   2   0    3.38    0.51
   5   2   0    3.89    0.61
   5   2   0    3.17    0.47
  -6  -2   0    0.94    0.41
  -6  -2   0    0.17    0.31
   6   2   0    0.06    0.22
   6   2   0    0.52    0.35
   6   2   0    0.36    0.35
  -7  -2   0    0.41    0.36
  -7  -2   0    0.14    0.38
   7   2   0   -0.03    0.34
   7   2   0   -0.02    0.20
   7   2   0    0.56    0.40
   9  -3   0   -0.47    0.32
   9  -3   0   -0.38    0.28
  -9   3   0    0.26    0.50
  -9   3   0    0.26    0.42
   8  -3   0    1.20    0.30
   8  -3   0    1.89    0.53
   8  -3   0    0.62    0.40
  -8   3   0    1.64    0.54
  -8   3   0    0.51    0.40
   7  -3   0    0.10    0.33
   7  -3   0   -0.03    0.32
   7  -3   0   -0.13    0.22
   7  -3   0   -0.05    0.17
  -7   3   0    0.19    0.34
  -7   3   0    0.14    0.26
  -7   3   0    0.40    0.43
   6  -3   0    0.28    0.31
   6  -3   0    0.65    0.18
   6  -3   0    0.57    0.32
   6  -3   0    1.07    0.26
   6  -3   0    0.86    0.26
  -6   3   0    0.70    0.35
  -6   3   0    0.72    0.30
  -6   3   0    0.91    0.22
   5  -3   0    1.17    0.23
   5  -3   0    1.54    0.38
   5  -3   0    0.91    0.31
   5  -3   0    1.50    0.27
   5  -3   0    1.50    0.22
  -5   3   0    1.32    0.32
  -5   3   0    1.55    0.26
  -5   3   0    1.46    0.36
   4  -3   0    5.91    0.33
   4  -3   0    5.75    0.41
   4  -3   0    6.46    0.62
   4  -3   0    5.95    0.57
  -4   3   0    6.20    0.51
  -4   3   0    6.18    0.32
  -4   3   0    6.72    0.41
  -4   3   0    5.79    0.42
   3  -3   0    6.10    0.42
   3  -3   0    7.12    0.45
  -3   3   0    5.99    0.42
  -3   3   0    6.76    0.28
  -3   3   0    7.80    0.42
   2  -3   0    2.46    0.31
   2  -3   0    3.53    0.34
  -2   3   0    3.31    0.22
  -2   3   0    2.94    0.32
  -2   3   0    3.10    0.32
   1  -3   0   14.67    0.56
   1  -3   0   14.36    0.61
  -1   3   0   14.51    0.53
  -1   3   0   13.98    0.46
  -1   3   0   13.31    0.53
   0  -3   0    0.76    0.21
   0  -3   0    1.21    0.25
   0   3   0    0.75    0.14
   0   3   0    0.77    0.18
   0   3   0    0.68    0.17
  -1  -3   0    3.48    0.38
  -1  -3   0    3.04    0.39
   1   3   0    4.23    0.41
   1   3   0    4.37    0.45
   1   3   0    2.84    0.27
  -2  -3   0    1.60    0.31
  -2  -3   0    1.32    0.33
  -2  -3   0    1.20    0.27
   2   3   0    1.52    0.31
   2   3   0    1.40    0.25
   2   3   0    1.59    0.32
  -3  -3   0    4.00    0.47
  -3  -3   0    3.74    0.58
  -3  -3   0    3.46    0.47
   3   3   0    4.21    0.46
   3   3   0    4.73    0.60
   3   3   0    3.15    0.38
   3   3   0    5.47    0.64
  -4  -3   0   -0.07    0.24
  -4  -3   0    0.20    0.28
   4   3   0   -0.12    0.18
   4   3   0    0.01    0.24
   4   3   0    0.57    0.35
   4   3   0   -0.15    0.22
  -5  -3   0   -0.15    0.25
  -5  -3   0   -0.03    0.29
   5   3   0    0.03    0.29
   5   3   0   -0.02    0.23
   5   3   0   -0.17    0.29
  -6  -3   0    0.10    0.29
  -6  -3   0    0.14    0.37
   6   3   0    0.00    0.33
   6   3   0   -0.32    0.22
  -7  -3   0    0.58    0.48
  -7  -3   0    0.51    0.45
   7   3   0    0.11    0.30
   7   3   0    0.78    0.43
  10  -4   0    0.26    0.48
  10  -4   0   -0.05    0.35
 -10   4   0    0.13    0.49
 -10   4   0    0.66    0.51
   9  -4   0   -0.25    0.32
   9  -4   0   -0.19    0.35
  -9   4   0    0.33    0.39
  -9   4   0    0.35    0.54
   8  -4   0    1.26    0.53
   8  -4   0    1.39    0.50
  -8   4   0    1.40    0.55
  -8   4   0    0.40    0.35
   7  -4   0    0.48    0.38
   7  -4   0    0.43    0.33
  -7   4   0   -0.10    0.33
  -7   4   0    0.29    0.33
   6  -4   0    0.82    0.38
   6  -4   0    0.69    0.22
   6  -4   0    0.04    0.27
   6  -4   0    0.44    0.16
   6  -4   0    0.39    0.24
  -6   4   0    0.85    0.25
  -6   4   0    0.54    0.22
  -6   4   0    0.27    0.28
  -6   4   0    0.44    0.31
   5  -4   0   -0.10    0.22
   5  -4   0    0.28    0.25
   5  -4   0   -0.16    0.16
  -5   4   0    0.05    0.24
  -5   4   0    0.18    0.21
  -5   4   0   -0.11    0.13
  -5   4   0   -0.21    0.13
   4  -4   0    0.67    0.26
   4  -4   0    1.24    0.32
   4  -4   0    1.07    0.26
  -4   4   0    1.06    0.26
  -4   4   0    0.86    0.27
  -4   4   0    0.93    0.17
   3  -4   0   14.27    0.60
   3  -4   0   14.17    0.69
   3  -4   0   14.32    0.63
  -3   4   0   15.16    0.64
  -3   4   0   14.67    0.44
  -3   4   0   13.77    0.67
   2  -4   0    5.83    0.43
   2  -4   0    5.78    0.54
  -2   4   0    6.15    0.44
  -2   4   0    6.30    0.34
  -2   4   0    6.29    0.46
   1  -4   0   51.54    1.22
   1  -4   0   50.79    1.25
  -1   4   0   50.90    1.18
  -1   4   0   53.13    1.05
  -1   4   0   53.25    1.13
  -1   4   0   50.86    0.79
   0  -4   0   23.61    0.90
   0  -4   0   23.71    0.88
   0   4   0   22.90    0.88
   0   4   0   24.10    0.77
   0   4   0   24.04    0.65
   0   4   0   23.08    0.81
  -1  -4   0    0.84    0.28
  -1  -4   0    0.84    0.29
   1   4   0    1.01    0.28
   1   4   0    0.88    0.19
   1   4   0    0.75    0.21
   1   4   0    1.31    0.29
  -2  -4   0    0.73    0.34
  -2  -4   0    1.36    0.36
  -2  -4   0    1.37    0.32
   2   4   0    1.18    0.27
   2   4   0    1.42    0.29
   2   4   0    1.09    0.32
   2   4   0    1.34    0.35
  -3  -4   0    0.67    0.37
  -3  -4   0    0.13    0.26
  -3  -4   0    0.37    0.32
   3   4   0    0.56    0.31
   3   4   0    0.30    0.21
   3   4   0    0.56    0.30
  -4  -4   0    0.42    0.31
  -4  -4   0    0.90    0.41
   4   4   0    0.46    0.27
   4   4   0    0.37    0.33
   4   4   0    0.47    0.33
  -5  -4   0    1.26    0.45
  -5  -4   0    1.54    0.52
   5   4   0    0.75    0.34
   5   4   0    0.80    0.44
   5   4   0    0.36    0.36
  -6  -4   0    0.43    0.44
  -6  -4   0    0.69    0.48
   6   4   0    0.95    0.35
   6   4   0    1.33    0.49
  10  -5   0    0.85    0.53
  10  -5   0    0.52    0.48
 -10   5   0    1.22    0.69
 -10   5   0    0.19    0.50
   9  -5   0   -0.24    0.32
   9  -5   0    0.22    0.41
  -9   5   0   -0.58    0.33
  -9   5   0    0.11    0.40
   8  -5   0    1.75    0.53
   8  -5   0    3.03    0.64
  -8   5   0    1.15    0.46
  -8   5   0    1.77    0.56
   7  -5   0    0.32    0.37
   7  -5   0   -0.25    0.30
   7  -5   0   -0.26    0.25
  -7   5   0   -0.02    0.22
  -7   5   0   -0.29    0.26
  -7   5   0   -0.08    0.28
   6  -5   0    0.27    0.27
   6  -5   0   -0.01    0.30
   6  -5   0    0.06    0.29
  -6   5   0   -0.10    0.23
  -6   5   0    0.15    0.28
  -6   5   0    0.01    0.19
   5  -5   0    3.32    0.53
   5  -5   0    3.57    0.52
   5  -5   0    3.05    0.50
  -5   5   0    3.22    0.45
  -5   5   0    3.47    0.40
  -5   5   0    3.94    0.55
   4  -5   0   -0.05    0.21
   4  -5   0    0.14    0.20
   4  -5   0    0.50    0.25
  -4   5   0    0.04    0.20
  -4   5   0    0.42    0.15
  -4   5   0    0.26    0.21
   3  -5   0   19.42    0.81
   3  -5   0   20.74    0.75
   3  -5   0   19.81    0.90
  -3   5   0   20.10    0.81
  -3   5   0   19.61    0.60
  -3   5   0   19.68    0.85
   2  -5   0   33.18    1.15
   2  -5   0   33.28    1.06
  -2   5   0   33.34    0.85
  -2   5   0   31.85    1.01
  -2   5   0   32.34    1.07
   1  -5   0    0.42    0.27
   1  -5   0    0.37    0.27
  -1   5   0    0.19    0.19
  -1   5   0    0.44    0.21
  -1   5   0    0.49    0.14
  -1   5   0    0.32    0.22
   0  -5   0   10.08    0.71
   0  -5   0    8.85    0.70
   0   5   0   10.45    0.51
   0   5   0    8.40    0.55
   0   5   0    9.40    0.67
   0   5   0   11.08    0.65
  -1  -5   0    0.84    0.33
  -1  -5   0    1.05    0.39
   1   5   0    0.46    0.26
   1   5   0    0.75    0.29
   1   5   0    0.64    0.25
   1   5   0    0.54    0.22
  -2  -5   0    0.68    0.38
  -2  -5   0    0.33    0.33
   2   5   0    0.19    0.30
   2   5   0    0.68    0.34
   2   5   0    0.46    0.22
  -3  -5   0    0.17    0.34
   3   5   0    0.47    0.31
   3   5   0   -0.20    0.23
   3   5   0    0.18    0.25
  -4  -5   0    1.49    0.53
  -4  -5   0    0.61    0.40
   4   5   0    0.48    0.42
   4   5   0    1.46    0.43
   4   5   0    0.76    0.43
  -5  -5   0    6.43    1.04
   5   5   0    5.65    0.95
   5   5   0    4.30    0.65
   5   5   0    6.11    0.95
   9  -6   0   -0.05    0.44
   9  -6   0   -0.01    0.32
  -9   6   0    0.62    0.47
   8  -6   0    0.07    0.36
   8  -6   0    0.24    0.36
  -8   6   0    0.03    0.23
  -8   6   0   -0.07    0.30
   7  -6   0    1.28    0.47
   7  -6   0    1.20    0.44
   7  -6   0    1.63    0.46
  -7   6   0    2.09    0.51
  -7   6   0    1.25    0.36
   6  -6   0    1.33    0.42
   6  -6   0    0.73    0.37
   6  -6   0    0.30    0.35
  -6   6   0    1.32    0.35
  -6   6   0    0.91    0.39
   5  -6   0    1.05    0.38
   5  -6   0    1.43    0.38
   5  -6   0    1.04    0.33
  -5   6   0    1.26    0.38
  -5   6   0    2.93    0.49
   4  -6   0   12.59    0.72
   4  -6   0   12.62    0.67
   4  -6   0   13.58    0.89
   4  -6   0   12.57    0.74
  -4   6   0   12.11    0.74
  -4   6   0   12.22    0.79
   3  -6   0   13.01    0.78
   3  -6   0   12.47    0.62
   3  -6   0   11.15    0.80
  -3   6   0   13.01    0.80
  -3   6   0   11.95    0.57
  -3   6   0   10.20    0.67
   2  -6   0    0.00    0.27
   2  -6   0   -0.16    0.25
  -2   6   0    0.01    0.20
  -2   6   0   -0.09    0.20
  -2   6   0    0.22    0.21
  -2   6   0   -0.02    0.10
   1  -6   0    0.95    0.37
   1  -6   0    0.35    0.35
  -1   6   0    1.10    0.34
  -1   6   0    1.29    0.35
  -1   6   0    1.38    0.24
  -1   6   0    1.17    0.32
   0  -6   0    0.05    0.31
   0  -6   0    0.22    0.32
   0   6   0   -0.05    0.16
   0   6   0   -0.14    0.19
   0   6   0    0.37    0.25
   0   6   0   -0.11    0.22
  -1  -6   0    5.30    0.79
  -1  -6   0    4.62    0.66
   1   6   0    4.92    0.52
   1   6   0    5.39    0.72
   1   6   0    4.40    0.60
   1   6   0    5.49    0.59
  -2  -6   0    1.98    0.56
  -2  -6   0    0.73    0.43
   2   6   0    2.25    0.41
   2   6   0    1.31    0.47
   2   6   0    1.21    0.47
  -3  -6   0   12.73    1.33
   3   6   0   13.21    1.26
   3   6   0   12.52    1.18
   3   6   0   13.42    0.86
  -4  -6   0    0.75    0.55
   4   6   0    0.30    0.40
   4   6   0    0.92    0.39
   4   6   0    0.32    0.37
   9  -7   0    1.64    0.62
   9  -7   0    1.22    0.57
  -9   7   0    0.96    0.49
   8  -7   0    0.74    0.48
   8  -7   0    1.01    0.46
  -8   7   0    1.78    0.44
  -8   7   0    0.62    0.46
   7  -7   0    0.68    0.41
   7  -7   0    0.21    0.33
   7  -7   0    0.78    0.40
  -7   7   0    0.53    0.32
  -7   7   0    0.75    0.42
   6  -7   0    1.56    0.48
   6  -7   0    1.73    0.43
   6  -7   0    1.72    0.49
  -6   7   0    1.45    0.48
  -6   7   0    2.35    0.47
   5  -7   0    5.53    0.64
   5  -7   0    6.96    0.85
  -5   7   0    5.24    0.73
  -5   7   0    5.26    0.68
   4  -7   0   13.62    0.90
   4  -7   0   12.95    0.95
  -4   7   0   13.53    0.91
  -4   7   0   14.19    0.90
   3  -7   0   -0.12    0.35
   3  -7   0    0.61    0.37
  -3   7   0    0.44    0.32
  -3   7   0    0.96    0.34
   2  -7   0    1.01    0.44
   2  -7   0    0.34    0.35
  -2   7   0   -0.13    0.25
  -2   7   0    0.44    0.29
  -2   7   0    0.36    0.26
   1  -7   0    3.52    0.62
   1  -7   0    4.56    0.73
  -1   7   0    3.75    0.54
  -1   7   0    3.57    0.55
  -1   7   0    3.64    0.61
   0  -7   0    5.61    0.75
   0  -7   0    7.99    0.93
   0   7   0    7.35    0.78
   0   7   0    6.42    0.66
   0   7   0    7.91    0.56
   0   7   0    8.66    0.90
  -1  -7   0    4.20    0.79
  -1  -7   0    4.59    0.75
   1   7   0    4.31    0.67
   1   7   0    3.75    0.67
   1   7   0    4.23    0.56
   1   7   0    4.71    0.54
  -2  -7   0    1.61    0.55
  -2  -7   0    3.35    0.74
   2   7   0    2.45    0.59
   2   7   0    2.91    0.71
   2   7   0    3.07    0.50
  -3  -7   0    0.13    0.47
   3   7   0    0.60    0.46
   3   7   0   -0.10    0.31
   3   7   0    0.66    0.50
   9  -8   0    0.66    0.51
   9  -8   0   -0.37    0.39
  -9   8   0   -0.25    0.22
  -9   8   0   -0.21    0.32
   8  -8   0   -0.36    0.33
   8  -8   0   -0.12    0.35
  -8   8   0   -0.13    0.29
  -8   8   0    0.22    0.44
   7  -8   0   -0.32    0.29
   7  -8   0    0.17    0.38
  -7   8   0    0.50    0.38
  -7   8   0    0.38    0.32
   6  -8   0   17.01    1.17
  -6   8   0   14.74    1.01
  -6   8   0   16.76    1.11
   5  -8   0    3.86    0.71
  -5   8   0    4.39    0.73
  -5   8   0    3.66    0.62
   4  -8   0   -0.42    0.29
   4  -8   0    1.12    0.43
  -4   8   0   -0.01    0.27
  -4   8   0    0.39    0.31
   3  -8   0    0.06    0.33
   3  -8   0    0.03    0.33
  -3   8   0    0.10    0.26
  -3   8   0   -0.06    0.28
   2  -8   0    1.92    0.53
   2  -8   0    1.89    0.60
  -2   8   0    1.93    0.51
  -2   8   0    2.90    0.56
   1  -8   0   -0.18    0.31
   1  -8   0   -0.07    0.33
  -1   8   0    0.18    0.31
  -1   8   0    0.13    0.25
  -1   8   0    0.20    0.35
   0  -8   0    3.69    0.74
   0  -8   0    4.21    0.77
   0   8   0    5.16    0.67
   0   8   0    5.79    0.85
   0   8   0    3.88    0.63
  -1  -8   0    3.39    0.75
  -1  -8   0    1.48    0.59
   1   8   0    1.95    0.43
   1   8   0    3.31    0.66
   1   8   0    2.76    0.68
   8  -9   0    2.34    0.70
  -8   9   0    3.28    0.64
  -8   9   0    2.39    0.69
   7  -9   0    0.72    0.49
  -7   9   0    0.55    0.39
  -7   9   0    1.04    0.53
   6  -9   0   -0.38    0.37
  -6   9   0   -0.35    0.27
  -6   9   0    0.00    0.28
   5  -9   0   -0.20    0.42
  -5   9   0   -0.19    0.31
  -5   9   0    0.41    0.34
   4  -9   0    0.45    0.43
  -4   9   0   -0.26    0.27
  -4   9   0    0.37    0.36
   3  -9   0    0.94    0.49
   3  -9   0    0.70    0.45
  -3   9   0    0.16    0.36
  -3   9   0    0.84    0.37
   2  -9   0    0.09    0.42
   2  -9   0    0.46    0.43
  -2   9   0    0.18    0.29
  -2   9   0    0.44    0.40
   1  -9   0    2.27    0.69
   1  -9   0    3.18    0.72
  -1   9   0    2.32    0.52
  -1   9   0    2.79    0.70
   5 -10   0   -0.13    0.44
  -5  10   0    0.28    0.41
  -5  10   0    0.87    0.43
   4 -10   0    2.27    0.69
  -4  10   0    2.27    0.68
  -4  10   0    1.20    0.47
  -3  10  -1    1.85    0.52
  -3  10  -1    0.70    0.53
   3 -10   1    0.80    0.53
   3 -10   1    1.17    0.63
  -4  10  -1    0.34    0.36
  -4  10  -1    0.11    0.41
   4 -10   1    0.18    0.54
  -5  10  -1    0.50    0.34
  -5  10  -1    0.17    0.41
   5 -10   1    0.07    0.48
  -6  10  -1    0.16    0.37
  -6  10  -1    0.13    0.44
   6 -10   1   -0.03    0.52
   0   9  -1    0.20    0.32
   0   9  -1    0.62    0.45
   0   9  -1   -0.21    0.32
   0  -9   1    0.56    0.50
   0  -9   1    0.22    0.41
  -1   9  -1    1.84    0.55
  -1   9  -1    1.36    0.44
  -1   9  -1    2.21    0.51
   1  -9   1    1.26    0.64
   1  -9   1    2.53    0.68
  -2   9  -1    0.01    0.37
  -2   9  -1    0.03    0.25
   2  -9   1    0.01    0.41
   2  -9   1   -0.39    0.40
  -3   9  -1    0.55    0.36
  -3   9  -1    0.73    0.40
   3  -9   1    0.75    0.48
   3  -9   1    0.31    0.48
  -4   9  -1    0.47    0.40
  -4   9  -1    1.27    0.43
   4  -9   1    0.98    0.54
   4  -9   1    0.75    0.47
  -5   9  -1    1.58    0.48
  -5   9  -1    2.99    0.63
   5  -9   1    4.17    0.80
  -6   9  -1   -0.08    0.27
  -6   9  -1    0.03    0.38
   6  -9   1   -0.49    0.37
  -7   9  -1    0.26    0.41
  -7   9  -1    0.23    0.30
   7  -9   1    0.43    0.49
  -8   9  -1   -0.63    0.35
  -8   9  -1    0.08    0.33
   8  -9   1   -0.20    0.40
   8  -9   1   -0.59    0.41
   2   8  -1   -0.42    0.32
   2   8  -1   -0.05    0.32
   2   8  -1    0.23    0.30
  -2  -8   1    0.36    0.47
  -2  -8   1   -0.26    0.46
   1   8  -1    2.70    0.49
   1   8  -1    1.84    0.59
   1   8  -1    1.71    0.52
  -1  -8   1    1.12    0.55
  -1  -8   1    2.07    0.59
   0   8  -1    1.37    0.46
   0   8  -1    0.77    0.36
   0   8  -1    1.04    0.40
   0   8  -1    1.74    0.37
   0  -8   1    1.08    0.51
   0  -8   1    2.26    0.63
  -1   8  -1    2.76    0.52
  -1   8  -1    3.74    0.61
  -1   8  -1    5.81    0.83
   1  -8   1    4.20    0.78
   1  -8   1    3.67    0.72
  -2   8  -1    2.01    0.50
  -2   8  -1    1.30    0.37
  -2   8  -1    0.88    0.34
   2  -8   1   -0.21    0.33
   2  -8   1    0.50    0.41
  -3   8  -1    5.00    0.68
  -3   8  -1    7.07    0.81
   3  -8   1    7.15    0.91
   3  -8   1    6.33    0.82
  -4   8  -1    5.72    0.72
  -4   8  -1    5.05    0.72
   4  -8   1    4.15    0.76
   4  -8   1    5.15    0.77
  -5   8  -1    1.68    0.42
  -5   8  -1    1.55    0.46
   5  -8   1    1.85    0.58
  -6   8  -1    2.96    0.56
  -6   8  -1    2.55    0.54
   6  -8   1    1.89    0.58
   6  -8   1    2.70    0.57
  -7   8  -1    4.09    0.62
  -7   8  -1    5.30    0.80
   7  -8   1    4.65    0.73
   7  -8   1    4.92    0.76
  -8   8  -1   -0.38    0.28
  -8   8  -1    0.33    0.47
   8  -8   1   -0.34    0.36
   8  -8   1    0.32    0.43
  -9   8  -1    0.52    0.49
  -9   8  -1    0.37    0.33
   9  -8   1   -0.03    0.36
   9  -8   1    0.85    0.48
   3   7  -1    1.93    0.61
   3   7  -1    3.78    0.72
   3   7  -1    2.52    0.50
  -3  -7   1    2.48    0.67
   2   7  -1    0.83    0.40
   2   7  -1    0.77    0.31
   2   7  -1    1.71    0.55
  -2  -7   1    1.07    0.51
  -2  -7   1    0.85    0.47
   1   7  -1   -0.19    0.20
   1   7  -1    0.28    0.31
   1   7  -1   -0.06    0.30
   1   7  -1    0.11    0.21
  -1  -7   1   -0.13    0.36
  -1  -7   1    0.63    0.42
   0   7  -1    2.18    0.50
   0   7  -1    1.44    0.31
   0   7  -1    1.66    0.42
   0   7  -1    0.99    0.34
   0  -7   1    1.21    0.50
   0  -7   1    2.16    0.57
  -1   7  -1   -0.01    0.25
  -1   7  -1   -0.15    0.23
  -1   7  -1   -0.05    0.15
  -1   7  -1    0.04    0.24
   1  -7   1    0.20    0.36
   1  -7   1    0.39    0.43
  -2   7  -1   12.16    0.82
  -2   7  -1   13.99    0.77
  -2   7  -1   14.39    0.85
   2  -7   1   14.33    0.97
   2  -7   1   12.93    0.96
  -3   7  -1    1.86    0.35
  -3   7  -1    2.95    0.50
  -3   7  -1    3.23    0.51
   3  -7   1    3.97    0.65
   3  -7   1    2.25    0.52
  -4   7  -1    3.00    0.52
  -4   7  -1    3.21    0.56
   4  -7   1    2.61    0.58
   4  -7   1    4.34    0.65
  -5   7  -1   21.16    1.10
  -5   7  -1   19.65    0.98
   5  -7   1   20.05    0.99
   5  -7   1   19.10    1.13
  -6   7  -1   -0.35    0.28
  -6   7  -1   -0.29    0.23
   6  -7   1    0.10    0.34
   6  -7   1    0.27    0.32
   6  -7   1   -0.11    0.30
  -7   7  -1    0.26    0.30
  -7   7  -1   -0.07    0.23
   7  -7   1    0.56    0.39
   7  -7   1    0.27    0.35
   7  -7   1   -0.17    0.30
  -8   7  -1    0.83    0.48
  -8   7  -1    0.37    0.30
   8  -7   1    0.47    0.44
   8  -7   1    0.76    0.44
  -9   7  -1    1.62    0.61
   9  -7   1    0.98    0.53
   9  -7   1    1.97    0.63
   4   6  -1    0.07    0.23
   4   6  -1   -0.69    0.31
   4   6  -1   -0.33    0.33
  -4  -6   1   -0.44    0.32
   3   6  -1    5.63    0.65
   3   6  -1    6.16    0.82
   3   6  -1    6.88    0.88
  -3  -6   1    6.21    0.84
  -3  -6   1    6.28    0.91
   2   6  -1    1.19    0.42
   2   6  -1    0.93    0.28
   2   6  -1    1.46    0.46
  -2  -6   1    1.04    0.48
  -2  -6   1    1.11    0.49
   1   6  -1    4.23    0.48
   1   6  -1    4.82    0.54
   1   6  -1    4.89    0.64
   1   6  -1    3.88    0.57
  -1  -6   1    4.39    0.69
  -1  -6   1    5.90    0.74
   0   6  -1    2.73    0.36
   0   6  -1    2.90    0.50
   0   6  -1    3.08    0.47
   0   6  -1    3.40    0.50
   0  -6   1    2.66    0.52
   0  -6   1    1.99    0.52
  -1   6  -1    8.61    0.45
  -1   6  -1    7.37    0.71
  -1   6  -1    8.31    0.59
  -1   6  -1    7.36    0.67
   1  -6   1    7.34    0.75
   1  -6   1    9.10    0.75
  -2   6  -1   -0.10    0.10
  -2   6  -1   -0.05    0.18
  -2   6  -1    0.19    0.19
  -2   6  -1   -0.03    0.21
   2  -6   1   -0.07    0.23
   2  -6   1    0.09    0.28
  -3   6  -1   29.07    0.70
  -3   6  -1   29.36    1.06
  -3   6  -1   29.05    1.09
  -3   6  -1   29.43    0.89
   3  -6   1   28.28    1.13
   3  -6   1   28.33    1.20
   3  -6   1   28.80    0.88
  -4   6  -1    9.00    0.65
  -4   6  -1   10.26    0.70
  -4   6  -1    9.06    0.52
   4  -6   1    9.26    0.76
   4  -6   1    8.48    0.61
   4  -6   1    8.99    0.58
  -5   6  -1    2.97    0.48
  -5   6  -1    2.09    0.44
   5  -6   1    2.36    0.48
   5  -6   1    2.86    0.46
   5  -6   1    3.57    0.55
  -6   6  -1    9.33    0.88
  -6   6  -1   10.59    0.72
   6  -6   1   12.23    0.88
   6  -6   1   11.12    0.81
   6  -6   1   10.48    0.84
  -7   6  -1    3.97    0.56
  -7   6  -1    3.32    0.65
   7  -6   1    3.82    0.69
   7  -6   1    3.51    0.66
   7  -6   1    3.37    0.56
  -8   6  -1    0.28    0.35
  -8   6  -1    0.41    0.40
   8  -6   1    0.26    0.38
   8  -6   1    0.61    0.38
  -9   6  -1    0.19    0.41
  -9   6  -1   -0.07    0.39
   9  -6   1   -0.32    0.39
   9  -6   1   -0.26    0.36
   5   5  -1    3.48    0.60
   5   5  -1    2.95    0.66
   5   5  -1    2.72    0.67
  -5  -5   1    3.66    0.78
  -5  -5   1    2.51    0.62
   4   5  -1    1.80    0.43
   4   5  -1    0.82    0.41
   4   5  -1    1.99    0.53
  -4  -5   1    1.45    0.46
  -4  -5   1    1.09    0.44
   3   5  -1    3.40    0.60
   3   5  -1    1.81    0.36
   3   5  -1    2.71    0.54
  -3  -5   1    1.90    0.52
  -3  -5   1    2.65    0.50
  -3  -5   1    2.42    0.54
   2   5  -1    0.01    0.19
   2   5  -1   -0.15    0.22
   2   5  -1    0.53    0.23
   2   5  -1    0.28    0.30
  -2  -5   1    0.21    0.25
  -2  -5   1   -0.03    0.31
  -2  -5   1   -0.47    0.30
   1   5  -1   14.72    0.70
   1   5  -1   15.15    0.83
   1   5  -1   15.44    0.66
   1   5  -1   14.60    0.82
  -1  -5   1   15.73    0.64
  -1  -5   1   13.91    0.89
  -1  -5   1   13.68    0.87
   0   5  -1    0.95    0.28
   0   5  -1    1.13    0.21
   0   5  -1    1.03    0.26
   0   5  -1    0.83    0.25
   0  -5   1    1.53    0.39
   0  -5   1    1.06    0.33
  -1   5  -1    0.27    0.21
  -1   5  -1    0.28    0.17
  -1   5  -1    0.47    0.15
  -1   5  -1    0.15    0.17
   1  -5   1    0.24    0.23
   1  -5   1    0.26    0.26
  -2   5  -1  104.24    1.82
  -2   5  -1  103.86    1.14
  -2   5  -1  104.36    1.54
  -2   5  -1  106.09    1.79
   2  -5   1  103.87    1.91
   2  -5   1  105.45    1.97
  -3   5  -1   16.03    0.59
  -3   5  -1   14.87    0.72
  -3   5  -1   14.04    0.69
   3  -5   1   14.85    0.75
   3  -5   1   16.24    0.66
   3  -5   1   15.67    0.79
  -4   5  -1   20.03    0.89
  -4   5  -1   21.46    0.85
  -4   5  -1   22.35    0.70
   4  -5   1   21.90    0.86
   4  -5   1   23.53    0.94
   4  -5   1   21.31    0.88
  -5   5  -1    0.65    0.28
  -5   5  -1    0.58    0.25
  -5   5  -1    0.13    0.19
  -5   5  -1   -0.03    0.19
   5  -5   1    0.02    0.21
   5  -5   1   -0.14    0.21
   5  -5   1    0.59    0.30
   5  -5   1    0.40    0.15
  -6   5  -1    0.16    0.21
  -6   5  -1    0.30    0.31
  -6   5  -1    0.11    0.26
   6  -5   1    0.42    0.34
   6  -5   1    0.06    0.26
   6  -5   1    0.51    0.35
  -7   5  -1    0.22    0.31
  -7   5  -1    0.10    0.38
  -7   5  -1   -0.09    0.20
   7  -5   1    0.07    0.34
   7  -5   1   -0.05    0.35
  -8   5  -1    4.98    0.69
  -8   5  -1    4.25    0.74
   8  -5   1    5.53    0.82
   8  -5   1    4.57    0.76
  -9   5  -1    0.85    0.55
  -9   5  -1    1.29    0.53
   9  -5   1    1.38    0.58
   9  -5   1    0.58    0.46
  10  -5   1    1.20    0.55
  10  -5   1    0.92    0.56
   6   4  -1    0.14    0.29
   6   4  -1    0.46    0.44
  -6  -4   1    1.00    0.50
  -6  -4   1    0.32    0.43
   5   4  -1    0.75    0.41
   5   4  -1    1.69    0.52
   5   4  -1    0.82    0.31
  -5  -4   1    1.11    0.42
  -5  -4   1    1.24    0.46
   4   4  -1   -0.02    0.29
   4   4  -1    0.01    0.27
   4   4  -1    0.09    0.22
  -4  -4   1   -0.33    0.24
  -4  -4   1    0.40    0.35
   3   4  -1    6.09    0.67
   3   4  -1    5.95    0.70
   3   4  -1    6.91    0.52
  -3  -4   1    5.83    0.63
  -3  -4   1    6.93    0.68
  -3  -4   1    6.36    0.76
   2   4  -1   17.61    0.64
   2   4  -1   17.44    0.70
   2   4  -1   17.03    0.84
   2   4  -1   16.46    0.84
  -2  -4   1   18.28    0.78
  -2  -4   1   14.42    0.85
  -2  -4   1   16.49    0.84
   1   4  -1    7.63    0.45
   1   4  -1    5.82    0.54
   1   4  -1    7.59    0.43
   1   4  -1    6.85    0.50
  -1  -4   1    7.80    0.60
  -1  -4   1    7.22    0.58
   0   4  -1   96.93    1.48
   0   4  -1   99.43    1.28
   0   4  -1   96.37    1.63
   0   4  -1  100.57    1.59
   0  -4   1   95.88    1.73
   0  -4   1   95.61    1.78
  -1   4  -1   46.39    1.02
  -1   4  -1   45.22    0.75
  -1   4  -1   45.40    1.06
  -1   4  -1   45.42    0.97
   1  -4   1   45.58    1.17
   1  -4   1   45.15    1.14
  -2   4  -1    0.17    0.15
  -2   4  -1    0.08    0.13
  -2   4  -1    0.00    0.12
   2  -4   1    0.69    0.25
   2  -4   1    0.14    0.20
  -3   4  -1    2.62    0.29
  -3   4  -1    2.08    0.33
  -3   4  -1    3.12    0.38
   3  -4   1    2.43    0.36
   3  -4   1    2.32    0.33
  -4   4  -1   11.21    0.64
  -4   4  -1   11.31    0.54
  -4   4  -1   11.43    0.49
  -4   4  -1   10.68    0.54
   4  -4   1   10.51    0.60
   4  -4   1   11.00    0.66
   4  -4   1   11.34    0.66
  -5   4  -1    0.51    0.20
  -5   4  -1    0.56    0.20
  -5   4  -1    0.69    0.14
  -5   4  -1    0.56    0.25
  -5   4  -1    0.43    0.26
   5  -4   1    0.68    0.17
   5  -4   1    0.62    0.31
   5  -4   1    0.48    0.24
   5  -4   1    0.56    0.29
  -6   4  -1    3.34    0.56
  -6   4  -1    3.87    0.55
  -6   4  -1    4.22    0.46
  -6   4  -1    4.57    0.46
   6  -4   1    4.77    0.48
   6  -4   1    4.12    0.64
   6  -4   1    3.86    0.63
   6  -4   1    3.82    0.45
   6  -4   1    3.65    0.38
  -7   4  -1    0.04    0.32
  -7   4  -1    0.64    0.42
  -7   4  -1    0.72    0.33
   7  -4   1   -0.12    0.37
   7  -4   1    0.56    0.39
   7  -4   1    0.28    0.22
   7  -4   1    0.48    0.29
  -8   4  -1    1.65    0.51
  -8   4  -1    0.51    0.45
   8  -4   1    0.57    0.37
   8  -4   1    0.30    0.36
  -9   4  -1    0.35    0.53
  -9   4  -1    0.67    0.45
   9  -4   1    0.07    0.33
   9  -4   1    0.46    0.45
   7   3  -1    0.60    0.33
   7   3  -1    0.60    0.44
  -7  -3   1    0.80    0.48
  -7  -3   1    0.50    0.39
   6   3  -1    0.33    0.33
   6   3  -1    0.22    0.23
  -6  -3   1   -0.43    0.27
  -6  -3   1    0.28    0.37
   5   3  -1    0.25    0.30
   5   3  -1    0.66    0.30
   5   3  -1    0.57    0.36
  -5  -3   1    0.27    0.33
  -5  -3   1    1.05    0.45
   4   3  -1    4.07    0.56
   4   3  -1    3.70    0.56
   4   3  -1    4.06    0.49
   4   3  -1    3.40    0.54
  -4  -3   1    4.79    0.64
  -4  -3   1    3.88    0.58
  -4  -3   1    3.84    0.48
   3   3  -1    0.04    0.20
   3   3  -1    0.01    0.19
   3   3  -1    0.43    0.17
   3   3  -1    0.56    0.24
  -3  -3   1    0.16    0.25
  -3  -3   1    0.72    0.26
  -3  -3   1    0.72    0.27
   2   3  -1    0.31    0.15
   2   3  -1    0.22    0.18
   2   3  -1    0.15    0.15
  -2  -3   1    0.16    0.21
  -2  -3   1    0.05    0.19
  -2  -3   1    0.24    0.19
   1   3  -1    0.17    0.15
   1   3  -1    0.24    0.12
   1   3  -1   -0.16    0.11
  -1  -3   1    0.06    0.16
  -1  -3   1    0.03    0.18
   0   3  -1    5.65    0.36
   0   3  -1    5.73    0.29
   0   3  -1    6.20    0.36
   0  -3   1    6.11    0.45
   0  -3   1    6.06    0.45
  -1   3  -1   -0.05    0.12
  -1   3  -1   -0.26    0.08
   1  -3   1   -0.09    0.17
   1  -3   1   -0.01    0.15
  -2   3  -1    6.97    0.36
  -2   3  -1    7.56    0.40
   2  -3   1    7.63    0.44
  -3   3  -1    3.88    0.30
  -3   3  -1    3.08    0.30
  -3   3  -1    3.82    0.40
   3  -3   1    4.42    0.44
   3  -3   1    3.28    0.32
  -4   3  -1    3.79    0.45
  -4   3  -1    3.77    0.40
  -4   3  -1    4.37    0.38
  -4   3  -1    4.70    0.35
   4  -3   1    3.84    0.28
   4  -3   1    3.85    0.36
   4  -3   1    4.63    0.36
   4  -3   1    4.90    0.55
   4  -3   1    4.26    0.50
  -5   3  -1    0.33    0.19
  -5   3  -1    0.33    0.15
  -5   3  -1    0.43    0.22
  -5   3  -1    0.47    0.27
   5  -3   1    0.20    0.26
   5  -3   1    0.08    0.15
   5  -3   1    0.25    0.19
   5  -3   1    0.45    0.15
   5  -3   1    0.16    0.26
  -6   3  -1    5.15    0.66
  -6   3  -1    3.73    0.54
   6  -3   1    4.59    0.52
   6  -3   1    3.77    0.60
   6  -3   1    5.14    0.46
   6  -3   1    4.45    0.68
  -7   3  -1   -0.09    0.32
  -7   3  -1   -0.07    0.37
  -7   3  -1   -0.34    0.21
   7  -3   1    0.39    0.35
   7  -3   1    0.46    0.27
   7  -3   1   -0.09    0.17
   7  -3   1   -0.33    0.32
  -8   3  -1    0.87    0.54
  -8   3  -1   -0.22    0.32
  -8   3  -1    0.95    0.37
   8  -3   1    0.88    0.46
   8  -3   1    0.76    0.33
   8  -3   1    1.14    0.50
   8  -3   1    0.48    0.25
  -9   3  -1    0.23    0.39
  -9   3  -1    0.77    0.57
   9  -3   1    0.43    0.25
   9  -3   1    0.17    0.41
   9  -3   1    0.35    0.45
   8   2  -1    0.02    0.43
   8   2  -1   -0.08    0.32
   8   2  -1    0.19    0.28
  -8  -2   1   -0.38    0.50
  -8  -2   1    0.40    0.44
  -8  -2   1    0.56    0.43
   7   2  -1   -0.41    0.31
   7   2  -1   -0.15    0.23
   7   2  -1   -0.09    0.28
  -7  -2   1    0.07    0.32
  -7  -2   1    0.22    0.36
   6   2  -1    0.36    0.31
   6   2  -1    0.34    0.32
   6   2  -1    0.46    0.25
   6   2  -1    0.89    0.40
  -6  -2   1    0.97    0.40
  -6  -2   1    0.42    0.36
   5   2  -1    5.72    0.58
   5   2  -1    6.84    0.77
   5   2  -1    6.76    0.65
   5   2  -1    6.85    0.74
  -5  -2   1    7.84    0.85
  -5  -2   1    5.23    0.65
   4   2  -1    7.66    0.54
   4   2  -1    7.88    0.71
   4   2  -1    7.42    0.51
   4   2  -1    6.63    0.63
  -4  -2   1    7.69    0.75
  -4  -2   1    6.66    0.48
  -4  -2   1    6.47    0.66
   3   2  -1   11.18    0.52
   3   2  -1   12.27    0.62
   3   2  -1   10.81    0.63
   3   2  -1    9.76    0.59
  -3  -2   1   11.55    0.55
  -3  -2   1   11.13    0.67
  -3  -2   1   12.79    0.68
   2   2  -1   30.42    0.87
   2   2  -1   29.83    0.86
   2   2  -1   30.17    0.73
  -2  -2   1   30.82    0.81
  -2  -2   1   29.38    0.91
  -2  -2   1   29.33    0.85
   1   2  -1   10.13    0.44
   1   2  -1   10.47    0.38
   1   2  -1    9.68    0.44
  -1  -2   1   10.05    0.50
  -1  -2   1   11.23    0.51
   0   2  -1   -0.10    0.12
   0   2  -1   -0.08    0.09
   0  -2   1    0.02    0.14
   0  -2   1   -0.01    0.16
  -1   2  -1   14.86    0.43
  -1   2  -1   16.29    0.45
   1  -2   1   15.48    0.52
  -2   2  -1   62.35    0.86
  -2   2  -1   61.39    0.98
  -3   2  -1   -0.17    0.17
  -3   2  -1    0.01    0.11
   3  -2   1   -0.09    0.10
   3  -2   1    0.08    0.18
   3  -2   1   -0.11    0.17
  -4   2  -1   54.98    1.28
  -4   2  -1   54.47    1.26
   4  -2   1   53.78    1.10
   4  -2   1   52.30    1.36
   4  -2   1   54.74    1.34
   4  -2   1   53.11    0.95
  -5   2  -1    6.36    0.63
  -5   2  -1    6.48    0.66
   5  -2   1    6.44    0.41
   5  -2   1    5.60    0.52
   5  -2   1    5.21    0.58
   5  -2   1    5.04    0.59
  -6   2  -1    0.71    0.36
  -6   2  -1    0.87    0.38
  -6   2  -1    0.66    0.30
   6  -2   1    1.35    0.38
   6  -2   1    1.91    0.34
   6  -2   1    0.98    0.42
   6  -2   1    0.95    0.32
  -7   2  -1    3.25    0.62
  -7   2  -1    5.22    0.80
  -7   2  -1    6.50    0.76
   7  -2   1    4.24    0.70
   7  -2   1    5.49    0.55
   7  -2   1    5.11    0.73
   7  -2   1    6.03    0.69
  -8   2  -1   -0.04    0.29
  -8   2  -1    0.03    0.42
  -8   2  -1   -0.21    0.27
   8  -2   1    0.22    0.22
   8  -2   1    0.61    0.39
   8  -2   1   -0.32    0.29
   8  -2   1   -0.22    0.23
  -9   2  -1    0.38    0.63
  -9   2  -1    0.12    0.37
   9  -2   1    0.16    0.42
   9  -2   1   -0.22    0.32
   9  -2   1    0.77    0.32
   9  -2   1    0.22    0.39
   8   1  -1    1.40    0.43
   8   1  -1    1.44    0.49
   8   1  -1    0.63    0.52
   8   1  -1    0.36    0.39
  -8  -1   1    0.80    0.46
  -8  -1   1    1.68    0.60
  -8  -1   1    1.40    0.53
   7   1  -1    1.62    0.44
   7   1  -1    0.63    0.28
   7   1  -1    0.67    0.40
   7   1  -1    1.79    0.49
  -7  -1   1    2.06    0.50
  -7  -1   1    1.59    0.53
  -7  -1   1    0.89    0.51
   6   1  -1    0.06    0.21
   6   1  -1    0.13    0.28
   6   1  -1    0.15    0.34
   6   1  -1   -0.06    0.27
  -6  -1   1   -0.06    0.27
  -6  -1   1    0.24    0.32
   5   1  -1    0.57    0.21
   5   1  -1    0.76    0.34
   5   1  -1    0.84    0.29
   5   1  -1    1.04    0.33
  -5  -1   1    0.25    0.26
  -5  -1   1    0.47    0.31
   4   1  -1   62.16    1.36
   4   1  -1   61.02    1.50
   4   1  -1   60.38    1.21
   4   1  -1   62.94    1.41
  -4  -1   1   63.82    1.11
  -4  -1   1   61.46    1.46
  -4  -1   1   61.19    1.50
   3   1  -1    0.16    0.18
   3   1  -1   -0.04    0.12
   3   1  -1    0.11    0.10
  -3  -1   1    0.39    0.21
  -3  -1   1    0.16    0.13
  -3  -1   1    0.27    0.16
   2   1  -1   38.85    0.84
   2   1  -1   38.26    0.83
   2   1  -1   39.14    0.71
  -2  -1   1   37.84    0.86
   1   1  -1  215.34    1.47
   1   1  -1  218.68    1.57
  -1  -1   1  222.07    1.66
   0   1  -1   37.97    0.54
   0  -1   1   37.17    0.59
  -1   1  -1    6.01    0.24
  -1   1  -1    5.81    0.23
   1  -1   1    6.03    0.24
  -2   1  -1   19.16    0.60
   2  -1   1   20.92    0.55
  -3   1  -1   32.25    0.88
  -3   1  -1   32.04    0.87
   3  -1   1   32.53    0.87
   3  -1   1   31.63    0.69
   3  -1   1   31.77    0.88
   3  -1   1   32.11    0.79
   3  -1   1   30.89    0.93
  -4   1  -1    4.71    0.49
  -4   1  -1    4.38    0.46
   4  -1   1    4.57    0.54
   4  -1   1    4.76    0.45
   4  -1   1    5.00    0.50
   4  -1   1    4.73    0.34
  -5   1  -1    4.30    0.52
  -5   1  -1    4.64    0.58
  -5   1  -1    4.26    0.55
   5  -1   1    5.02    0.53
   5  -1   1    5.05    0.65
   5  -1   1    5.01    0.60
   5  -1   1    3.50    0.37
  -6   1  -1    0.26    0.34
  -6   1  -1   -0.43    0.29
  -6   1  -1    0.20    0.26
   6  -1   1    0.43    0.23
   6  -1   1    0.33    0.26
   6  -1   1    1.04    0.38
   6  -1   1    0.76    0.39
  -7   1  -1    3.23    0.60
  -7   1  -1    2.53    0.58
  -7   1  -1    2.81    0.63
   7  -1   1    3.92    0.64
   7  -1   1    4.36    0.62
   7  -1   1    4.11    0.52
   7  -1   1    2.72    0.59
  -8   1  -1    1.64    0.66
  -8   1  -1    1.82    0.57
  -8   1  -1    1.12    0.46
   8  -1   1    0.50    0.39
   8  -1   1    1.48    0.42
   8  -1   1    2.34    0.63
   8  -1   1    0.57    0.38
  -9   1  -1    0.10    0.38
  -9   1  -1    0.24    0.38
  -9   1  -1    0.17    0.61
   9  -1   1   -0.72    0.33
   9  -1   1    0.03    0.28
   9  -1   1   -0.50    0.34
   9  -1   1   -0.36    0.29
   9   0  -1   -0.14    0.39
   9   0  -1   -0.09    0.32
   9   0  -1    0.26    0.41
   9   0  -1   -0.42    0.24
  -9   0   1    0.14    0.56
  -9   0   1   -0.20    0.34
   8   0  -1    0.91    0.38
   8   0  -1    0.56    0.41
   8   0  -1    0.51    0.25
   8   0  -1    0.55    0.40
  -8   0   1    0.96    0.47
  -8   0   1    0.90    0.41
  -8   0   1    0.87    0.48
   7   0  -1    0.24    0.33
   7   0  -1    0.49    0.36
   7   0  -1    0.43    0.28
   7   0  -1    0.08    0.22
  -7   0   1    0.72    0.35
  -7   0   1    0.40    0.45
  -7   0   1    0.11    0.32
   6   0  -1   22.04    0.86
   6   0  -1   20.49    1.15
   6   0  -1   19.26    1.03
   6   0  -1   20.89    0.94
  -6   0   1   20.59    0.99
  -6   0   1   20.74    1.07
  -6   0   1   19.19    1.06
   5   0  -1    3.25    0.48
   5   0  -1    4.91    0.64
   5   0  -1    2.60    0.33
   5   0  -1    3.19    0.41
  -5   0   1    3.16    0.49
  -5   0   1    3.28    0.45
  -5   0   1    2.63    0.46
  -5   0   1    3.27    0.32
   4   0  -1   76.29    1.53
   4   0  -1   75.73    1.22
   4   0  -1   75.08    1.36
   4   0  -1   78.30    1.66
  -4   0   1   75.64    1.57
  -4   0   1   77.41    1.41
  -4   0   1   75.26    1.50
  -4   0   1   74.35    1.09
   3   0  -1  168.76    2.11
   3   0  -1  169.60    1.70
   3   0  -1  165.60    1.51
  -3   0   1  167.33    1.99
  -3   0   1  166.94    1.87
  -3   0   1  167.86    1.73
   2   0  -1  242.94    1.62
  -2   0   1  244.30    1.79
  -2   0   1  245.82    1.64
   1   0  -1    1.50    0.11
  -1   0   1    1.32    0.13
   1   0   1   39.60    0.65
   1   0   1   38.92    0.65
  -2   0  -1  100.25    1.40
   2   0   1   97.94    1.12
   2   0   1   97.27    1.29
  -3   0  -1    2.00    0.31
  -3   0  -1    1.53    0.28
   3   0   1    1.80    0.30
   3   0   1    2.10    0.26
   3   0   1    2.34    0.35
   3   0   1    1.94    0.29
  -4   0  -1    5.12    0.54
  -4   0  -1    4.52    0.52
   4   0   1    4.83    0.44
   4   0   1    4.66    0.53
   4   0   1    4.61    0.48
   4   0   1    4.34    0.52
  -5   0  -1   11.82    0.82
  -5   0  -1   11.60    0.78
   5   0   1   12.37    0.64
   5   0   1   11.80    0.76
   5   0   1   11.30    0.81
   5   0   1   10.90    0.72
  -6   0  -1    1.89    0.52
  -6   0  -1    1.45    0.43
   6   0   1    2.19    0.50
   6   0   1    2.24    0.40
   6   0   1    1.43    0.44
   6   0   1    2.45    0.49
  -7   0  -1    2.13    0.51
  -7   0  -1    2.32    0.57
  -7   0  -1    2.10    0.58
   7   0   1    1.41    0.37
   7   0   1    1.46    0.52
   7   0   1    1.51    0.44
   7   0   1    2.21    0.55
  -8   0  -1    0.93    0.44
  -8   0  -1    0.61    0.56
  -8   0  -1    0.26    0.40
   8   0   1    0.70    0.42
   8   0   1    0.75    0.33
   8   0   1    1.04    0.45
   8   0   1    0.53    0.42
   9  -1  -1    1.23    0.50
   9  -1  -1    0.78    0.46
   9  -1  -1    0.53    0.33
  -9   1   1    1.51    0.66
  -9   1   1    0.47    0.44
   8  -1  -1    3.48    0.58
   8  -1  -1    3.82    0.53
   8  -1  -1    3.62    0.75
   8  -1  -1    2.11    0.52
  -8   1   1    2.59    0.59
  -8   1   1    2.58    0.62
   7  -1  -1    0.26    0.27
   7  -1  -1    0.17    0.37
   7  -1  -1    0.03    0.38
   7  -1  -1    0.40    0.23
  -7   1   1    0.27    0.35
  -7   1   1    0.00    0.27
  -7   1   1    0.34    0.44
   6  -1  -1   15.95    1.02
   6  -1  -1   17.99    0.77
   6  -1  -1   17.09    0.71
   6  -1  -1   16.44    0.95
  -6   1   1   17.73    0.84
  -6   1   1   17.03    0.98
  -6   1   1   16.08    1.00
   5  -1  -1   22.30    0.97
   5  -1  -1   22.52    0.69
   5  -1  -1   22.52    0.76
   5  -1  -1   22.02    1.02
  -5   1   1   22.48    0.94
  -5   1   1   23.33    0.83
  -5   1   1   23.58    0.97
   4  -1  -1   25.20    0.96
   4  -1  -1   24.76    0.68
   4  -1  -1   26.57    0.91
   4  -1  -1   25.76    0.63
  -4   1   1   27.85    0.91
  -4   1   1   24.67    0.87
  -4   1   1   26.18    0.72
   3  -1  -1   55.82    1.33
   3  -1  -1   54.39    0.78
   3  -1  -1   52.70    1.20
  -3   1   1   54.95    0.79
  -3   1   1   55.05    1.06
   2  -1  -1   -0.05    0.06
  -2   1   1    0.05    0.17
  -1   1   1   61.73    0.78
   0  -1  -1  142.89    1.24
   0   1   1  147.19    1.12
   0   1   1  146.67    1.25
  -1  -1  -1    0.62    0.19
   1   1   1   -0.12    0.11
   1   1   1    0.36    0.16
  -2  -1  -1    4.31    0.44
  -2  -1  -1    3.59    0.36
   2   1   1    3.85    0.37
   2   1   1    3.76    0.38
   2   1   1    3.94    0.28
   2   1   1    3.43    0.34
  -3  -1  -1    0.14    0.19
  -3  -1  -1    0.53    0.24
   3   1   1    0.69    0.25
   3   1   1    1.04    0.26
   3   1   1    0.51    0.18
   3   1   1    0.59    0.21
   3   1   1    0.47    0.22
  -4  -1  -1    0.04    0.25
  -4  -1  -1    0.04    0.22
   4   1   1    0.13    0.21
   4   1   1    0.58    0.21
   4   1   1   -0.31    0.18
   4   1   1    0.05    0.22
  -5  -1  -1    6.64    0.73
  -5  -1  -1    7.62    0.81
   5   1   1    8.87    0.82
   5   1   1    8.66    0.70
   5   1   1    8.71    0.79
   5   1   1    7.89    0.59
  -6  -1  -1    4.95    0.78
  -6  -1  -1    4.34    0.71
   6   1   1    5.55    0.77
   6   1   1    3.85    0.60
   6   1   1    3.84    0.63
   6   1   1    4.44    0.54
  -7  -1  -1    0.55    0.41
  -7  -1  -1    0.55    0.39
   7   1   1    1.80    0.52
   7   1   1    0.68    0.38
   7   1   1    0.41    0.30
   7   1   1    0.28    0.37
  -8  -1  -1   -0.03    0.38
  -8  -1  -1    0.42    0.53
  -8  -1  -1    0.70    0.46
   8   1   1   -0.25    0.34
   8   1   1    0.17    0.35
   8   1   1    0.67    0.43
   9  -2  -1    0.75    0.50
   9  -2  -1    0.09    0.23
   9  -2  -1   -0.09    0.37
  -9   2   1    0.33    0.54
  -9   2   1   -0.13    0.33
   8  -2  -1    0.08    0.19
   8  -2  -1    0.54    0.36
   8  -2  -1    0.08    0.37
  -8   2   1    0.33    0.44
  -8   2   1    0.61    0.42
   7  -2  -1    0.65    0.23
   7  -2  -1    0.99    0.42
   7  -2  -1    1.11    0.33
   7  -2  -1    0.96    0.44
  -7   2   1    0.84    0.45
  -7   2   1    0.76    0.37
   6  -2  -1    0.36    0.20
   6  -2  -1    0.59    0.35
   6  -2  -1    0.34    0.21
   6  -2  -1    0.67    0.19
   6  -2  -1    0.88    0.37
  -6   2   1    0.60    0.24
  -6   2   1    0.85    0.36
  -6   2   1    0.43    0.19
  -6   2   1    0.98    0.34
   5  -2  -1    8.58    0.65
   5  -2  -1   11.20    0.52
   5  -2  -1   10.66    0.49
   5  -2  -1   10.67    0.76
   5  -2  -1   10.89    0.44
  -5   2   1   10.22    0.50
  -5   2   1   10.60    0.66
  -5   2   1   11.09    0.69
  -5   2   1   10.94    0.48
   4  -2  -1    0.44    0.22
   4  -2  -1    0.54    0.14
   4  -2  -1    0.64    0.24
   4  -2  -1    0.64    0.19
  -4   2   1    0.32    0.14
  -4   2   1    0.59    0.23
  -4   2   1    0.27    0.21
   3  -2  -1   69.17    1.14
   3  -2  -1   71.99    1.33
  -3   2   1   69.05    1.24
   2  -2  -1    1.25    0.22
   2  -2  -1    1.98    0.18
  -2   2   1    1.52    0.23
   1  -2  -1   83.15    1.21
   1  -2  -1   83.67    0.99
  -1   2   1   86.32    0.83
  -1   2   1   83.08    1.17
   0  -2  -1    4.61    0.34
   0  -2  -1    5.44    0.37
   0   2   1    4.40    0.33
   0   2   1    4.93    0.32
  -1  -2  -1   60.02    1.03
  -1  -2  -1   57.65    1.21
   1   2   1   61.25    0.97
   1   2   1   59.48    1.19
   1   2   1   61.92    1.16
  -2  -2  -1   17.99    0.59
  -2  -2  -1   18.51    0.71
  -2  -2  -1   18.18    0.79
   2   2   1   17.80    0.76
   2   2   1   17.74    0.63
   2   2   1   17.95    0.74
  -3  -2  -1    7.27    0.44
  -3  -2  -1    6.55    0.61
  -3  -2  -1    7.72    0.74
   3   2   1    6.69    0.48
   3   2   1    5.98    0.59
   3   2   1    6.45    0.61
   3   2   1    6.78    0.53
   3   2   1    6.99    0.47
  -4  -2  -1    5.36    0.65
  -4  -2  -1    4.61    0.64
   4   2   1    5.14    0.55
   4   2   1    7.40    0.72
   4   2   1    4.00    0.55
   4   2   1    4.85    0.65
   4   2   1    4.36    0.47
  -5  -2  -1    0.12    0.33
  -5  -2  -1    0.25    0.29
   5   2   1    0.15    0.30
   5   2   1   -0.21    0.17
   5   2   1    0.27    0.32
   5   2   1   -0.14    0.23
  -6  -2  -1    0.85    0.39
  -6  -2  -1   -0.16    0.32
   6   2   1    0.52    0.33
   6   2   1    0.36    0.26
   6   2   1    0.72    0.41
  -7  -2  -1    0.47    0.40
  -7  -2  -1   -0.03    0.36
   7   2   1   -0.32    0.34
   7   2   1   -0.24    0.28
   7   2   1    0.08    0.35
  10  -3  -1    0.56    0.47
  10  -3  -1    0.21    0.42
 -10   3   1    0.27    0.53
 -10   3   1    0.14    0.41
   9  -3  -1   -0.09    0.34
   9  -3  -1   -0.08    0.36
  -9   3   1    0.32    0.50
  -9   3   1    0.11    0.40
   8  -3  -1    0.53    0.40
   8  -3  -1    0.13    0.35
  -8   3   1    0.52    0.43
  -8   3   1    0.06    0.41
   7  -3  -1    0.82    0.40
   7  -3  -1   -0.16    0.34
   7  -3  -1    0.00    0.16
  -7   3   1    0.02    0.36
  -7   3   1    0.19    0.40
   6  -3  -1    0.98    0.37
   6  -3  -1    0.78    0.21
   6  -3  -1    0.55    0.25
   6  -3  -1    0.60    0.18
   6  -3  -1    0.55    0.32
  -6   3   1    0.76    0.22
  -6   3   1    0.37    0.30
  -6   3   1    0.48    0.22
  -6   3   1    0.62    0.35
   5  -3  -1   11.19    0.72
   5  -3  -1   10.76    0.61
   5  -3  -1   10.26    0.73
   5  -3  -1   10.81    0.42
  -5   3   1   10.12    0.64
  -5   3   1   10.06    0.53
   4  -3  -1    0.42    0.21
   4  -3  -1    0.26    0.23
   4  -3  -1    0.77    0.27
  -4   3   1    0.15    0.18
  -4   3   1    0.28    0.18
  -4   3   1    0.28    0.15
  -4   3   1    0.35    0.10
   3  -3  -1    9.74    0.54
   3  -3  -1    9.63    0.53
  -3   3   1    9.18    0.19
  -3   3   1    9.49    0.50
  -3   3   1    9.59    0.52
   2  -3  -1    4.59    0.43
   2  -3  -1    4.73    0.31
  -2   3   1    3.46    0.36
  -2   3   1    4.54    0.41
  -2   3   1    4.19    0.21
   1  -3  -1    2.23    0.30
   1  -3  -1    1.91    0.31
  -1   3   1    2.96    0.33
  -1   3   1    2.28    0.33
  -1   3   1    2.06    0.23
   0  -3  -1    6.12    0.45
   0  -3  -1    5.93    0.44
   0   3   1    5.52    0.38
   0   3   1    5.53    0.37
   0   3   1    5.86    0.44
   0   3   1    5.76    0.30
  -1  -3  -1    0.13    0.17
  -1  -3  -1   -0.14    0.13
   1   3   1    0.06    0.13
   1   3   1    0.07    0.11
   1   3   1    0.26    0.17
   1   3   1   -0.16    0.15
  -2  -3  -1    0.36    0.21
  -2  -3  -1    0.14    0.20
  -2  -3  -1    0.21    0.23
   2   3   1    0.29    0.15
   2   3   1    0.10    0.21
   2   3   1   -0.11    0.19
  -3  -3  -1   -0.14    0.22
  -3  -3  -1    0.11    0.22
  -3  -3  -1   -0.14    0.24
   3   3   1    0.42    0.27
   3   3   1    0.60    0.29
   3   3   1    0.12    0.18
   3   3   1   -0.16    0.18
  -4  -3  -1   -0.40    0.26
  -4  -3  -1   -0.25    0.23
   4   3   1   -0.06    0.20
   4   3   1    0.10    0.26
   4   3   1   -0.16    0.27
  -5  -3  -1    2.18    0.52
  -5  -3  -1    0.78    0.41
   5   3   1    1.56    0.40
   5   3   1    1.51    0.50
   5   3   1    0.96    0.40
  -6  -3  -1    0.13    0.38
  -6  -3  -1   -0.15    0.29
   6   3   1    0.01    0.32
   6   3   1   -0.15    0.21
  10  -4  -1    0.11    0.43
  10  -4  -1   -0.49    0.39
 -10   4   1    0.34    0.49
 -10   4   1    0.19    0.43
   9  -4  -1    0.26    0.42
   9  -4  -1    0.01    0.36
  -9   4   1   -0.22    0.41
  -9   4   1   -0.42    0.34
   8  -4  -1    1.71    0.55
   8  -4  -1    1.90    0.56
  -8   4   1    1.14    0.48
  -8   4   1    2.03    0.56
   7  -4  -1    0.21    0.37
   7  -4  -1    0.23    0.28
   7  -4  -1   -0.19    0.30
  -7   4   1   -0.31    0.18
  -7   4   1    0.01    0.37
  -7   4   1    0.55    0.35
   6  -4  -1    0.15    0.26
   6  -4  -1    0.42    0.33
   6  -4  -1   -0.30    0.25
  -6   4   1   -0.12    0.27
  -6   4   1    0.40    0.21
  -6   4   1    0.28    0.30
   5  -4  -1   12.03    0.78
   5  -4  -1   12.57    0.71
   5  -4  -1   12.29    0.79
  -5   4   1   12.60    0.66
  -5   4   1   13.05    0.77
  -5   4   1   13.15    0.66
   4  -4  -1    1.00    0.27
   4  -4  -1    1.24    0.32
   4  -4  -1    0.87    0.29
  -4   4   1    1.15    0.27
  -4   4   1    1.09    0.29
  -4   4   1    1.35    0.12
   3  -4  -1   27.57    0.87
   3  -4  -1   29.01    1.00
   3  -4  -1   28.57    0.77
  -3   4   1   28.68    0.53
  -3   4   1   28.28    0.91
  -3   4   1   28.39    0.95
   2  -4  -1    1.53    0.28
   2  -4  -1    2.32    0.38
  -2   4   1    1.59    0.28
  -2   4   1    1.81    0.22
  -2   4   1    2.37    0.36
   1  -4  -1   -0.06    0.16
   1  -4  -1    0.01    0.15
  -1   4   1    0.10    0.14
  -1   4   1    0.06    0.12
  -1   4   1    0.06    0.09
  -1   4   1   -0.19    0.13
   0  -4  -1    9.26    0.59
   0  -4  -1   10.02    0.62
   0   4   1    9.97    0.56
   0   4   1    8.75    0.51
   0   4   1   10.28    0.46
   0   4   1    9.64    0.63
  -1  -4  -1   10.45    0.55
  -1  -4  -1   10.60    0.66
  -1  -4  -1    9.98    0.72
   1   4   1   10.69    0.68
   1   4   1   10.25    0.70
   1   4   1   11.11    0.56
   1   4   1    9.81    0.52
  -2  -4  -1    1.18    0.33
  -2  -4  -1    0.56    0.27
  -2  -4  -1    0.07    0.25
   2   4   1    0.66    0.24
   2   4   1    0.92    0.33
   2   4   1    0.73    0.24
   2   4   1    0.96    0.36
  -3  -4  -1    4.64    0.74
  -3  -4  -1    4.41    0.58
   3   4   1    4.04    0.64
   3   4   1    4.06    0.61
   3   4   1    4.05    0.50
  -4  -4  -1    0.95    0.38
  -4  -4  -1    1.05    0.48
   4   4   1    0.87    0.30
   4   4   1    1.21    0.41
   4   4   1    1.22    0.48
  -5  -4  -1    0.41    0.39
  -5  -4  -1    0.42    0.33
   5   4   1   -0.48    0.28
   5   4   1    0.00    0.33
   5   4   1    0.02    0.26
  -6  -4  -1    0.53    0.50
  -6  -4  -1    0.81    0.42
   6   4   1    0.45    0.46
   6   4   1    0.89    0.38
  10  -5  -1   -0.02    0.37
  10  -5  -1    0.54    0.49
 -10   5   1    0.15    0.48
 -10   5   1    0.61    0.51
   9  -5  -1   -0.49    0.38
   9  -5  -1    0.83    0.45
  -9   5   1    1.08    0.55
  -9   5   1    0.35    0.43
   8  -5  -1    5.70    0.89
   8  -5  -1    2.64    0.61
  -8   5   1    3.52    0.69
  -8   5   1    4.55    0.71
  -8   5   1    4.74    0.61
   7  -5  -1   11.79    1.11
   7  -5  -1   10.74    0.80
   7  -5  -1    8.15    0.88
  -7   5   1   10.03    0.70
  -7   5   1   10.82    0.90
  -7   5   1    9.70    0.97
   6  -5  -1    1.79    0.48
   6  -5  -1    2.24    0.47
   6  -5  -1    2.78    0.53
  -6   5   1    2.48    0.49
  -6   5   1    2.99    0.46
  -6   5   1    2.39    0.43
   5  -5  -1    8.43    0.77
   5  -5  -1    9.90    0.86
   5  -5  -1    8.32    0.67
  -5   5   1    7.79    0.61
  -5   5   1    7.20    0.73
   4  -5  -1    2.00    0.39
   4  -5  -1    2.01    0.37
   4  -5  -1    1.88    0.37
  -4   5   1    2.27    0.38
  -4   5   1    2.35    0.44
   3  -5  -1    6.20    0.49
   3  -5  -1    6.56    0.55
   3  -5  -1    6.49    0.65
  -3   5   1    5.63    0.57
  -3   5   1    6.43    0.36
  -3   5   1    6.26    0.59
   2  -5  -1   10.19    0.63
   2  -5  -1   10.40    0.74
  -2   5   1   10.32    0.51
  -2   5   1   10.17    0.62
  -2   5   1   11.27    0.71
   1  -5  -1   22.94    0.98
   1  -5  -1   22.06    1.00
  -1   5   1   23.88    0.85
  -1   5   1   23.36    0.66
  -1   5   1   22.82    0.99
  -1   5   1   23.12    0.91
   0  -5  -1    2.57    0.50
   0  -5  -1    3.17    0.47
   0   5   1    3.27    0.45
   0   5   1    2.97    0.43
   0   5   1    3.03    0.36
   0   5   1    2.58    0.45
  -1  -5  -1    0.44    0.32
  -1  -5  -1   -0.26    0.26
   1   5   1    0.14    0.23
   1   5   1    0.01    0.15
   1   5   1    0.17    0.24
   1   5   1   -0.03    0.18
  -2  -5  -1    1.53    0.45
  -2  -5  -1    1.64    0.51
   2   5   1    0.24    0.30
   2   5   1    0.81    0.30
   2   5   1    1.11    0.38
  -3  -5  -1    1.16    0.49
   3   5   1    0.47    0.40
   3   5   1    1.00    0.31
   3   5   1    1.36    0.49
  -4  -5  -1    2.00    0.62
   4   5   1    1.25    0.39
   4   5   1    0.71    0.41
   4   5   1    1.09    0.51
  -5  -5  -1    0.92    0.54
   5   5   1    0.22    0.42
   5   5   1    0.40    0.34
   5   5   1    0.74    0.59
   9  -6  -1    2.79    0.70
   9  -6  -1    2.41    0.62
  -9   6   1    2.07    0.60
   8  -6  -1   -0.23    0.35
   8  -6  -1    0.03    0.39
  -8   6   1    0.16    0.26
  -8   6   1    0.49    0.40
   7  -6  -1    0.11    0.31
   7  -6  -1   -0.04    0.33
   7  -6  -1    0.14    0.35
  -7   6   1    0.11    0.28
  -7   6   1    0.14    0.24
   6  -6  -1    0.17    0.29
   6  -6  -1    0.25    0.32
   6  -6  -1   -0.09    0.30
  -6   6   1   -0.31    0.19
  -6   6   1   -0.01    0.31
   5  -6  -1    2.08    0.50
   5  -6  -1    2.61    0.48
   5  -6  -1    2.04    0.46
  -5   6   1    1.31    0.37
  -5   6   1    1.89    0.44
   4  -6  -1    0.81    0.38
   4  -6  -1    0.87    0.32
   4  -6  -1    0.79    0.30
  -4   6   1    0.92    0.34
  -4   6   1    1.17    0.35
   3  -6  -1    5.74    0.64
   3  -6  -1    6.20    0.71
  -3   6   1    6.14    0.70
  -3   6   1    5.91    0.64
   2  -6  -1   28.61    1.14
   2  -6  -1   29.68    1.25
  -2   6   1   29.15    1.11
  -2   6   1   29.78    1.21
  -2   6   1   28.57    0.95
   1  -6  -1    3.84    0.59
   1  -6  -1    3.64    0.56
  -1   6   1    4.17    0.40
  -1   6   1    3.04    0.51
  -1   6   1    3.91    0.50
  -1   6   1    3.94    0.51
   0  -6  -1   -0.04    0.33
   0  -6  -1    0.44    0.40
   0   6   1   -0.05    0.25
   0   6   1    0.05    0.22
   0   6   1    0.15    0.19
   0   6   1   -0.04    0.26
  -1  -6  -1    1.75    0.51
  -1  -6  -1    2.49    0.55
   1   6   1    2.62    0.46
   1   6   1    2.26    0.51
   1   6   1    2.57    0.51
   1   6   1    1.98    0.37
  -2  -6  -1    5.53    0.82
  -2  -6  -1    5.41    0.76
   2   6   1    4.59    0.72
   2   6   1    5.78    0.63
   2   6   1    4.41    0.68
  -3  -6  -1    1.04    0.50
   3   6   1    2.02    0.61
   3   6   1    0.55    0.43
   3   6   1    1.51    0.42
  -4  -6  -1    0.03    0.37
   4   6   1    0.00    0.40
   4   6   1    0.35    0.31
   4   6   1   -0.27    0.41
   9  -7  -1    0.29    0.41
   9  -7  -1    0.38    0.45
  -9   7   1    0.49    0.33
  -9   7   1   -0.02    0.43
   8  -7  -1    0.43    0.42
   8  -7  -1    0.27    0.39
   8  -7  -1    0.13    0.43
  -8   7   1    0.24    0.40
  -8   7   1    0.05    0.28
   7  -7  -1    0.39    0.40
   7  -7  -1    0.56    0.43
   7  -7  -1    0.42    0.41
  -7   7   1    0.92    0.42
  -7   7   1    0.60    0.34
   6  -7  -1    0.63    0.43
   6  -7  -1    1.65    0.46
  -6   7   1    1.39    0.43
  -6   7   1    0.87    0.37
   5  -7  -1    0.47    0.38
   5  -7  -1    0.21    0.31
  -5   7   1    0.76    0.35
  -5   7   1    0.53    0.32
   4  -7  -1   20.48    1.21
  -4   7   1   20.02    1.10
  -4   7   1   19.50    1.07
   3  -7  -1   -0.09    0.31
   3  -7  -1    0.01    0.38
  -3   7   1   -0.12    0.23
  -3   7   1    0.16    0.26
   2  -7  -1    2.64    0.57
   2  -7  -1    2.45    0.57
  -2   7   1    1.50    0.37
  -2   7   1    2.65    0.52
   1  -7  -1    0.74    0.36
   1  -7  -1    0.28    0.39
  -1   7   1    0.02    0.26
  -1   7   1    0.20    0.29
  -1   7   1    0.65    0.37
   0  -7  -1    4.06    0.71
   0  -7  -1    3.30    0.66
   0   7   1    3.78    0.61
   0   7   1    3.23    0.66
   0   7   1    3.21    0.52
  -1  -7  -1    1.66    0.55
  -1  -7  -1    2.36    0.66
   1   7   1    3.20    0.70
   1   7   1    1.79    0.40
   1   7   1    2.37    0.58
  -2  -7  -1    0.98    0.50
   2   7   1    0.33    0.40
   2   7   1    0.34    0.30
   2   7   1    1.14    0.49
   8  -8  -1    1.35    0.52
   8  -8  -1    1.40    0.56
  -8   8   1    1.81    0.52
  -8   8   1    1.80    0.60
   7  -8  -1    0.12    0.40
   7  -8  -1    0.12    0.35
  -7   8   1    0.06    0.31
  -7   8   1   -0.04    0.30
   6  -8  -1    2.72    0.63
  -6   8   1    2.69    0.55
  -6   8   1    2.84    0.64
   5  -8  -1    1.25    0.49
  -5   8   1    1.18    0.42
  -5   8   1    1.17    0.45
   4  -8  -1    1.61    0.53
  -4   8   1    1.27    0.48
  -4   8   1    2.22    0.52
   3  -8  -1    0.07    0.33
   3  -8  -1   -0.31    0.30
  -3   8   1   -0.02    0.29
  -3   8   1    0.15    0.30
   2  -8  -1   -0.14    0.29
   2  -8  -1    0.04    0.36
  -2   8   1    0.22    0.31
  -2   8   1    0.21    0.29
   1  -8  -1   -0.05    0.41
   1  -8  -1    0.97    0.45
  -1   8   1    0.52    0.39
  -1   8   1    1.03    0.39
   0  -8  -1    5.00    0.85
   0  -8  -1    3.13    0.76
   0   8   1    3.35    0.58
   0   8   1    2.24    0.63
   0   8   1    4.71    0.74
  -1  -8  -1   -0.03    0.46
  -1  -8  -1   -0.28    0.36
   1   8   1   -0.48    0.36
   1   8   1    1.00    0.46
   7  -9  -1    0.40    0.59
  -7   9   1   -0.07    0.41
  -7   9   1    0.29    0.36
   6  -9  -1    0.27    0.54
  -6   9   1    0.53    0.40
  -6   9   1    0.60    0.34
   5  -9  -1    0.10    0.44
  -5   9   1    0.08    0.40
  -5   9   1    0.56    0.35
   4  -9  -1   -0.34    0.38
  -4   9   1    0.40    0.39
  -4   9   1    0.51    0.40
   3  -9  -1   -0.13    0.44
  -3   9   1    0.06    0.40
  -3   9   1   -0.18    0.29
   2  -9  -1    0.00    0.41
   2  -9  -1    0.33    0.46
  -2   9   1    0.71    0.50
  -2   9   1    0.75    0.36
   1  -9  -1    0.26    0.43
   1  -9  -1   -0.06    0.45
  -1   9   1   -0.18    0.37
  -1   9   1   -0.17    0.29
  -2  10  -2   -0.22    0.35
  -2  10  -2   -0.17    0.27
   2 -10   2   -0.07    0.37
   2 -10   2   -0.19    0.42
  -3  10  -2    0.64    0.38
  -3  10  -2    0.81    0.43
   3 -10   2    0.12    0.45
   3 -10   2    0.62    0.57
  -4  10  -2    0.16    0.40
  -4  10  -2    0.48    0.36
   4 -10   2    2.17    0.66
   4 -10   2    1.58    0.65
  -5  10  -2    2.41    0.61
  -5  10  -2    1.57    0.50
   5 -10   2    0.81    0.58
  -6  10  -2    0.96    0.47
  -6  10  -2    0.14    0.34
   6 -10   2   -0.15    0.56
   0   9  -2    0.69    0.40
   0   9  -2    1.11    0.50
   0   9  -2    0.62    0.37
   0  -9   2    1.17    0.55
   0  -9   2    0.88    0.62
  -1   9  -2    0.54    0.36
  -1   9  -2    0.16    0.36
  -1   9  -2    0.18    0.36
   1  -9   2   -0.40    0.43
   1  -9   2   -0.04    0.34
  -2   9  -2   -0.29    0.29
  -2   9  -2   -0.26    0.25
  -2   9  -2    0.30    0.27
   2  -9   2    0.06    0.38
   2  -9   2    0.47    0.50
  -3   9  -2    1.30    0.48
  -3   9  -2    2.83    0.56
   3  -9   2    3.46    0.73
   3  -9   2    1.36    0.56
  -4   9  -2   -0.11    0.28
  -4   9  -2    0.06    0.29
   4  -9   2   -0.54    0.34
   4  -9   2   -0.27    0.35
  -5   9  -2   -0.16    0.26
  -5   9  -2    0.32    0.39
   5  -9   2    0.38    0.50
  -6   9  -2    1.57    0.47
  -6   9  -2    0.73    0.41
   6  -9   2    1.31    0.59
  -7   9  -2    0.14    0.36
  -7   9  -2    0.23    0.31
   7  -9   2    0.28    0.46
  -8   9  -2    0.19    0.45
  -8   9  -2    0.21    0.34
   8  -9   2    0.77    0.51
   2   8  -2    0.75    0.47
   2   8  -2    0.95    0.38
   2   8  -2    0.11    0.38
  -2  -8   2    0.41    0.49
  -2  -8   2    0.75    0.55
   1   8  -2    0.21    0.23
   1   8  -2    1.11    0.42
   1   8  -2    0.42    0.32
   1   8  -2    0.99    0.45
  -1  -8   2    1.49    0.57
  -1  -8   2    0.88    0.52
   0   8  -2   -0.35    0.22
   0   8  -2    0.00    0.29
   0   8  -2    0.17    0.21
   0   8  -2    0.25    0.33
   0  -8   2   -0.54    0.36
   0  -8   2   -0.07    0.32
  -1   8  -2   28.74    1.27
  -1   8  -2   30.12    1.30
  -1   8  -2   31.74    1.42
  -1   8  -2   30.39    1.00
   1  -8   2   28.89    1.49
   1  -8   2   28.56    1.53
  -2   8  -2    2.14    0.47
  -2   8  -2    3.49    0.54
  -2   8  -2    3.53    0.58
   2  -8   2    3.67    0.74
   2  -8   2    3.11    0.66
  -3   8  -2    0.45    0.31
  -3   8  -2    0.56    0.28
  -3   8  -2    0.27    0.28
   3  -8   2    0.38    0.39
   3  -8   2    0.96    0.50
  -4   8  -2    0.61    0.32
  -4   8  -2    0.48    0.31
   4  -8   2    0.27    0.45
  -5   8  -2    2.00    0.47
  -5   8  -2    2.89    0.58
   5  -8   2    1.65    0.55
  -6   8  -2    0.09    0.27
  -6   8  -2    0.18    0.35
   6  -8   2    0.37    0.34
   6  -8   2    0.45    0.40
  -7   8  -2    2.73    0.53
  -7   8  -2    3.18    0.72
   7  -8   2    3.37    0.67
   7  -8   2    3.22    0.65
  -8   8  -2    1.30    0.45
  -8   8  -2    1.40    0.59
   8  -8   2    0.50    0.44
   8  -8   2    0.29    0.44
  -9   8  -2    0.09    0.45
   9  -8   2    0.18    0.47
   9  -8   2    0.56    0.46
   3   7  -2   -0.03    0.34
   3   7  -2    0.26    0.29
   3   7  -2    0.48    0.43
  -3  -7   2    0.30    0.43
  -3  -7   2    0.85    0.56
   2   7  -2    0.01    0.29
   2   7  -2    0.40    0.38
   2   7  -2    0.41    0.28
  -2  -7   2    0.10    0.44
  -2  -7   2    0.85    0.49
   1   7  -2   31.25    1.10
   1   7  -2   31.90    1.21
   1   7  -2   31.77    1.38
   1   7  -2   34.57    1.44
  -1  -7   2   33.50    1.60
  -1  -7   2   33.06    1.56
   0   7  -2    0.77    0.40
   0   7  -2    0.63    0.25
   0   7  -2    0.75    0.33
   0   7  -2    0.83    0.34
   0  -7   2    0.85    0.46
   0  -7   2    1.20    0.51
  -1   7  -2    3.80    0.42
  -1   7  -2    3.21    0.52
  -1   7  -2    2.93    0.52
  -1   7  -2    4.27    0.58
   1  -7   2    3.25    0.64
   1  -7   2    1.80    0.55
  -2   7  -2    0.11    0.23
  -2   7  -2    0.26    0.24
  -2   7  -2    0.57    0.31
  -2   7  -2    0.21    0.17
   2  -7   2   -0.21    0.32
   2  -7   2    0.16    0.37
  -3   7  -2    1.57    0.36
  -3   7  -2    1.66    0.39
  -3   7  -2    3.26    0.50
   3  -7   2    2.52    0.55
   3  -7   2    2.30    0.57
  -4   7  -2    1.68    0.40
  -4   7  -2    1.12    0.36
  -4   7  -2    1.11    0.33
   4  -7   2    1.96    0.40
   4  -7   2    1.71    0.51
  -5   7  -2    0.47    0.30
  -5   7  -2    0.77    0.38
   5  -7   2    0.17    0.31
   5  -7   2    1.10    0.41
   5  -7   2    0.49    0.40
  -6   7  -2   11.92    0.80
  -6   7  -2   13.46    0.93
   6  -7   2   11.85    0.90
   6  -7   2   10.38    0.94
   6  -7   2   12.05    0.92
  -7   7  -2   -0.01    0.24
  -7   7  -2   -0.18    0.25
   7  -7   2    0.11    0.35
   7  -7   2   -0.04    0.31
   7  -7   2    1.29    0.48
  -8   7  -2   -0.11    0.25
  -8   7  -2    0.71    0.46
   8  -7   2    0.03    0.37
   8  -7   2    0.17    0.36
  -9   7  -2    1.25    0.61
   9  -7   2    0.32    0.44
   9  -7   2    0.15    0.43
   5   6  -2    0.25    0.46
   5   6  -2    0.99    0.51
   5   6  -2    0.82    0.39
  -5  -6   2    1.25    0.58
   4   6  -2    1.55    0.51
   4   6  -2    1.23    0.37
   4   6  -2    0.91    0.45
  -4  -6   2    0.54    0.46
   3   6  -2    5.75    0.62
   3   6  -2    5.85    0.77
   3   6  -2    5.45    0.76
  -3  -6   2    6.91    0.85
  -3  -6   2    4.69    0.77
   2   6  -2    6.25    0.77
   2   6  -2    7.33    0.66
   2   6  -2    7.39    0.84
   2   6  -2    6.24    0.62
  -2  -6   2    5.93    0.84
  -2  -6   2    6.27    0.87
   1   6  -2   -0.27    0.20
   1   6  -2    0.39    0.24
   1   6  -2    0.23    0.29
   1   6  -2   -0.20    0.14
  -1  -6   2    0.52    0.37
  -1  -6   2    0.11    0.32
   0   6  -2    0.34    0.25
   0   6  -2    0.15    0.17
   0   6  -2    0.29    0.23
   0   6  -2   -0.06    0.21
   0  -6   2    0.36    0.33
   0  -6   2    0.49    0.37
  -1   6  -2    0.68    0.27
  -1   6  -2    0.64    0.25
  -1   6  -2    0.45    0.23
  -1   6  -2    0.29    0.16
   1  -6   2   -0.21    0.28
   1  -6   2    0.16    0.30
  -2   6  -2   12.42    0.70
  -2   6  -2   12.47    0.70
  -2   6  -2   10.78    0.64
  -2   6  -2   11.84    0.49
   2  -6   2   11.95    0.82
   2  -6   2   12.70    0.82
  -3   6  -2    4.62    0.30
  -3   6  -2    4.12    0.49
  -3   6  -2    5.44    0.50
  -3   6  -2    4.95    0.54
   3  -6   2    4.74    0.63
   3  -6   2    5.59    0.68
   3  -6   2    4.93    0.49
  -4   6  -2   37.34    1.26
  -4   6  -2   37.37    1.22
  -4   6  -2   38.50    1.07
  -4   6  -2   37.68    0.75
   4  -6   2   39.16    1.21
   4  -6   2   41.17    1.39
   4  -6   2   37.44    1.15
  -5   6  -2    0.25    0.28
  -5   6  -2   -0.17    0.20
  -5   6  -2    0.04    0.24
   5  -6   2   -0.08    0.26
   5  -6   2   -0.17    0.26
   5  -6   2   -0.03    0.25
  -6   6  -2    0.77    0.39
  -6   6  -2    0.33    0.26
   6  -6   2    0.46    0.34
   6  -6   2    0.49    0.35
   6  -6   2    0.55    0.38
  -7   6  -2    1.14    0.35
  -7   6  -2    0.64    0.39
  -7   6  -2    0.94    0.40
   7  -6   2    0.31    0.39
   7  -6   2    0.82    0.43
  -8   6  -2    0.02    0.38
  -8   6  -2   -0.03    0.33
   8  -6   2    0.10    0.34
   8  -6   2    0.23    0.39
  -9   6  -2    0.12    0.42
  -9   6  -2    1.60    0.55
   9  -6   2    0.45    0.46
   9  -6   2    1.48    0.57
   6   5  -2    0.00    0.41
   5   5  -2    0.61    0.46
   5   5  -2    0.11    0.39
   5   5  -2    0.23    0.29
  -5  -5   2    0.47    0.46
  -5  -5   2    0.16    0.34
   4   5  -2    5.38    0.76
   4   5  -2    4.25    0.68
   4   5  -2    6.07    0.66
  -4  -5   2    6.45    0.76
  -4  -5   2    5.80    0.85
   3   5  -2   10.01    0.79
   3   5  -2   11.67    0.85
   3   5  -2   11.01    0.70
  -3  -5   2   11.69    0.91
  -3  -5   2   10.64    0.77
  -3  -5   2   12.97    1.23
   2   5  -2    2.24    0.45
   2   5  -2    2.58    0.38
   2   5  -2    1.59    0.32
   2   5  -2    2.60    0.50
  -2  -5   2    2.26    0.55
  -2  -5   2    2.31    0.53
  -2  -5   2    2.65    0.44
   1   5  -2    2.35    0.31
   1   5  -2    3.23    0.40
   1   5  -2    2.80    0.44
   1   5  -2    3.59    0.47
  -1  -5   2    3.97    0.41
  -1  -5   2    3.48    0.56
  -1  -5   2    3.59    0.59
   0   5  -2    2.25    0.37
   0   5  -2    1.39    0.31
   0   5  -2    1.38    0.30
   0   5  -2    2.00    0.28
   0  -5   2    1.26    0.38
   0  -5   2    1.65    0.38
  -1   5  -2   18.92    0.78
  -1   5  -2   19.69    0.59
  -1   5  -2   19.09    0.75
  -1   5  -2   19.93    0.78
   1  -5   2   19.11    0.92
   1  -5   2   18.34    0.90
  -2   5  -2   16.06    0.67
  -2   5  -2   16.24    0.71
  -2   5  -2   16.98    0.51
  -2   5  -2   16.12    0.74
   2  -5   2   18.12    0.87
   2  -5   2   16.32    0.82
  -3   5  -2    0.00    0.16
  -3   5  -2    0.24    0.11
  -3   5  -2    0.43    0.21
  -3   5  -2    0.21    0.20
   3  -5   2    0.15    0.19
   3  -5   2    0.19    0.23
   3  -5   2    0.72    0.22
  -4   5  -2    0.86    0.27
  -4   5  -2    0.55    0.22
  -4   5  -2    1.25    0.19
  -4   5  -2    1.19    0.26
  -4   5  -2    0.53    0.23
   4  -5   2    0.80    0.25
   4  -5   2    0.95    0.20
   4  -5   2    0.79    0.30
   4  -5   2    0.77    0.29
   4  -5   2    1.02    0.30
  -5   5  -2    0.50    0.28
  -5   5  -2   -0.32    0.15
  -5   5  -2    0.08    0.12
  -5   5  -2    0.25    0.22
  -5   5  -2   -0.18    0.19
   5  -5   2    0.02    0.23
   5  -5   2    0.25    0.27
   5  -5   2   -0.18    0.13
   5  -5   2   -0.11    0.24
  -6   5  -2    6.18    0.59
  -6   5  -2    5.50    0.71
  -6   5  -2    5.22    0.37
  -6   5  -2    5.59    0.63
  -6   5  -2    4.81    0.55
   6  -5   2    5.54    0.49
   6  -5   2    5.50    0.72
   6  -5   2    4.04    0.51
   6  -5   2    4.50    0.66
  -7   5  -2    1.20    0.39
  -7   5  -2    1.46    0.46
  -7   5  -2    1.69    0.55
   7  -5   2    1.61    0.47
   7  -5   2    1.19    0.48
  -8   5  -2    0.96    0.43
  -8   5  -2    1.19    0.49
   8  -5   2    2.06    0.54
   8  -5   2    0.75    0.46
  -9   5  -2    1.09    0.62
  -9   5  -2    1.05    0.49
   9  -5   2    0.85    0.52
   9  -5   2    0.79    0.47
   6   4  -2    0.79    0.45
   6   4  -2    0.07    0.27
  -6  -4   2   -0.22    0.37
  -6  -4   2    0.10    0.36
   5   4  -2    6.13    0.66
   5   4  -2    5.75    0.81
  -5  -4   2    6.40    0.90
  -5  -4   2    6.10    0.82
   4   4  -2    6.82    0.79
   4   4  -2    5.57    0.59
   4   4  -2    5.55    0.71
  -4  -4   2    5.06    0.72
  -4  -4   2    6.32    0.75
  -4  -4   2    5.82    0.68
   3   4  -2    0.06    0.22
   3   4  -2    0.64    0.31
   3   4  -2    0.66    0.24
   3   4  -2    0.80    0.24
  -3  -4   2    0.97    0.37
  -3  -4   2    0.86    0.34
  -3  -4   2    0.58    0.39
   2   4  -2    4.52    0.54
   2   4  -2    4.25    0.48
   2   4  -2    4.92    0.45
   2   4  -2    4.35    0.43
  -2  -4   2    4.43    0.49
  -2  -4   2    2.93    0.46
  -2  -4   2    4.45    0.62
   1   4  -2    3.97    0.42
   1   4  -2    3.67    0.39
   1   4  -2    3.46    0.34
   1   4  -2    3.55    0.42
  -1  -4   2    3.44    0.46
  -1  -4   2    3.88    0.53
  -1  -4   2    4.19    0.39
   0   4  -2    0.94    0.19
   0   4  -2    0.47    0.20
   0   4  -2    0.51    0.18
   0   4  -2    0.84    0.22
   0  -4   2    0.58    0.25
   0  -4   2    0.50    0.26
  -1   4  -2    1.12    0.22
  -1   4  -2    0.63    0.14
  -1   4  -2    0.82    0.23
  -1   4  -2    0.81    0.21
   1  -4   2    0.84    0.28
   1  -4   2    0.98    0.29
  -2   4  -2    4.95    0.45
  -2   4  -2    4.57    0.26
  -2   4  -2    5.09    0.38
  -2   4  -2    4.11    0.40
   2  -4   2    5.06    0.50
   2  -4   2    4.48    0.49
  -3   4  -2    0.46    0.19
  -3   4  -2    0.20    0.17
  -3   4  -2    0.21    0.11
  -3   4  -2    0.32    0.19
   3  -4   2    0.49    0.15
   3  -4   2    0.00    0.17
   3  -4   2    0.61    0.23
   3  -4   2    0.13    0.17
  -4   4  -2   14.38    0.65
  -4   4  -2   14.80    0.72
  -4   4  -2   14.78    0.66
  -4   4  -2   15.13    0.46
  -4   4  -2   14.45    0.63
   4  -4   2   15.41    0.67
   4  -4   2   15.72    0.68
   4  -4   2   14.87    0.77
   4  -4   2   15.10    0.78
   4  -4   2   14.66    0.55
  -5   4  -2    3.20    0.41
  -5   4  -2    3.71    0.55
  -5   4  -2    2.56    0.41
  -5   4  -2    3.18    0.38
  -5   4  -2    3.04    0.29
   5  -4   2    2.49    0.44
   5  -4   2    2.32    0.36
   5  -4   2    2.23    0.43
   5  -4   2    2.46    0.41
   5  -4   2    3.26    0.34
  -6   4  -2    1.53    0.44
  -6   4  -2    2.94    0.51
  -6   4  -2    2.06    0.41
  -6   4  -2    3.23    0.38
   6  -4   2    2.68    0.35
   6  -4   2    1.80    0.46
   6  -4   2    3.23    0.47
   6  -4   2    3.04    0.58
  -7   4  -2    0.07    0.30
  -7   4  -2    0.38    0.42
  -7   4  -2    0.01    0.32
   7  -4   2    0.17    0.37
   7  -4   2    0.18    0.26
   7  -4   2    0.19    0.34
   7  -4   2    0.12    0.22
  -8   4  -2   -0.27    0.29
  -8   4  -2    0.14    0.31
  -8   4  -2   -0.05    0.34
   8  -4   2    0.24    0.33
   8  -4   2   -0.04    0.21
   8  -4   2   -0.05    0.25
   8  -4   2   -0.21    0.29
  -9   4  -2   -0.29    0.53
  -9   4  -2    0.43    0.41
   9  -4   2   -0.10    0.35
   9  -4   2    0.30    0.45
   9  -4   2    0.57    0.33
   7   3  -2   -0.39    0.29
   7   3  -2    0.20    0.25
  -7  -3   2    0.05    0.35
  -7  -3   2   -0.07    0.34
   6   3  -2    1.61    0.50
   6   3  -2    0.97    0.32
   6   3  -2    1.52    0.48
  -6  -3   2    1.15    0.46
  -6  -3   2    1.33    0.48
   5   3  -2    0.10    0.33
   5   3  -2    0.14    0.25
   5   3  -2   -0.12    0.25
  -5  -3   2    0.21    0.32
  -5  -3   2    0.10    0.33
   4   3  -2    1.44    0.31
   4   3  -2    1.59    0.40
   4   3  -2    0.99    0.36
   4   3  -2    0.84    0.30
   4   3  -2    0.69    0.35
  -4  -3   2    0.47    0.28
  -4  -3   2    0.70    0.33
  -4  -3   2    1.46    0.41
   3   3  -2   -0.02    0.15
   3   3  -2    0.07    0.12
   3   3  -2    0.33    0.23
   3   3  -2   -0.25    0.13
   3   3  -2    0.14    0.20
  -3  -3   2    0.02    0.22
  -3  -3   2    0.01    0.22
  -3  -3   2    0.05    0.20
   2   3  -2    0.60    0.19
   2   3  -2    0.93    0.21
   2   3  -2    0.68    0.18
   2   3  -2    0.55    0.22
  -2  -3   2    0.95    0.31
  -2  -3   2    1.12    0.28
  -2  -3   2    0.99    0.27
   1   3  -2    7.25    0.42
   1   3  -2    8.00    0.47
   1   3  -2    7.04    0.37
   1   3  -2    6.70    0.41
  -1  -3   2    6.28    0.48
  -1  -3   2    7.40    0.52
   0   3  -2    3.38    0.34
   0   3  -2    3.39    0.26
   0   3  -2    3.57    0.25
   0   3  -2    3.42    0.32
   0  -3   2    3.26    0.40
   0  -3   2    3.94    0.45
  -1   3  -2    6.90    0.41
  -1   3  -2    7.53    0.32
  -1   3  -2    6.56    0.33
  -1   3  -2    5.39    0.39
   1  -3   2    6.92    0.48
   1  -3   2    6.77    0.48
  -2   3  -2    8.99    0.46
  -2   3  -2    9.89    0.44
  -2   3  -2    8.65    0.43
   2  -3   2    9.42    0.50
  -3   3  -2    1.20    0.24
  -3   3  -2    1.01    0.21
  -3   3  -2    0.95    0.19
  -3   3  -2    1.03    0.15
  -3   3  -2    0.87    0.24
   3  -3   2    0.93    0.24
   3  -3   2    1.23    0.23
   3  -3   2    0.87    0.25
   3  -3   2    0.93    0.18
   3  -3   2    0.79    0.21
  -4   3  -2    0.67    0.17
  -4   3  -2    0.69    0.24
  -4   3  -2    0.97    0.25
  -4   3  -2    1.09    0.31
   4  -3   2    0.74    0.24
   4  -3   2    0.98    0.29
   4  -3   2    0.96    0.29
   4  -3   2    0.96    0.25
   4  -3   2    1.11    0.21
   4  -3   2    1.21    0.23
  -5   3  -2    2.53    0.46
  -5   3  -2    2.05    0.27
  -5   3  -2    2.66    0.40
  -5   3  -2    2.48    0.37
   5  -3   2    2.66    0.29
   5  -3   2    2.19    0.39
   5  -3   2    2.21    0.37
   5  -3   2    3.24    0.37
   5  -3   2    2.99    0.53
   5  -3   2    2.28    0.46
  -6   3  -2    5.24    0.67
  -6   3  -2    5.82    0.70
   6  -3   2    6.16    0.62
   6  -3   2    4.87    0.70
   6  -3   2    6.11    0.55
   6  -3   2    5.79    0.72
  -7   3  -2    0.30    0.42
  -7   3  -2    0.72    0.42
   7  -3   2    0.53    0.40
   7  -3   2    0.31    0.30
   7  -3   2    0.98    0.45
   7  -3   2    0.66    0.27
  -8   3  -2    0.00    0.33
  -8   3  -2   -0.23    0.28
  -8   3  -2   -0.41    0.43
   8  -3   2   -0.05    0.19
   8  -3   2    0.37    0.40
   8  -3   2    0.07    0.34
   8  -3   2   -0.17    0.26
  -9   3  -2   -0.23    0.34
  -9   3  -2    0.49    0.53
  -9   3  -2    0.05    0.34
   9  -3   2   -0.20    0.32
   9  -3   2   -0.13    0.34
   9  -3   2    0.05    0.27
   9  -3   2    0.03    0.43
   8   2  -2    0.22    0.43
   8   2  -2    0.76    0.40
   8   2  -2    0.32    0.39
  -8  -2   2   -0.19    0.49
  -8  -2   2    0.00    0.31
  -8  -2   2   -0.49    0.25
   7   2  -2   -0.08    0.25
   7   2  -2   -0.21    0.32
   7   2  -2   -0.04    0.35
  -7  -2   2    0.07    0.28
  -7  -2   2   -0.39    0.35
   6   2  -2    1.41    0.34
   6   2  -2    0.74    0.42
   6   2  -2    0.64    0.36
   6   2  -2    0.65    0.36
  -6  -2   2    0.46    0.41
  -6  -2   2    1.17    0.43
   5   2  -2    1.14    0.28
   5   2  -2    2.09    0.48
   5   2  -2    1.16    0.37
   5   2  -2    2.27    0.45
  -5  -2   2    2.58    0.52
  -5  -2   2    1.62    0.40
   4   2  -2    2.22    0.37
   4   2  -2    1.89    0.35
   4   2  -2    2.29    0.44
   4   2  -2    1.93    0.30
  -4  -2   2    2.36    0.36
  -4  -2   2    1.50    0.37
  -4  -2   2    2.29    0.43
   3   2  -2    8.73    0.46
   3   2  -2    7.78    0.51
   3   2  -2    8.57    0.57
   3   2  -2    8.02    0.49
   3   2  -2    8.38    0.56
  -3  -2   2    8.39    0.58
  -3  -2   2    8.62    0.58
  -3  -2   2    8.79    0.55
   2   2  -2   10.09    0.51
   2   2  -2   11.37    0.51
   2   2  -2   11.15    0.46
  -2  -2   2   11.01    0.55
  -2  -2   2   10.46    0.55
  -2  -2   2   10.28    0.56
   1   2  -2   18.73    0.51
   1   2  -2   17.58    0.48
   1   2  -2   18.64    0.61
  -1  -2   2   18.13    0.67
  -1  -2   2   18.71    0.66
   0   2  -2   83.70    1.14
   0   2  -2   81.77    0.80
   0  -2   2   83.14    1.26
   0  -2   2   82.30    1.25
  -1   2  -2    2.83    0.23
  -1   2  -2    3.59    0.32
   1  -2   2    3.52    0.33
  -2   2  -2   13.22    0.49
  -2   2  -2   12.85    0.50
   2  -2   2   12.62    0.50
  -3   2  -2   10.20    0.53
  -3   2  -2   10.86    0.53
  -3   2  -2   10.33    0.52
   3  -2   2    9.14    0.55
   3  -2   2   11.09    0.56
   3  -2   2   10.45    0.44
   3  -2   2    9.87    0.59
   3  -2   2   11.05    0.52
  -4   2  -2   47.36    1.22
  -4   2  -2   48.24    1.26
   4  -2   2   48.19    1.00
   4  -2   2   47.59    1.23
   4  -2   2   47.90    1.32
   4  -2   2   47.27    1.36
   4  -2   2   47.79    1.15
  -5   2  -2    0.76    0.28
  -5   2  -2    0.56    0.34
   5  -2   2    0.64    0.31
   5  -2   2    0.55    0.29
   5  -2   2    0.90    0.35
   5  -2   2    0.59    0.24
   5  -2   2    0.60    0.21
  -6   2  -2    0.87    0.41
  -6   2  -2    0.64    0.37
   6  -2   2    0.53    0.31
   6  -2   2    0.93    0.27
   6  -2   2    0.63    0.38
   6  -2   2    0.83    0.41
  -7   2  -2    0.57    0.38
  -7   2  -2    0.35    0.36
  -7   2  -2    0.40    0.44
   7  -2   2    0.34    0.27
   7  -2   2    0.24    0.35
   7  -2   2    0.25    0.32
   7  -2   2    0.56    0.33
  -8   2  -2    0.25    0.32
  -8   2  -2    0.15    0.29
  -8   2  -2   -0.32    0.37
   8  -2   2    0.44    0.45
   8  -2   2    0.01    0.28
   8  -2   2    0.25    0.37
   8  -2   2    0.60    0.31
  -9   2  -2    0.11    0.33
  -9   2  -2   -0.11    0.58
  -9   2  -2    0.42    0.43
   9  -2   2    0.28    0.30
   9  -2   2    0.18    0.42
   9  -2   2   -0.09    0.37
   9  -2   2    0.15    0.37
   8   1  -2    0.69    0.38
   8   1  -2    0.78    0.47
   8   1  -2    0.77    0.33
   8   1  -2    1.46    0.51
  -8  -1   2    1.65    0.53
  -8  -1   2    0.10    0.36
  -8  -1   2    0.39    0.47
   7   1  -2    2.90    0.49
   7   1  -2    2.77    0.57
   7   1  -2    4.07    0.72
   7   1  -2    2.63    0.54
  -7  -1   2    3.88    0.70
  -7  -1   2    3.20    0.67
  -7  -1   2    2.78    0.55
   6   1  -2    0.26    0.31
   6   1  -2    0.25    0.34
   6   1  -2   -0.09    0.25
   6   1  -2   -0.18    0.19
  -6  -1   2    0.26    0.35
  -6  -1   2    0.10    0.32
  -6  -1   2    0.23    0.29
   5   1  -2    8.39    0.75
   5   1  -2    9.55    0.75
   5   1  -2    7.75    0.52
   5   1  -2    8.09    0.62
  -5  -1   2    9.57    0.86
  -5  -1   2    7.84    0.62
  -5  -1   2    8.76    0.53
   4   1  -2    9.61    0.57
   4   1  -2   10.61    0.64
   4   1  -2   10.44    0.70
   4   1  -2   10.29    0.51
  -4  -1   2    9.23    0.64
  -4  -1   2   11.45    0.63
  -4  -1   2   10.68    0.56
   3   1  -2   42.16    0.85
   3   1  -2   43.29    1.02
   3   1  -2   42.94    1.05
   3   1  -2   43.62    1.16
  -3  -1   2   43.13    1.12
  -3  -1   2   42.31    0.98
  -3  -1   2   42.53    1.02
   2   1  -2    2.97    0.26
   2   1  -2    3.25    0.30
  -2  -1   2    2.45    0.29
  -2  -1   2    3.02    0.33
   1   1  -2   10.76    0.43
  -1  -1   2   11.91    0.50
  -1  -1   2   11.29    0.45
   0   1  -2    2.74    0.24
  -1   1  -2  161.18    1.48
   1  -1   2  163.30    1.51
   2  -1   2  115.91    1.29
   2  -1   2  117.33    1.48
  -3   1  -2   88.42    1.55
   3  -1   2   92.55    1.69
   3  -1   2   89.63    1.49
   3  -1   2   90.09    1.58
   3  -1   2   90.20    1.61
   3  -1   2   89.65    1.30
  -4   1  -2    0.48    0.23
   4  -1   2    0.51    0.23
   4  -1   2    0.63    0.24
   4  -1   2    0.08    0.25
   4  -1   2    0.48    0.16
   4  -1   2    0.71    0.29
  -5   1  -2    0.08    0.22
  -5   1  -2    0.80    0.31
  -5   1  -2   -0.14    0.20
   5  -1   2    0.05    0.14
   5  -1   2    0.23    0.24
   5  -1   2    0.12    0.28
   5  -1   2    0.04    0.25
  -6   1  -2   -0.16    0.23
  -6   1  -2   -0.05    0.25
  -6   1  -2   -0.05    0.36
   6  -1   2   -0.27    0.29
   6  -1   2   -0.04    0.28
   6  -1   2   -0.23    0.17
   6  -1   2   -0.19    0.23
  -7   1  -2    2.13    0.65
  -7   1  -2    1.55    0.49
  -7   1  -2    1.40    0.44
   7  -1   2    1.26    0.36
   7  -1   2    2.19    0.54
   7  -1   2    2.34    0.56
   7  -1   2    2.63    0.57
  -8   1  -2    1.90    0.63
  -8   1  -2    1.37    0.67
  -8   1  -2    1.05    0.52
   8  -1   2    0.39    0.38
   8  -1   2    0.68    0.34
   8  -1   2    0.80    0.49
   8  -1   2    1.19    0.52
   9   0  -2    2.39    0.63
   9   0  -2    0.97    0.36
   9   0  -2    0.83    0.53
  -9   0   2    1.97    0.65
  -9   0   2    0.14    0.36
   8   0  -2    0.32    0.39
   8   0  -2    1.34    0.37
   8   0  -2    0.47    0.28
   8   0  -2    0.69    0.48
  -8   0   2   -0.03    0.37
  -8   0   2    0.48    0.40
   7   0  -2    2.47    0.59
   7   0  -2    3.11    0.65
   7   0  -2    2.49    0.42
   7   0  -2    2.71    0.48
  -7   0   2    2.22    0.59
  -7   0   2    2.97    0.63
  -7   0   2    3.04    0.54
   6   0  -2    0.41    0.38
   6   0  -2   -0.20    0.30
   6   0  -2    0.32    0.25
   6   0  -2    0.65    0.22
  -6   0   2   -0.07    0.33
  -6   0   2    0.41    0.36
  -6   0   2    0.31    0.26
   5   0  -2   74.64    1.88
   5   0  -2   74.58    1.33
   5   0  -2   73.69    1.71
   5   0  -2   73.24    1.48
  -5   0   2   75.64    1.52
  -5   0   2   73.89    1.63
  -5   0   2   74.41    1.80
  -5   0   2   72.38    1.34
   4   0  -2   11.96    0.54
   4   0  -2   12.46    0.74
   4   0  -2   11.09    0.66
   4   0  -2   11.76    0.49
  -4   0   2   11.98    0.55
  -4   0   2   11.67    0.55
  -4   0   2   10.83    0.67
  -4   0   2   11.24    0.60
   3   0  -2    0.47    0.19
   3   0  -2    0.04    0.09
   3   0  -2    0.05    0.18
   3   0  -2   -0.22    0.09
  -3   0   2    0.20    0.12
  -3   0   2    0.14    0.14
  -3   0   2    0.28    0.18
  -3   0   2    0.26    0.19
   2   0  -2   12.70    0.39
  -2   0   2   12.63    0.37
  -2   0   2   12.67    0.43
  -2   0   2   11.79    0.50
   1   0  -2   99.85    0.92
  -1   0   2   99.97    0.80
   0   0  -2  136.85    1.20
   0   0   2  137.60    0.98
   0   0   2  139.58    1.22
   1   0   2  977.09    3.64
   1   0   2  971.77    3.90
  -2   0  -2   31.79    0.86
   2   0   2   32.83    0.86
   2   0   2   31.62    0.86
   2   0   2   31.81    0.85
   2   0   2   32.11    0.73
  -3   0  -2    1.62    0.32
  -3   0  -2    1.60    0.31
   3   0   2    2.22    0.36
   3   0   2    2.25    0.35
   3   0   2    2.39    0.39
   3   0   2    1.59    0.24
   3   0   2    2.34    0.35
  -4   0  -2    5.45    0.60
  -4   0  -2    4.65    0.56
   4   0   2    4.57    0.56
   4   0   2    4.15    0.50
   4   0   2    4.53    0.55
   4   0   2    4.19    0.41
   4   0   2    4.30    0.52
  -5   0  -2    3.73    0.62
  -5   0  -2    4.09    0.59
   5   0   2    3.16    0.56
   5   0   2    3.98    0.61
   5   0   2    4.08    0.49
   5   0   2    4.53    0.62
  -6   0  -2   -0.52    0.26
  -6   0  -2   -0.37    0.26
   6   0   2   -0.02    0.31
   6   0   2   -0.03    0.28
   6   0   2   -0.08    0.21
   6   0   2   -0.44    0.22
  -7   0  -2    4.91    0.81
  -7   0  -2    3.96    0.74
   7   0   2    4.48    0.71
   7   0   2    4.31    0.77
   7   0   2    4.00    0.57
   7   0   2    3.94    0.69
  -8   0  -2    0.08    0.41
  -8   0  -2    0.33    0.51
  -8   0  -2    0.03    0.36
   8   0   2    0.39    0.47
   8   0   2    0.07    0.36
   8   0   2    0.01    0.36
   8   0   2    0.05    0.29
   9  -1  -2   -0.52    0.31
   9  -1  -2   -0.14    0.38
   9  -1  -2   -0.16    0.18
  -9   1   2    1.63    0.63
  -9   1   2   -0.20    0.36
   8  -1  -2    0.25    0.36
   8  -1  -2   -0.06    0.20
   8  -1  -2    0.23    0.40
  -8   1   2    0.00    0.30
  -8   1   2    0.46    0.46
   7  -1  -2   30.99    1.48
   7  -1  -2   31.94    1.02
   7  -1  -2   31.33    1.40
   7  -1  -2   30.28    1.07
  -7   1   2   32.19    1.43
  -7   1   2   28.76    1.39
   6  -1  -2    0.97    0.23
   6  -1  -2    1.00    0.26
   6  -1  -2    1.54    0.45
   6  -1  -2    1.16    0.43
  -6   1   2    0.89    0.28
  -6   1   2    0.68    0.35
  -6   1   2    0.46    0.33
   5  -1  -2    2.57    0.48
   5  -1  -2    3.25    0.35
   5  -1  -2    3.59    0.34
   5  -1  -2    1.91    0.40
  -5   1   2    3.44    0.49
  -5   1   2    3.95    0.41
  -5   1   2    3.18    0.38
  -5   1   2    2.59    0.42
  -5   1   2    3.34    0.35
   4  -1  -2   22.36    0.56
   4  -1  -2   24.21    0.97
   4  -1  -2   22.89    0.90
   4  -1  -2   22.40    0.60
  -4   1   2   23.14    0.58
  -4   1   2   22.42    0.76
  -4   1   2   22.08    0.67
  -4   1   2   22.35    0.86
  -4   1   2   22.58    0.82
   3  -1  -2    7.38    0.51
   3  -1  -2    7.31    0.51
   3  -1  -2    7.10    0.27
  -3   1   2    7.23    0.24
  -3   1   2    7.52    0.45
  -3   1   2    7.33    0.44
  -3   1   2    6.41    0.43
   2  -1  -2   14.77    0.29
  -2   1   2   14.41    0.57
  -2   1   2   15.06    0.50
   1  -1  -2  380.48    1.73
   1  -1  -2  384.60    1.68
  -1   1   2  386.20    1.69
  -1   1   2  390.61    2.18
   0  -1  -2  207.93    1.78
   0   1   2  206.20    1.63
   0   1   2  204.37    1.75
  -1  -1  -2   10.73    0.54
   1   1   2   11.15    0.42
   1   1   2   11.59    0.51
   1   1   2   10.56    0.48
  -2  -1  -2   29.97    0.89
  -2  -1  -2   28.21    0.94
   2   1   2   28.15    0.76
   2   1   2   27.07    0.87
   2   1   2   26.95    0.87
   2   1   2   27.64    0.87
   2   1   2   28.35    0.88
  -3  -1  -2    0.28    0.21
  -3  -1  -2    0.39    0.25
   3   1   2   -0.02    0.19
   3   1   2    0.04    0.18
   3   1   2    0.19    0.16
   3   1   2    0.29    0.24
   3   1   2    0.34    0.21
   3   1   2    0.42    0.22
  -4  -1  -2    0.02    0.27
  -4  -1  -2   -0.19    0.18
   4   1   2    0.12    0.19
   4   1   2   -0.26    0.20
   4   1   2    0.25    0.24
   4   1   2    0.10    0.23
   4   1   2   -0.22    0.22
  -5  -1  -2    1.19    0.45
  -5  -1  -2    1.45    0.41
   5   1   2    1.61    0.35
   5   1   2    2.14    0.49
   5   1   2    1.64    0.44
   5   1   2    2.23    0.50
  -6  -1  -2    0.12    0.30
  -6  -1  -2    0.10    0.30
   6   1   2    0.55    0.40
   6   1   2    0.19    0.33
   6   1   2    0.37    0.25
   6   1   2    0.32    0.33
  -7  -1  -2    0.59    0.40
  -7  -1  -2    0.44    0.41
   7   1   2    0.68    0.44
   7   1   2    0.74    0.33
   7   1   2   -0.03    0.37
   9  -2  -2    4.95    0.86
   9  -2  -2    5.85    0.98
  -9   2   2    5.17    0.82
  -9   2   2    4.95    0.90
   8  -2  -2    1.98    0.58
   8  -2  -2    2.16    0.59
   8  -2  -2    2.97    0.42
  -8   2   2    2.19    0.58
  -8   2   2    2.21    0.63
   7  -2  -2    0.75    0.46
   7  -2  -2    0.64    0.42
   7  -2  -2    0.80    0.23
  -7   2   2    0.56    0.40
  -7   2   2    0.95    0.46
   6  -2  -2    4.74    0.36
   6  -2  -2    4.42    0.62
   6  -2  -2    6.02    0.76
   6  -2  -2    5.36    0.41
  -6   2   2    5.19    0.64
  -6   2   2    5.55    0.69
  -6   2   2    6.25    0.47
   5  -2  -2    4.42    0.61
   5  -2  -2    4.54    0.30
   5  -2  -2    4.21    0.27
   5  -2  -2    4.00    0.54
  -5   2   2    4.30    0.52
  -5   2   2    4.81    0.45
  -5   2   2    3.90    0.49
   4  -2  -2   -0.05    0.07
   4  -2  -2    0.12    0.22
   4  -2  -2   -0.09    0.20
  -4   2   2   -0.02    0.07
  -4   2   2    0.34    0.20
  -4   2   2    0.01    0.19
  -4   2   2   -0.01    0.12
   3  -2  -2   20.02    0.78
   3  -2  -2   21.01    0.78
  -3   2   2   21.44    0.71
  -3   2   2   20.61    0.69
   2  -2  -2  116.24    0.68
   2  -2  -2  116.39    0.88
  -2   2   2  115.99    1.51
  -2   2   2  113.06    1.48
  -2   2   2  117.50    0.69
   1  -2  -2   27.09    0.63
   1  -2  -2   25.69    0.77
  -1   2   2   25.45    0.72
  -1   2   2   26.59    0.70
  -1   2   2   26.46    0.55
   0  -2  -2    0.40    0.17
   0  -2  -2    0.46    0.19
   0   2   2    0.48    0.16
   0   2   2    0.60    0.14
   0   2   2    0.30    0.15
  -1  -2  -2    0.99    0.21
  -1  -2  -2    0.92    0.22
  -1  -2  -2    0.95    0.27
   1   2   2    1.85    0.25
   1   2   2    0.88    0.24
   1   2   2    1.21    0.24
   1   2   2    0.75    0.21
  -2  -2  -2    4.33    0.36
  -2  -2  -2    3.24    0.46
  -2  -2  -2    4.02    0.45
   2   2   2    3.82    0.47
   2   2   2    4.40    0.45
   2   2   2    4.28    0.46
   2   2   2    3.99    0.40
   2   2   2    3.92    0.44
  -3  -2  -2    1.18    0.38
  -3  -2  -2    0.96    0.29
  -3  -2  -2    0.84    0.22
   3   2   2    1.31    0.33
   3   2   2    0.65    0.26
   3   2   2    1.17    0.33
   3   2   2    0.20    0.24
   3   2   2    0.61    0.23
  -4  -2  -2   -0.03    0.27
  -4  -2  -2    0.29    0.30
   4   2   2    0.42    0.22
   4   2   2    0.17    0.24
   4   2   2   -0.17    0.22
   4   2   2    0.21    0.26
   4   2   2   -0.09    0.26
  -5  -2  -2   -0.18    0.31
  -5  -2  -2    0.07    0.32
   5   2   2    0.03    0.27
   5   2   2    0.11    0.24
   5   2   2   -0.02    0.28
  -6  -2  -2    0.88    0.38
  -6  -2  -2    1.29    0.50
   6   2   2    1.66    0.52
   6   2   2    2.11    0.54
   6   2   2    2.25    0.49
  -7  -2  -2    0.53    0.46
  -7  -2  -2   -0.02    0.32
   7   2   2    0.90    0.48
   7   2   2    0.19    0.31
  10  -3  -2    0.16    0.46
  10  -3  -2    0.57    0.53
   9  -3  -2   -0.34    0.36
   9  -3  -2    0.29    0.45
  -9   3   2   -0.08    0.41
  -9   3   2    0.35    0.40
   8  -3  -2   -0.73    0.31
   8  -3  -2    0.24    0.31
  -8   3   2    0.06    0.36
  -8   3   2   -0.13    0.31
   7  -3  -2    2.48    0.45
   7  -3  -2    2.09    0.51
   7  -3  -2    1.37    0.49
  -7   3   2    2.61    0.56
  -7   3   2    2.44    0.52
  -7   3   2    2.35    0.41
   6  -3  -2    0.31    0.30
   6  -3  -2    0.29    0.30
   6  -3  -2    0.46    0.27
  -6   3   2    0.02    0.19
  -6   3   2    0.23    0.29
  -6   3   2    0.17    0.28
   5  -3  -2   13.14    0.84
   5  -3  -2   12.79    0.79
   5  -3  -2   12.27    0.69
  -5   3   2   13.26    0.67
  -5   3   2   11.74    0.73
  -5   3   2   12.93    0.69
   4  -3  -2   10.52    0.66
   4  -3  -2   10.47    0.68
   4  -3  -2   10.24    0.62
  -4   3   2   10.29    0.62
  -4   3   2   10.59    0.56
  -4   3   2   10.21    0.54
   3  -3  -2   -0.06    0.18
   3  -3  -2    0.06    0.20
   3  -3  -2    0.04    0.17
   3  -3  -2    0.21    0.11
  -3   3   2    0.30    0.17
  -3   3   2    0.19    0.16
   2  -3  -2   20.39    0.80
   2  -3  -2   21.42    0.58
  -2   3   2   21.77    0.46
  -2   3   2   20.91    0.76
   1  -3  -2    1.16    0.24
   1  -3  -2    1.14    0.25
  -1   3   2    1.36    0.25
  -1   3   2    1.31    0.26
  -1   3   2    1.29    0.20
   0  -3  -2    0.72    0.24
   0  -3  -2    0.58    0.22
   0   3   2    0.45    0.18
   0   3   2    0.55    0.15
   0   3   2    0.61    0.23
   0   3   2    0.56    0.19
  -1  -3  -2    4.50    0.47
  -1  -3  -2    3.90    0.40
  -1  -3  -2    4.27    0.53
   1   3   2    3.94    0.46
   1   3   2    3.90    0.47
   1   3   2    4.12    0.43
   1   3   2    4.42    0.36
   1   3   2    3.90    0.37
  -2  -3  -2    2.44    0.37
  -2  -3  -2    3.37    0.45
  -2  -3  -2    2.69    0.46
   2   3   2    3.56    0.45
   2   3   2    3.26    0.33
   2   3   2    3.21    0.51
   2   3   2    3.29    0.47
   2   3   2    3.11    0.38
  -3  -3  -2   -0.12    0.23
  -3  -3  -2    0.12    0.31
   3   3   2    0.76    0.31
   3   3   2   -0.04    0.28
   3   3   2    0.68    0.31
   3   3   2    0.03    0.20
  -4  -3  -2    1.53    0.51
  -4  -3  -2    1.01    0.39
   4   3   2    1.16    0.46
   4   3   2    1.16    0.41
   4   3   2    1.64    0.40
  -5  -3  -2    0.03    0.30
  -5  -3  -2   -0.24    0.30
   5   3   2    0.12    0.34
   5   3   2   -0.18    0.20
   5   3   2    0.20    0.35
  -6  -3  -2   -0.01    0.39
  -6  -3  -2    0.15    0.36
   6   3   2    0.35    0.39
   6   3   2   -0.26    0.26
  10  -4  -2   -0.06    0.45
  10  -4  -2   -0.34    0.36
 -10   4   2   -0.21    0.39
 -10   4   2   -0.09    0.35
   9  -4  -2    0.50    0.45
   9  -4  -2    0.31    0.47
  -9   4   2   -0.06    0.35
  -9   4   2   -0.57    0.37
   8  -4  -2   -0.14    0.30
   8  -4  -2    0.11    0.36
  -8   4   2    0.20    0.33
  -8   4   2    0.15    0.36
   7  -4  -2    1.77    0.44
   7  -4  -2    1.71    0.57
   7  -4  -2    1.29    0.49
  -7   4   2    1.80    0.51
  -7   4   2    2.23    0.52
  -7   4   2    1.35    0.34
   6  -4  -2   -0.09    0.24
   6  -4  -2   -0.06    0.33
   6  -4  -2    0.10    0.28
  -6   4   2   -0.28    0.21
  -6   4   2   -0.33    0.27
  -6   4   2   -0.16    0.20
   5  -4  -2    0.76    0.32
   5  -4  -2    1.89    0.43
   5  -4  -2    1.96    0.43
  -5   4   2    1.17    0.31
  -5   4   2    1.23    0.35
  -5   4   2    1.62    0.35
   4  -4  -2    2.08    0.39
   4  -4  -2    2.59    0.42
   4  -4  -2    1.94    0.38
  -4   4   2    3.18    0.46
  -4   4   2    1.84    0.32
   3  -4  -2    1.24    0.28
   3  -4  -2    0.96    0.22
   3  -4  -2    0.99    0.27
   3  -4  -2    1.08    0.29
  -3   4   2    0.61    0.24
  -3   4   2    1.00    0.13
  -3   4   2    0.89    0.24
   2  -4  -2    3.69    0.40
   2  -4  -2    3.17    0.46
  -2   4   2    3.59    0.32
  -2   4   2    3.95    0.47
  -2   4   2    3.09    0.43
   1  -4  -2    2.86    0.44
   1  -4  -2    1.60    0.31
  -1   4   2    1.63    0.32
  -1   4   2    1.85    0.29
  -1   4   2    1.34    0.29
  -1   4   2    2.09    0.24
   0  -4  -2   13.45    0.76
   0  -4  -2   13.24    0.76
   0   4   2   12.83    0.54
   0   4   2   13.15    0.69
   0   4   2   14.60    0.82
   0   4   2   13.04    0.64
  -1  -4  -2    5.96    0.58
  -1  -4  -2    5.14    0.63
  -1  -4  -2    5.36    0.50
   1   4   2    6.51    0.62
   1   4   2    5.80    0.50
   1   4   2    5.44    0.62
   1   4   2    5.77    0.45
  -2  -4  -2   -0.18    0.25
  -2  -4  -2    0.31    0.33
  -2  -4  -2    0.00    0.23
   2   4   2   -0.32    0.26
   2   4   2    0.06    0.16
   2   4   2   -0.21    0.22
  -3  -4  -2    0.30    0.37
  -3  -4  -2    0.27    0.30
   3   4   2    0.36    0.26
   3   4   2   -0.34    0.26
   3   4   2    0.21    0.29
  -4  -4  -2    0.11    0.37
  -4  -4  -2   -0.18    0.28
   4   4   2   -0.37    0.30
   4   4   2    0.51    0.30
   4   4   2   -0.31    0.25
  -5  -4  -2    0.17    0.36
  -5  -4  -2    0.66    0.40
   5   4   2    0.27    0.40
   5   4   2    0.15    0.30
   5   4   2   -0.63    0.40
   9  -5  -2    2.65    0.70
   9  -5  -2    1.65    0.58
  -9   5   2    2.78    0.64
  -9   5   2    2.76    0.69
   8  -5  -2    0.35    0.41
   8  -5  -2    0.43    0.39
  -8   5   2   -0.01    0.34
  -8   5   2    0.25    0.35
  -8   5   2    0.38    0.29
   7  -5  -2   -0.27    0.26
   7  -5  -2    0.41    0.38
   7  -5  -2    0.13    0.38
  -7   5   2    0.23    0.30
  -7   5   2   -0.12    0.21
   6  -5  -2    0.73    0.35
   6  -5  -2    0.45    0.33
   6  -5  -2    0.61    0.38
  -6   5   2    0.18    0.31
  -6   5   2    0.78    0.31
   5  -5  -2    0.61    0.33
   5  -5  -2    0.61    0.31
   5  -5  -2    0.42    0.32
  -5   5   2    0.35    0.26
  -5   5   2    0.17    0.26
   4  -5  -2    1.00    0.34
   4  -5  -2    0.90    0.32
   4  -5  -2    1.51    0.41
  -4   5   2    1.21    0.34
  -4   5   2    0.67    0.27
   3  -5  -2    0.12    0.21
   3  -5  -2    0.27    0.25
   3  -5  -2    0.53    0.33
   3  -5  -2    0.83    0.27
  -3   5   2    0.39    0.26
  -3   5   2    0.24    0.25
   2  -5  -2    8.59    0.70
   2  -5  -2    8.63    0.59
   2  -5  -2    8.39    0.59
  -2   5   2    7.48    0.60
  -2   5   2    8.63    0.50
  -2   5   2    7.54    0.62
   1  -5  -2    6.41    0.71
   1  -5  -2    7.48    0.62
  -1   5   2    6.53    0.57
  -1   5   2    6.28    0.40
  -1   5   2    5.87    0.67
  -1   5   2    7.28    0.57
   0  -5  -2    2.66    0.49
   0  -5  -2    2.78    0.48
   0   5   2    2.18    0.37
   0   5   2    2.31    0.46
   0   5   2    2.95    0.37
   0   5   2    3.33    0.50
  -1  -5  -2    4.87    0.71
  -1  -5  -2    3.33    0.54
   1   5   2    6.24    0.57
   1   5   2    5.15    0.56
   1   5   2    4.61    0.61
   1   5   2    4.56    0.68
  -2  -5  -2   -0.32    0.28
  -2  -5  -2    0.01    0.31
   2   5   2    0.38    0.31
   2   5   2   -0.25    0.27
   2   5   2    0.07    0.20
  -3  -5  -2    0.41    0.43
   3   5   2   -0.02    0.31
   3   5   2    0.01    0.25
   3   5   2   -0.22    0.32
  -4  -5  -2    1.17    0.55
   4   5   2    0.99    0.53
   4   5   2    0.60    0.39
   4   5   2    1.01    0.53
   9  -6  -2    0.69    0.52
   9  -6  -2   -0.08    0.42
  -9   6   2    0.83    0.39
  -9   6   2    0.58    0.49
   8  -6  -2   -0.06    0.34
   8  -6  -2   -0.32    0.34
   8  -6  -2    0.88    0.48
  -8   6   2    0.64    0.42
  -8   6   2    0.68    0.37
   7  -6  -2   -0.16    0.33
   7  -6  -2    0.22    0.33
   7  -6  -2    0.00    0.34
  -7   6   2    0.10    0.24
  -7   6   2    0.34    0.34
   6  -6  -2    0.67    0.39
   6  -6  -2    1.21    0.46
   6  -6  -2    1.48    0.46
  -6   6   2    1.82    0.49
  -6   6   2    1.38    0.40
   5  -6  -2    2.23    0.48
   5  -6  -2    1.14    0.44
   5  -6  -2    1.24    0.41
  -5   6   2    1.81    0.44
  -5   6   2    1.91    0.45
   4  -6  -2   -0.17    0.30
   4  -6  -2   -0.37    0.24
  -4   6   2   -0.12    0.22
  -4   6   2   -0.15    0.25
   3  -6  -2    0.38    0.28
   3  -6  -2   -0.24    0.27
  -3   6   2    0.24    0.27
  -3   6   2    0.18    0.26
   2  -6  -2   28.92    1.16
   2  -6  -2   25.92    1.24
  -2   6   2   27.58    1.21
  -2   6   2   26.80    1.13
   1  -6  -2    3.12    0.56
   1  -6  -2    3.97    0.60
  -1   6   2    4.43    0.58
  -1   6   2    3.62    0.61
  -1   6   2    3.09    0.48
   0  -6  -2   -0.06    0.32
   0  -6  -2   -0.04    0.31
   0   6   2   -0.18    0.24
   0   6   2   -0.19    0.22
   0   6   2   -0.13    0.24
   0   6   2   -0.39    0.15
  -1  -6  -2    0.16    0.31
  -1  -6  -2    0.32    0.39
   1   6   2    0.54    0.35
   1   6   2    0.81    0.40
   1   6   2    0.28    0.22
  -2  -6  -2    0.57    0.38
   2   6   2    0.06    0.25
   2   6   2   -0.24    0.24
   2   6   2    0.09    0.34
  -3  -6  -2    1.40    0.54
   3   6   2    1.33    0.46
   3   6   2    0.82    0.56
   3   6   2    0.36    0.37
   9  -7  -2    1.18    0.58
   9  -7  -2   -0.02    0.48
  -9   7   2   -0.07    0.43
  -9   7   2    0.66    0.40
   8  -7  -2    0.68    0.48
   8  -7  -2    0.28    0.40
   8  -7  -2    0.69    0.47
  -8   7   2    1.16    0.52
  -8   7   2    0.76    0.40
   7  -7  -2    0.76    0.44
   7  -7  -2   -0.32    0.30
  -7   7   2    0.26    0.33
  -7   7   2    0.71    0.39
   6  -7  -2   -0.04    0.29
   6  -7  -2    0.06    0.35
  -6   7   2   -0.22    0.24
  -6   7   2    0.00    0.27
   5  -7  -2    1.27    0.47
  -5   7   2    0.49    0.37
  -5   7   2    1.27    0.43
   4  -7  -2   24.84    1.37
  -4   7   2   25.72    1.27
  -4   7   2   25.74    1.21
   3  -7  -2    1.53    0.47
  -3   7   2    1.54    0.44
  -3   7   2    2.70    0.56
   2  -7  -2    0.16    0.34
   2  -7  -2   -0.07    0.24
  -2   7   2   -0.04    0.21
  -2   7   2   -0.11    0.26
   1  -7  -2    0.29    0.35
   1  -7  -2    0.30    0.39
  -1   7   2    0.01    0.27
  -1   7   2   -0.01    0.29
   0  -7  -2    0.26    0.40
   0  -7  -2    0.31    0.37
   0   7   2    0.10    0.31
   0   7   2    0.18    0.28
   0   7   2   -0.15    0.23
  -1  -7  -2   -0.11    0.36
  -1  -7  -2    0.36    0.40
   1   7   2    0.43    0.39
   1   7   2    0.10    0.31
  -2  -7  -2    0.30    0.46
   2   7   2   -0.07    0.32
   2   7   2    0.29    0.44
   2   7   2    0.32    0.44
   8  -8  -2   -0.43    0.40
   8  -8  -2   -0.66    0.33
  -8   8   2   -0.21    0.32
  -8   8   2   -0.18    0.28
   7  -8  -2    0.91    0.59
  -7   8   2    1.11    0.41
  -7   8   2    1.07    0.46
   6  -8  -2    3.80    0.78
  -6   8   2    4.63    0.82
  -6   8   2    5.32    0.73
   5  -8  -2    5.66    0.90
  -5   8   2    6.86    0.95
  -5   8   2    5.85    0.80
   4  -8  -2   -0.44    0.35
  -4   8   2   -0.01    0.34
  -4   8   2    0.09    0.26
   3  -8  -2    0.05    0.36
  -3   8   2   -0.25    0.33
  -3   8   2   -0.08    0.24
   2  -8  -2    1.80    0.53
   2  -8  -2    0.68    0.47
  -2   8   2    0.65    0.38
  -2   8   2    2.97    0.71
   1  -8  -2    0.34    0.47
   1  -8  -2    0.07    0.36
  -1   8   2    1.21    0.49
  -1   8   2    0.42    0.33
   0  -8  -2    0.59    0.45
   0  -8  -2    0.59    0.48
   0   8   2    0.25    0.39
   6  -9  -2   -0.04    0.46
  -6   9   2    0.31    0.34
  -6   9   2    0.09    0.39
   5  -9  -2   -0.61    0.38
  -5   9   2   -0.09    0.30
  -5   9   2   -0.30    0.33
   4  -9  -2    0.36    0.49
  -4   9   2    0.51    0.37
  -4   9   2    0.31    0.47
   3  -9  -2    0.73    0.49
  -3   9   2    1.32    0.44
  -3   9   2    2.08    0.63
  -2  10  -3    0.29    0.33
  -2  10  -3    0.32    0.35
  -2  10  -3   -0.40    0.33
   2 -10   3   -0.06    0.46
   2 -10   3   -0.14    0.52
  -3  10  -3    0.58    0.43
  -3  10  -3    0.08    0.26
   3 -10   3    0.19    0.47
   3 -10   3    0.73    0.61
  -4  10  -3    2.73    0.59
  -4  10  -3    1.65    0.46
   4 -10   3    1.84    0.69
  -5  10  -3   -0.07    0.28
  -5  10  -3   -0.15    0.25
   5 -10   3    0.76    0.65
  -6  10  -3    0.94    0.50
  -6  10  -3    0.19    0.39
   6 -10   3    0.43    0.58
   1   9  -3    0.03    0.37
   1   9  -3   -0.26    0.30
   1   9  -3    0.28    0.42
   1   9  -3   -0.23    0.19
  -1  -9   3    0.13    0.39
  -1  -9   3   -0.03    0.46
   0   9  -3    0.53    0.40
   0   9  -3    1.06    0.45
   0   9  -3    0.26    0.30
   0   9  -3    0.23    0.27
   0  -9   3    0.23    0.50
   0  -9   3    0.01    0.51
  -1   9  -3    0.22    0.36
  -1   9  -3    0.13    0.34
  -1   9  -3    0.22    0.30
   1  -9   3    0.37    0.49
   1  -9   3   -0.39    0.36
  -2   9  -3    3.82    0.62
  -2   9  -3    3.76    0.66
  -2   9  -3    4.48    0.74
   2  -9   3    3.24    0.75
   2  -9   3    2.51    0.67
  -3   9  -3   -0.19    0.27
  -3   9  -3   -0.11    0.25
  -3   9  -3   -0.31    0.23
   3  -9   3   -0.21    0.39
   3  -9   3    0.02    0.42
  -4   9  -3    0.09    0.28
  -4   9  -3    0.23    0.31
   4  -9   3    0.15    0.42
  -5   9  -3    0.15    0.29
  -5   9  -3   -0.28    0.24
   5  -9   3   -0.74    0.37
  -6   9  -3    0.14    0.30
  -6   9  -3    0.69    0.41
   6  -9   3    0.07    0.44
  -7   9  -3    0.48    0.44
  -7   9  -3    0.23    0.31
   7  -9   3   -0.13    0.44
  -8   9  -3    0.57    0.39
  -8   9  -3    0.01    0.38
   8  -9   3    0.04    0.41
   2   8  -3    4.02    0.74
   2   8  -3    4.55    0.77
   2   8  -3    2.73    0.50
  -2  -8   3    2.80    0.72
  -2  -8   3    5.05    0.93
   1   8  -3    3.36    0.57
   1   8  -3    2.48    0.45
   1   8  -3    3.07    0.61
   1   8  -3    2.35    0.57
  -1  -8   3    3.31    0.77
  -1  -8   3    2.78    0.73
   0   8  -3    0.43    0.30
   0   8  -3    0.56    0.35
   0   8  -3    0.30    0.21
   0   8  -3    1.05    0.43
   0  -8   3    1.20    0.52
   0  -8   3    0.98    0.51
  -1   8  -3    0.30    0.19
  -1   8  -3    0.15    0.29
  -1   8  -3    0.77    0.34
  -1   8  -3    0.86    0.38
   1  -8   3    0.19    0.39
   1  -8   3   -0.05    0.43
  -2   8  -3    1.81    0.47
  -2   8  -3    1.42    0.28
  -2   8  -3    1.86    0.44
  -2   8  -3    1.47    0.42
   2  -8   3    2.15    0.66
   2  -8   3    1.26    0.52
  -3   8  -3    1.09    0.39
  -3   8  -3    1.41    0.41
  -3   8  -3    0.60    0.35
   3  -8   3    2.09    0.61
   3  -8   3    1.35    0.49
  -4   8  -3    0.37    0.30
  -4   8  -3    1.05    0.36
  -4   8  -3    0.86    0.34
   4  -8   3    0.56    0.51
  -5   8  -3   -0.32    0.21
  -5   8  -3    0.15    0.28
   5  -8   3    0.85    0.48
  -6   8  -3    1.48    0.48
  -6   8  -3    1.20    0.40
   6  -8   3    1.11    0.46
   6  -8   3    1.11    0.42
  -7   8  -3    1.66    0.53
  -7   8  -3    1.05    0.41
   7  -8   3    0.55    0.42
   7  -8   3    2.04    0.59
   7  -8   3    1.10    0.51
  -8   8  -3    1.44    0.46
  -8   8  -3    0.01    0.44
   8  -8   3    1.33    0.58
   8  -8   3    0.92    0.50
   4   7  -3    1.97    0.64
   4   7  -3    2.63    0.68
   4   7  -3    1.92    0.49
  -4  -7   3    2.01    0.62
   3   7  -3    0.23    0.36
   3   7  -3    0.39    0.29
   3   7  -3    0.09    0.33
  -3  -7   3    0.48    0.44
  -3  -7   3    0.18    0.43
   2   7  -3    0.24    0.36
   2   7  -3   -0.06    0.23
   2   7  -3    0.24    0.30
   2   7  -3    0.04    0.23
  -2  -7   3   -0.45    0.26
  -2  -7   3   -0.41    0.34
   1   7  -3    0.35    0.32
   1   7  -3    0.37    0.27
   1   7  -3    0.28    0.26
   1   7  -3   -0.02    0.17
  -1  -7   3   -0.73    0.35
  -1  -7   3   -0.38    0.27
   0   7  -3    0.12    0.25
   0   7  -3    0.53    0.23
   0   7  -3   -0.07    0.25
   0   7  -3    0.47    0.32
   0  -7   3   -0.11    0.44
   0  -7   3    0.99    0.53
  -1   7  -3    2.72    0.46
  -1   7  -3    3.35    0.52
  -1   7  -3    2.19    0.46
  -1   7  -3    2.61    0.36
   1  -7   3    2.03    0.56
   1  -7   3    2.76    0.60
  -2   7  -3    3.57    0.53
  -2   7  -3    4.61    0.55
  -2   7  -3    4.22    0.54
  -2   7  -3    3.69    0.38
   2  -7   3    4.45    0.70
   2  -7   3    3.73    0.68
  -3   7  -3    1.66    0.39
  -3   7  -3    1.68    0.39
  -3   7  -3    1.76    0.27
  -3   7  -3    1.70    0.40
   3  -7   3    2.33    0.58
   3  -7   3    1.03    0.44
  -4   7  -3    0.04    0.23
  -4   7  -3    0.78    0.31
  -4   7  -3    0.41    0.29
   4  -7   3    0.09    0.34
   4  -7   3    0.11    0.24
  -5   7  -3    0.71    0.35
  -5   7  -3    0.40    0.32
  -5   7  -3   -0.17    0.27
   5  -7   3    0.36    0.32
   5  -7   3    0.61    0.42
   5  -7   3    0.67    0.37
  -6   7  -3   13.28    0.86
  -6   7  -3   13.45    0.96
   6  -7   3   13.26    1.01
   6  -7   3   11.65    0.93
   6  -7   3   13.43    0.94
  -7   7  -3    1.92    0.55
  -7   7  -3    1.71    0.44
   7  -7   3    1.68    0.54
   7  -7   3    2.88    0.66
  -8   7  -3    1.84    0.62
   8  -7   3    2.18    0.64
   8  -7   3    1.83    0.56
  -9   7  -3   -0.32    0.38
   9  -7   3    0.49    0.46
   9  -7   3   -0.11    0.39
   5   6  -3    0.18    0.39
   5   6  -3    0.68    0.49
   5   6  -3    0.34    0.35
  -5  -6   3    0.62    0.52
   4   6  -3   -0.41    0.31
   4   6  -3   -0.24    0.23
   4   6  -3    0.15    0.35
  -4  -6   3    0.12    0.41
   3   6  -3    0.76    0.37
   3   6  -3    0.20    0.36
   3   6  -3    0.66    0.27
  -3  -6   3    0.67    0.43
  -3  -6   3    2.16    0.55
   2   6  -3   11.46    0.82
   2   6  -3    9.30    0.94
   2   6  -3   10.19    0.66
   2   6  -3    9.69    0.70
  -2  -6   3    7.38    0.90
  -2  -6   3   11.98    1.08
   1   6  -3    0.77    0.33
   1   6  -3    0.86    0.25
   1   6  -3    1.04    0.37
   1   6  -3    0.49    0.29
  -1  -6   3    0.80    0.46
  -1  -6   3    0.59    0.46
   0   6  -3   22.14    0.96
   0   6  -3   21.02    0.97
   0   6  -3   22.06    0.94
   0   6  -3   21.90    0.79
   0  -6   3   21.47    1.18
   0  -6   3   21.14    1.15
  -1   6  -3    0.60    0.20
  -1   6  -3    0.42    0.23
  -1   6  -3    0.69    0.30
  -1   6  -3    0.44    0.26
   1  -6   3    0.59    0.34
   1  -6   3    0.75    0.38
  -2   6  -3    6.07    0.63
  -2   6  -3    6.38    0.59
  -2   6  -3    7.42    0.42
  -2   6  -3    5.47    0.57
   2  -6   3    6.53    0.76
   2  -6   3    5.80    0.71
  -3   6  -3   10.14    0.48
  -3   6  -3   11.56    0.68
  -3   6  -3   10.79    0.66
  -3   6  -3    9.99    0.67
   3  -6   3   10.83    0.84
   3  -6   3   10.07    0.62
   3  -6   3    9.26    0.58
  -4   6  -3   26.36    1.03
  -4   6  -3   27.33    1.05
  -4   6  -3   27.67    0.72
  -4   6  -3   28.01    1.04
   4  -6   3   27.24    1.19
   4  -6   3   27.82    1.06
   4  -6   3   27.62    1.08
   4  -6   3   26.45    0.87
  -5   6  -3   20.79    0.95
  -5   6  -3   18.70    0.95
  -5   6  -3   20.78    0.66
  -5   6  -3   19.20    0.92
  -5   6  -3   20.43    0.87
   5  -6   3   19.69    1.05
   5  -6   3   20.65    1.03
   5  -6   3   18.98    0.84
   5  -6   3   20.25    0.76
   5  -6   3   19.97    1.03
  -6   6  -3    1.18    0.45
  -6   6  -3    0.97    0.36
  -6   6  -3    1.27    0.38
  -6   6  -3    1.00    0.35
   6  -6   3    1.16    0.38
   6  -6   3    0.66    0.36
   6  -6   3    0.93    0.41
   6  -6   3    1.05    0.40
   6  -6   3    1.51    0.31
  -7   6  -3    0.72    0.31
  -7   6  -3    0.62    0.38
  -7   6  -3    1.07    0.47
   7  -6   3    0.50    0.37
   7  -6   3    0.98    0.42
  -8   6  -3    0.60    0.37
  -8   6  -3    0.96    0.49
   8  -6   3    0.27    0.38
   8  -6   3    0.18    0.36
  -9   6  -3    0.16    0.43
  -9   6  -3    0.09    0.48
   9  -6   3   -0.13    0.35
   9  -6   3    0.11    0.38
   6   5  -3   -0.13    0.21
   6   5  -3    0.12    0.36
  -6  -5   3   -0.20    0.40
  -6  -5   3   -0.06    0.36
   5   5  -3    2.05    0.46
   5   5  -3    2.78    0.64
  -5  -5   3    2.34    0.57
  -5  -5   3    3.42    0.73
   4   5  -3    4.44    0.66
   4   5  -3    2.99    0.56
   4   5  -3    3.28    0.48
  -4  -5   3    4.07    0.76
  -4  -5   3    3.76    0.63
  -4  -5   3    4.29    0.69
   3   5  -3    6.03    0.76
   3   5  -3    8.10    0.76
   3   5  -3    7.80    0.58
   3   5  -3    7.54    0.67
  -3  -5   3    9.18    0.90
  -3  -5   3    7.60    0.93
  -3  -5   3    7.13    0.71
   2   5  -3    9.66    0.60
   2   5  -3   11.76    0.72
   2   5  -3   10.87    0.64
   2   5  -3    9.90    0.75
  -2  -5   3   11.61    0.70
  -2  -5   3    8.41    0.82
  -2  -5   3   11.98    0.92
   1   5  -3   12.13    0.67
   1   5  -3   10.18    0.72
   1   5  -3   11.03    0.65
   1   5  -3   10.33    0.55
  -1  -5   3   11.20    0.62
  -1  -5   3   10.35    0.80
  -1  -5   3   12.73    0.88
   0   5  -3    0.92    0.28
   0   5  -3    1.30    0.30
   0   5  -3    1.17    0.27
   0   5  -3    1.29    0.24
   0  -5   3    0.48    0.30
   0  -5   3    1.34    0.40
   0  -5   3    1.02    0.23
  -1   5  -3   24.35    0.89
  -1   5  -3   25.08    0.69
  -1   5  -3   24.92    0.92
  -1   5  -3   25.96    0.82
   1  -5   3   23.88    1.03
   1  -5   3   25.82    1.09
  -2   5  -3   13.59    0.68
  -2   5  -3   12.30    0.49
  -2   5  -3   12.00    0.64
  -2   5  -3   12.28    0.59
   2  -5   3   13.22    0.78
   2  -5   3   12.60    0.59
   2  -5   3   13.33    0.80
  -3   5  -3   96.45    1.25
  -3   5  -3   97.56    1.75
  -3   5  -3   95.13    1.66
  -3   5  -3   92.66    1.69
  -3   5  -3   97.29    1.49
   3  -5   3   94.35    1.67
   3  -5   3   96.39    1.48
   3  -5   3   94.51    1.90
   3  -5   3   97.96    1.77
  -4   5  -3   -0.04    0.11
  -4   5  -3   -0.24    0.13
  -4   5  -3    0.33    0.20
  -4   5  -3    0.03    0.20
  -4   5  -3   -0.05    0.23
   4  -5   3   -0.04    0.18
   4  -5   3   -0.10    0.22
   4  -5   3    0.09    0.18
   4  -5   3   -0.18    0.13
   4  -5   3   -0.18    0.18
  -5   5  -3    0.23    0.30
  -5   5  -3    0.24    0.28
  -5   5  -3   -0.13    0.17
  -5   5  -3    0.25    0.15
  -5   5  -3    0.30    0.26
   5  -5   3    0.07    0.28
   5  -5   3    0.31    0.20
   5  -5   3   -0.16    0.24
   5  -5   3    0.01    0.29
   5  -5   3   -0.04    0.24
  -6   5  -3    1.00    0.37
  -6   5  -3    2.01    0.44
  -6   5  -3    1.13    0.31
  -6   5  -3    2.27    0.54
  -6   5  -3    1.70    0.27
   6  -5   3    0.98    0.28
   6  -5   3    1.60    0.47
   6  -5   3    1.75    0.41
   6  -5   3    0.68    0.37
  -7   5  -3    0.45    0.34
  -7   5  -3    0.13    0.18
  -7   5  -3    0.15    0.31
  -7   5  -3    0.46    0.41
   7  -5   3    0.49    0.25
   7  -5   3   -0.33    0.27
   7  -5   3    0.25    0.35
  -8   5  -3    0.51    0.41
  -8   5  -3    0.67    0.46
  -8   5  -3    0.02    0.33
   8  -5   3    0.19    0.42
   8  -5   3    0.81    0.32
   8  -5   3   -0.09    0.28
   8  -5   3    0.40    0.43
  -9   5  -3    0.97    0.55
  -9   5  -3   -0.02    0.41
   9  -5   3    1.11    0.54
   9  -5   3    1.01    0.51
   6   4  -3    0.34    0.27
   6   4  -3    1.06    0.45
  -6  -4   3    0.66    0.46
  -6  -4   3   -0.16    0.35
   5   4  -3    3.82    0.53
   5   4  -3    3.54    0.65
  -5  -4   3    3.97    0.66
  -5  -4   3    3.36    0.70
   4   4  -3    0.11    0.28
   4   4  -3    1.30    0.33
   4   4  -3    1.66    0.42
  -4  -4   3    0.82    0.42
  -4  -4   3    1.56    0.47
  -4  -4   3    1.10    0.40
   3   4  -3    3.47    0.48
   3   4  -3    2.69    0.39
   3   4  -3    2.24    0.42
   3   4  -3    2.49    0.37
   3   4  -3    2.72    0.51
  -3  -4   3    2.69    0.56
  -3  -4   3    3.11    0.53
  -3  -4   3    2.30    0.44
   2   4  -3    1.34    0.29
   2   4  -3    1.67    0.32
   2   4  -3    1.72    0.31
   2   4  -3    1.19    0.33
   2   4  -3    1.35    0.26
  -2  -4   3    1.23    0.30
  -2  -4   3    1.28    0.36
  -2  -4   3    1.54    0.39
   1   4  -3   -0.19    0.15
   1   4  -3    0.11    0.13
   1   4  -3   -0.05    0.13
   1   4  -3   -0.09    0.17
  -1  -4   3   -0.29    0.12
  -1  -4   3    0.17    0.23
  -1  -4   3    0.17    0.23
   0   4  -3    0.78    0.25
   0   4  -3    0.29    0.14
   0   4  -3    0.61    0.23
   0   4  -3    0.53    0.15
   0  -4   3    0.01    0.21
   0  -4   3    0.37    0.18
   0  -4   3    0.41    0.24
  -1   4  -3  133.49    1.87
  -1   4  -3  135.79    1.47
  -1   4  -3  136.15    1.56
  -1   4  -3  132.49    1.85
   1  -4   3  136.49    2.17
   1  -4   3  133.20    2.13
  -2   4  -3    8.25    0.38
  -2   4  -3    7.79    0.50
  -2   4  -3    9.33    0.47
  -2   4  -3    8.24    0.51
   2  -4   3    7.78    0.55
   2  -4   3    8.77    0.51
  -3   4  -3   14.20    0.62
  -3   4  -3   13.97    0.61
  -3   4  -3   14.40    0.48
  -3   4  -3   14.64    0.64
  -3   4  -3   14.21    0.66
   3  -4   3   14.66    0.63
   3  -4   3   15.12    0.74
   3  -4   3   13.64    0.69
   3  -4   3   14.37    0.56
   3  -4   3   14.25    0.70
  -4   4  -3   13.56    0.69
  -4   4  -3   13.38    0.68
  -4   4  -3   14.12    0.64
  -4   4  -3   13.27    0.49
  -4   4  -3   12.82    0.70
   4  -4   3   12.83    0.64
   4  -4   3   13.85    0.79
   4  -4   3   12.95    0.68
   4  -4   3   13.17    0.58
  -5   4  -3    4.62    0.44
  -5   4  -3    3.62    0.55
  -5   4  -3    4.18    0.51
  -5   4  -3    4.25    0.58
  -5   4  -3    4.70    0.35
   5  -4   3    4.47    0.45
   5  -4   3    3.72    0.56
   5  -4   3    5.13    0.48
   5  -4   3    4.55    0.57
   5  -4   3    4.96    0.65
  -6   4  -3    0.35    0.18
  -6   4  -3    0.73    0.33
  -6   4  -3    1.07    0.44
  -6   4  -3    1.08    0.39
   6  -4   3    0.97    0.28
   6  -4   3    1.08    0.44
   6  -4   3    0.36    0.34
   6  -4   3    0.45    0.32
   6  -4   3    0.59    0.33
  -7   4  -3    0.31    0.41
  -7   4  -3    0.55    0.35
  -7   4  -3    0.36    0.35
   7  -4   3    0.70    0.43
   7  -4   3   -0.16    0.34
   7  -4   3    0.52    0.28
   7  -4   3    0.50    0.33
  -8   4  -3    0.27    0.45
  -8   4  -3    0.59    0.41
  -8   4  -3    0.37    0.38
   8  -4   3    0.32    0.36
   8  -4   3   -0.01    0.35
   8  -4   3    0.17    0.26
   8  -4   3    0.90    0.48
  -9   4  -3    2.14    0.70
  -9   4  -3    0.84    0.46
  -9   4  -3    1.07    0.57
  -9   4  -3    0.93    0.45
   9  -4   3    0.56    0.44
   9  -4   3    1.46    0.60
   9  -4   3    0.68    0.34
   9  -4   3    0.37    0.39
   7   3  -3   -0.13    0.31
   7   3  -3    0.12    0.23
  -7  -3   3   -0.31    0.29
  -7  -3   3    0.48    0.41
   6   3  -3    0.59    0.29
   6   3  -3    0.93    0.43
   6   3  -3    1.00    0.44
  -6  -3   3    0.86    0.42
  -6  -3   3    0.42    0.35
   5   3  -3    0.47    0.37
   5   3  -3    0.88    0.37
   5   3  -3    0.07    0.19
  -5  -3   3    0.92    0.35
  -5  -3   3    0.19    0.31
  -5  -3   3    0.18    0.32
   4   3  -3    0.37    0.22
   4   3  -3    0.58    0.27
   4   3  -3    0.94    0.37
   4   3  -3    0.49    0.29
   4   3  -3    0.24    0.22
  -4  -3   3    0.13    0.31
  -4  -3   3    0.31    0.26
  -4  -3   3    0.01    0.28
   3   3  -3    2.20    0.39
   3   3  -3    2.63    0.39
   3   3  -3    1.97    0.34
   3   3  -3    2.48    0.35
   3   3  -3    2.55    0.33
   3   3  -3    2.87    0.43
  -3  -3   3    2.55    0.43
  -3  -3   3    2.87    0.49
  -3  -3   3    3.20    0.48
   2   3  -3    6.06    0.41
   2   3  -3    6.29    0.49
   2   3  -3    5.92    0.43
   2   3  -3    6.66    0.47
   2   3  -3    6.21    0.40
  -2  -3   3    5.48    0.56
  -2  -3   3    5.22    0.53
  -2  -3   3    6.16    0.47
   1   3  -3   -0.01    0.16
   1   3  -3    0.18    0.11
   1   3  -3    0.08    0.11
   1   3  -3   -0.25    0.14
  -1  -3   3   -0.01    0.13
  -1  -3   3    0.29    0.20
  -1  -3   3    0.37    0.21
   0   3  -3   -0.02    0.14
   0   3  -3    0.00    0.15
   0   3  -3   -0.13    0.10
   0   3  -3   -0.01    0.07
   0  -3   3    0.09    0.20
   0  -3   3    0.07    0.17
  -1   3  -3   23.20    0.76
  -1   3  -3   24.07    0.75
  -1   3  -3   23.54    0.53
   1  -3   3   23.09    0.81
  -2   3  -3    2.26    0.23
  -2   3  -3    2.00    0.25
  -2   3  -3    1.62    0.27
  -2   3  -3    2.55    0.32
   2  -3   3    1.93    0.26
   2  -3   3    2.58    0.36
   2  -3   3    1.89    0.29
   2  -3   3    1.73    0.26
   2  -3   3    2.20    0.32
  -3   3  -3    1.67    0.27
  -3   3  -3    1.03    0.17
  -3   3  -3    2.16    0.34
  -3   3  -3    1.35    0.27
  -3   3  -3    1.12    0.26
   3  -3   3    0.94    0.27
   3  -3   3    1.40    0.30
   3  -3   3    0.95    0.26
   3  -3   3    1.21    0.24
   3  -3   3    1.10    0.22
  -4   3  -3    7.34    0.65
  -4   3  -3    6.71    0.37
  -4   3  -3    6.78    0.40
  -4   3  -3    7.06    0.52
  -4   3  -3    6.67    0.55
   4  -3   3    7.16    0.42
   4  -3   3    6.20    0.64
   4  -3   3    6.53    0.44
   4  -3   3    7.68    0.58
   4  -3   3    6.57    0.65
   4  -3   3    5.78    0.56
  -5   3  -3    4.35    0.58
  -5   3  -3    4.05    0.35
  -5   3  -3    4.15    0.58
  -5   3  -3    3.33    0.47
   5  -3   3    4.02    0.58
   5  -3   3    4.17    0.57
   5  -3   3    3.63    0.56
   5  -3   3    3.98    0.52
   5  -3   3    4.32    0.46
  -6   3  -3    0.17    0.27
  -6   3  -3    0.15    0.28
  -6   3  -3   -0.11    0.32
   6  -3   3    0.56    0.34
   6  -3   3    0.43    0.35
   6  -3   3    0.79    0.27
   6  -3   3    0.73    0.34
   6  -3   3    0.58    0.38
  -7   3  -3    0.10    0.39
  -7   3  -3   -0.15    0.31
   7  -3   3   -0.16    0.22
   7  -3   3    0.26    0.35
   7  -3   3   -0.04    0.36
   7  -3   3    0.63    0.40
  -8   3  -3    0.88    0.46
  -8   3  -3   -0.24    0.38
  -8   3  -3    0.05    0.36
   8  -3   3    0.57    0.38
   8  -3   3    0.36    0.41
   8  -3   3    0.57    0.33
   8  -3   3    0.97    0.51
  -9   3  -3    0.38    0.47
  -9   3  -3    0.48    0.44
  -9   3  -3   -0.61    0.56
   9  -3   3   -0.21    0.38
   9  -3   3    0.10    0.41
   9  -3   3    0.09    0.31
   9  -3   3    0.58    0.53
   8   2  -3    1.13    0.40
   8   2  -3    0.14    0.43
   8   2  -3    0.45    0.38
  -8  -2   3    0.21    0.44
  -8  -2   3    0.18    0.37
   7   2  -3    0.39    0.39
   7   2  -3    0.03    0.29
   7   2  -3   -0.14    0.29
   7   2  -3   -0.04    0.22
  -7  -2   3   -0.28    0.36
  -7  -2   3    0.16    0.33
  -7  -2   3    0.20    0.38
   6   2  -3    0.16    0.38
   6   2  -3    0.40    0.29
   6   2  -3   -0.55    0.23
   6   2  -3    0.13    0.18
  -6  -2   3   -0.40    0.28
  -6  -2   3    0.12    0.29
   5   2  -3    0.62    0.34
   5   2  -3    0.80    0.31
   5   2  -3    0.89    0.26
   5   2  -3    0.23    0.33
  -5  -2   3    0.47    0.27
  -5  -2   3    0.84    0.37
  -5  -2   3    0.42    0.30
   4   2  -3    6.84    0.48
   4   2  -3    6.68    0.46
   4   2  -3    7.86    0.60
   4   2  -3    8.15    0.77
   4   2  -3    7.91    0.59
  -4  -2   3    7.37    0.70
  -4  -2   3    6.34    0.60
  -4  -2   3    7.60    0.74
   3   2  -3   12.36    0.54
   3   2  -3   13.44    0.64
   3   2  -3   13.88    0.70
   3   2  -3   12.77    0.58
   3   2  -3   13.93    0.68
  -3  -2   3   13.02    0.72
  -3  -2   3   12.87    0.68
  -3  -2   3   11.39    0.64
   2   2  -3   32.17    0.92
   2   2  -3   31.24    0.82
   2   2  -3   33.27    0.90
  -2  -2   3   32.38    0.92
  -2  -2   3   31.39    0.92
  -2  -2   3   31.98    0.97
   1   2  -3   36.06    0.60
   1   2  -3   38.65    0.89
   1   2  -3   36.12    0.72
   1   2  -3   37.95    0.89
  -1  -2   3   36.58    0.95
  -1  -2   3   37.49    0.91
  -1  -2   3   34.58    0.97
   0   2  -3   31.44    0.81
   0   2  -3   30.55    0.61
   0  -2   3   31.98    0.89
  -1   2  -3   11.10    0.34
  -1   2  -3   11.46    0.50
  -1   2  -3   11.42    0.38
   1  -2   3   10.27    0.50
   1  -2   3   10.82    0.44
  -2   2  -3    6.22    0.42
  -2   2  -3    7.35    0.38
  -2   2  -3    6.77    0.32
   2  -2   3    7.66    0.50
   2  -2   3    6.82    0.40
   2  -2   3    7.19    0.44
   2  -2   3    6.20    0.36
   2  -2   3    7.29    0.48
   2  -2   3    7.01    0.44
  -3   2  -3   46.01    1.14
  -3   2  -3   44.73    1.04
  -3   2  -3   44.46    1.13
   3  -2   3   43.45    1.25
   3  -2   3   43.35    1.21
   3  -2   3   43.65    1.14
   3  -2   3   43.36    0.95
   3  -2   3   44.13    1.11
  -4   2  -3    1.37    0.31
  -4   2  -3    1.43    0.31
   4  -2   3    2.26    0.40
   4  -2   3    1.38    0.36
   4  -2   3    1.15    0.34
   4  -2   3    1.55    0.28
   4  -2   3    1.68    0.33
  -5   2  -3    2.16    0.44
  -5   2  -3    3.22    0.49
   5  -2   3    1.43    0.41
   5  -2   3    2.70    0.45
   5  -2   3    2.23    0.47
   5  -2   3    2.86    0.40
   5  -2   3    2.15    0.46
  -6   2  -3    0.94    0.37
  -6   2  -3    0.97    0.42
   6  -2   3    1.16    0.45
   6  -2   3    0.94    0.35
   6  -2   3    1.12    0.33
   6  -2   3    1.56    0.48
   6  -2   3    0.45    0.34
  -7   2  -3   -0.44    0.29
  -7   2  -3   -0.22    0.29
  -7   2  -3    0.18    0.38
   7  -2   3    0.21    0.37
   7  -2   3   -0.29    0.18
   7  -2   3   -0.13    0.27
   7  -2   3    0.47    0.37
  -8   2  -3    0.18    0.37
  -8   2  -3    0.35    0.54
  -8   2  -3    0.92    0.46
   8  -2   3    0.66    0.47
   8  -2   3    0.30    0.42
   8  -2   3    0.41    0.41
   8  -2   3    0.66    0.32
   8   1  -3    0.31    0.26
   8   1  -3    0.61    0.46
   8   1  -3    0.29    0.41
   8   1  -3    0.46    0.37
  -8  -1   3    0.16    0.37
  -8  -1   3   -0.09    0.39
   7   1  -3    1.43    0.37
   7   1  -3    1.00    0.35
   7   1  -3    1.16    0.44
   7   1  -3    1.85    0.56
  -7  -1   3    1.11    0.44
  -7  -1   3    0.96    0.41
  -7  -1   3    1.60    0.44
   6   1  -3    0.12    0.32
   6   1  -3    0.06    0.36
   6   1  -3   -0.34    0.21
   6   1  -3    0.15    0.19
  -6  -1   3   -0.23    0.24
  -6  -1   3    0.01    0.28
  -6  -1   3   -0.55    0.28
   5   1  -3    1.30    0.41
   5   1  -3    1.64    0.30
   5   1  -3    1.82    0.43
   5   1  -3    1.81    0.30
   5   1  -3    1.54    0.34
  -5  -1   3    2.67    0.47
  -5  -1   3    1.57    0.44
  -5  -1   3    2.28    0.41
  -5  -1   3    1.57    0.28
  -5  -1   3    1.51    0.33
   4   1  -3    7.91    0.64
   4   1  -3    8.03    0.46
   4   1  -3    8.41    0.47
   4   1  -3    8.00    0.52
  -4  -1   3    7.07    0.66
  -4  -1   3    8.28    0.55
  -4  -1   3    8.90    0.56
  -4  -1   3    8.25    0.55
  -4  -1   3    8.27    0.47
   3   1  -3  117.26    1.43
   3   1  -3  115.64    1.81
   3   1  -3  112.28    1.90
   3   1  -3  113.68    1.61
   3   1  -3  113.95    1.52
  -3  -1   3  112.54    1.77
  -3  -1   3  111.07    1.60
  -3  -1   3  113.53    1.83
  -3  -1   3  113.90    1.50
  -3  -1   3  115.84    1.52
   2   1  -3   18.31    0.51
   2   1  -3   18.43    0.60
   2   1  -3   17.87    0.69
  -2  -1   3   17.33    0.69
  -2  -1   3   18.50    0.61
  -2  -1   3   17.61    0.71
  -2  -1   3   19.51    0.50
  -2  -1   3   19.15    0.71
  -2  -1   3   19.99    0.62
   1   1  -3    4.82    0.26
   1   1  -3    4.52    0.33
  -1  -1   3    5.69    0.36
  -1  -1   3    4.55    0.42
   0   1  -3    0.90    0.14
   0   1  -3    0.97    0.21
   0  -1   3    1.13    0.19
   0  -1   3    1.20    0.24
  -1   1  -3   32.29    0.61
  -1   1  -3   31.71    0.79
   1  -1   3   32.21    0.80
   1  -1   3   31.58    0.74
   1  -1   3   32.28    0.71
  -2   1  -3    0.36    0.18
   2  -1   3    0.56    0.20
   2  -1   3    0.53    0.21
   2  -1   3    0.31    0.18
   2  -1   3    0.36    0.15
   2  -1   3    0.46    0.19
  -3   1  -3    5.75    0.56
   3  -1   3    6.05    0.62
   3  -1   3    5.38    0.40
   3  -1   3    6.78    0.63
   3  -1   3    7.31    0.63
   3  -1   3    6.71    0.58
  -4   1  -3    0.40    0.27
   4  -1   3    1.11    0.36
   4  -1   3    1.22    0.26
   4  -1   3    1.16    0.32
   4  -1   3    1.07    0.34
   4  -1   3    0.95    0.28
  -5   1  -3    0.98    0.38
  -5   1  -3    0.62    0.32
   5  -1   3    0.89    0.39
   5  -1   3    1.28    0.41
   5  -1   3    0.57    0.34
   5  -1   3   -0.12    0.28
   5  -1   3    0.79    0.25
  -6   1  -3   -0.01    0.31
  -6   1  -3    0.14    0.32
  -6   1  -3    0.49    0.45
   6  -1   3    0.31    0.41
   6  -1   3    0.11    0.24
   6  -1   3   -0.24    0.29
   6  -1   3   -0.20    0.29
  -7   1  -3    0.17    0.31
  -7   1  -3   -0.54    0.29
  -7   1  -3   -0.02    0.31
   7  -1   3    0.06    0.23
   7  -1   3    0.11    0.40
   7  -1   3   -0.19    0.31
   7  -1   3    0.10    0.34
  -8   1  -3   -0.01    0.33
  -8   1  -3    0.57    0.63
  -8   1  -3    0.40    0.38
   8  -1   3   -0.33    0.38
   8  -1   3   -0.15    0.39
   8  -1   3    0.32    0.44
   8  -1   3    0.56    0.33
   9   0  -3    0.27    0.37
   9   0  -3   -0.24    0.25
   9   0  -3    0.48    0.49
  -9   0   3   -0.28    0.39
  -9   0   3    0.19    0.39
   8   0  -3    2.03    0.42
   8   0  -3    0.90    0.48
   8   0  -3    1.81    0.54
  -8   0   3    1.72    0.52
  -8   0   3    2.28    0.57
   7   0  -3    8.21    0.92
   7   0  -3    8.67    0.61
   7   0  -3    8.53    0.76
   7   0  -3    7.35    0.92
  -7   0   3    8.15    0.88
  -7   0   3    9.09    0.90
   6   0  -3    0.34    0.23
   6   0  -3    0.98    0.24
   6   0  -3    1.14    0.40
   6   0  -3    1.03    0.45
  -6   0   3    0.63    0.34
  -6   0   3    0.14    0.33
  -6   0   3    0.81    0.30
  -6   0   3    1.25    0.35
   5   0  -3   25.89    1.17
   5   0  -3   26.78    1.14
   5   0  -3   28.42    0.83
   5   0  -3   29.07    0.92
  -5   0   3   28.56    1.04
  -5   0   3   27.23    0.97
  -5   0   3   28.52    0.90
  -5   0   3   26.55    1.11
  -5   0   3   29.00    0.84
   4   0  -3    0.07    0.21
   4   0  -3    0.19    0.23
   4   0  -3    0.16    0.15
   4   0  -3    0.13    0.11
  -4   0   3    0.16    0.18
  -4   0   3    0.16    0.22
  -4   0   3   -0.22    0.17
  -4   0   3   -0.06    0.13
  -4   0   3    0.36    0.16
   3   0  -3    3.14    0.27
   3   0  -3    4.74    0.52
   3   0  -3    3.70    0.44
   3   0  -3    3.43    0.27
  -3   0   3    3.96    0.43
  -3   0   3    3.95    0.37
  -3   0   3    3.35    0.26
  -3   0   3    2.66    0.36
  -3   0   3    2.99    0.31
   2   0  -3    3.85    0.27
   2   0  -3    5.40    0.50
   2   0  -3    3.99    0.43
  -2   0   3    4.76    0.48
  -2   0   3    3.94    0.32
  -2   0   3    4.57    0.46
  -2   0   3    4.30    0.42
  -2   0   3    4.29    0.41
  -2   0   3    3.97    0.26
   1   0  -3    7.19    0.35
  -1   0   3    7.54    0.44
  -1   0   3    7.31    0.27
   0   0  -3    0.12    0.13
   0   0   3    0.32    0.15
   0   0   3    0.33    0.11
   0   0   3    0.37    0.17
   1   0   3   95.65    1.25
   1   0   3   95.37    1.27
   1   0   3   93.29    1.43
   1   0   3   97.99    1.63
   1   0   3   97.29    1.42
   1   0   3   94.93    1.26
  -2   0  -3    1.60    0.30
   2   0   3    2.22    0.35
   2   0   3    1.17    0.21
   2   0   3    1.63    0.29
   2   0   3    1.40    0.28
   2   0   3    1.64    0.28
   2   0   3    1.76    0.31
  -3   0  -3    0.25    0.18
   3   0   3   -0.17    0.15
   3   0   3    0.06    0.11
   3   0   3    0.21    0.20
   3   0   3    0.15    0.21
   3   0   3    0.09    0.18
   3   0   3   -0.02    0.17
  -4   0  -3   10.37    0.72
  -4   0  -3    9.40    0.73
   4   0   3    9.25    0.70
   4   0   3   10.52    0.60
   4   0   3   10.05    0.71
   4   0   3   10.28    0.74
   4   0   3   10.79    0.73
  -5   0  -3    2.35    0.54
  -5   0  -3    3.19    0.59
   5   0   3    3.23    0.46
   5   0   3    2.56    0.56
   5   0   3    1.97    0.47
   5   0   3    3.41    0.59
   5   0   3    3.27    0.59
  -6   0  -3    1.78    0.49
  -6   0  -3    1.00    0.39
   6   0   3    2.46    0.55
   6   0   3    2.30    0.46
   6   0   3    1.64    0.50
   6   0   3    1.54    0.49
  -7   0  -3    0.33    0.37
  -7   0  -3    0.47    0.39
   7   0   3   -0.30    0.30
   7   0   3    0.46    0.32
   7   0   3   -0.06    0.34
   7   0   3   -0.28    0.30
  -8   0  -3    0.57    0.44
  -8   0  -3    1.96    0.72
  -8   0  -3    1.26    0.56
   8   0   3    1.67    0.59
   8   0   3    1.81    0.51
   8   0   3    2.09    0.66
   8   0   3    1.47    0.56
   9  -1  -3    2.65    0.69
   9  -1  -3    1.91    0.58
  -9   1   3    2.68    0.68
  -9   1   3    1.74    0.59
   8  -1  -3   -0.05    0.17
   8  -1  -3    0.06    0.35
   8  -1  -3   -0.12    0.37
  -8   1   3    0.04    0.33
  -8   1   3   -0.07    0.36
   7  -1  -3    1.79    0.33
   7  -1  -3    1.58    0.56
   7  -1  -3    1.43    0.48
  -7   1   3    0.97    0.45
  -7   1   3    0.70    0.40
   6  -1  -3    0.15    0.15
   6  -1  -3   -0.17    0.16
   6  -1  -3   -0.22    0.30
   6  -1  -3   -0.15    0.27
  -6   1   3   -0.32    0.28
  -6   1   3   -0.07    0.25
  -6   1   3   -0.18    0.20
  -6   1   3   -0.17    0.17
   5  -1  -3    3.03    0.53
   5  -1  -3    3.22    0.56
   5  -1  -3    2.67    0.30
   5  -1  -3    3.08    0.33
  -5   1   3    3.86    0.43
  -5   1   3    3.26    0.46
  -5   1   3    2.73    0.44
  -5   1   3    3.42    0.45
   4  -1  -3    0.27    0.23
   4  -1  -3    0.74    0.15
   4  -1  -3    0.74    0.17
   4  -1  -3    1.05    0.32
  -4   1   3    0.61    0.19
  -4   1   3    0.55    0.25
  -4   1   3    0.94    0.15
  -4   1   3    1.46    0.30
  -4   1   3    0.64    0.23
   3  -1  -3    0.09    0.18
   3  -1  -3    0.12    0.18
   3  -1  -3    0.12    0.09
  -3   1   3   -0.02    0.15
  -3   1   3    0.12    0.14
  -3   1   3    0.11    0.15
  -3   1   3    0.33    0.17
  -3   1   3    0.04    0.14
   2  -1  -3    7.96    0.30
   2  -1  -3    7.51    0.48
   2  -1  -3    8.17    0.52
  -2   1   3    6.73    0.48
  -2   1   3    8.28    0.51
  -2   1   3    8.69    0.54
  -2   1   3    8.04    0.44
  -2   1   3    7.93    0.39
   1  -1  -3    9.69    0.38
  -1   1   3    9.41    0.46
  -1   1   3    9.54    0.37
  -1   1   3    9.19    0.40
   0   1   3    1.34    0.20
   0   1   3    1.27    0.22
   0   1   3    1.42    0.23
  -1  -1  -3    6.12    0.43
  -1  -1  -3    5.51    0.45
   1   1   3    5.24    0.46
   1   1   3    5.17    0.41
   1   1   3    5.21    0.40
   1   1   3    5.60    0.41
   1   1   3    6.12    0.44
   1   1   3    6.17    0.36
  -2  -1  -3   36.75    1.07
  -2  -1  -3   37.32    0.83
  -2  -1  -3   37.40    1.19
   2   1   3   37.89    1.11
   2   1   3   37.41    1.05
   2   1   3   36.16    1.09
   2   1   3   37.82    1.14
   2   1   3   37.91    0.95
   2   1   3   38.79    1.09
  -3  -1  -3    8.46    0.81
  -3  -1  -3    6.70    0.67
  -3  -1  -3    7.79    0.39
   3   1   3    7.94    0.62
   3   1   3    7.42    0.69
   3   1   3    7.68    0.61
   3   1   3    6.82    0.49
   3   1   3    7.51    0.73
   3   1   3    7.24    0.58
  -4  -1  -3    0.22    0.27
  -4  -1  -3    0.10    0.26
   4   1   3    0.22    0.28
   4   1   3    0.64    0.30
   4   1   3   -0.05    0.28
   4   1   3    0.10    0.25
   4   1   3    0.22    0.30
   4   1   3    0.17    0.22
  -5  -1  -3   -0.07    0.25
  -5  -1  -3   -0.11    0.26
   5   1   3    0.23    0.34
   5   1   3    0.15    0.32
   5   1   3    0.52    0.26
   5   1   3   -0.28    0.29
  -6  -1  -3    4.33    0.73
  -6  -1  -3    3.95    0.76
   6   1   3    4.52    0.62
   6   1   3    5.23    0.78
   6   1   3    4.32    0.74
   6   1   3    5.81    0.83
  -7  -1  -3    0.11    0.41
  -7  -1  -3    0.34    0.43
   7   1   3   -0.07    0.27
   7   1   3    0.49    0.40
   7   1   3    0.16    0.44
   9  -2  -3    0.77    0.50
   9  -2  -3    0.11    0.41
  -9   2   3   -0.03    0.35
  -9   2   3    0.16    0.43
   8  -2  -3    0.02    0.35
   8  -2  -3    0.43    0.39
  -8   2   3    0.22    0.36
  -8   2   3    0.91    0.41
   7  -2  -3    0.49    0.44
   7  -2  -3    0.04    0.31
  -7   2   3    0.15    0.34
  -7   2   3   -0.11    0.22
  -7   2   3   -0.26    0.37
   6  -2  -3    2.18    0.49
   6  -2  -3    2.12    0.56
   6  -2  -3    1.60    0.25
  -6   2   3    1.50    0.42
  -6   2   3    1.48    0.42
  -6   2   3    1.70    0.34
   5  -2  -3   16.31    0.49
   5  -2  -3   13.75    0.90
   5  -2  -3   15.18    0.45
   5  -2  -3   16.05    0.92
  -5   2   3   15.50    0.79
  -5   2   3   15.99    0.74
  -5   2   3   14.39    0.79
   4  -2  -3    0.32    0.08
   4  -2  -3    0.41    0.28
   4  -2  -3   -0.04    0.20
  -4   2   3    0.57    0.21
  -4   2   3    0.20    0.21
  -4   2   3    0.19    0.19
   3  -2  -3    9.00    0.21
   3  -2  -3    9.33    0.60
   3  -2  -3    8.86    0.58
  -3   2   3    9.56    0.51
  -3   2   3    8.97    0.61
  -3   2   3    9.63    0.52
  -3   2   3    8.63    0.53
   2  -2  -3   29.86    0.53
   2  -2  -3   29.31    0.90
   2  -2  -3   28.55    0.90
   2  -2  -3   29.40    0.55
  -2   2   3   29.31    0.92
  -2   2   3   30.53    0.54
  -2   2   3   30.83    0.95
  -2   2   3   30.08    0.87
  -2   2   3   29.81    0.82
   1  -2  -3    8.26    0.42
   1  -2  -3    8.41    0.48
  -1   2   3    8.43    0.46
  -1   2   3    8.50    0.51
  -1   2   3    8.01    0.38
  -1   2   3    8.54    0.46
   0  -2  -3    4.02    0.43
   0  -2  -3    4.45    0.46
   0   2   3    3.52    0.37
   0   2   3    4.73    0.42
   0   2   3    4.62    0.35
   0   2   3    3.83    0.29
   0   2   3    3.67    0.39
  -1  -2  -3    4.35    0.42
  -1  -2  -3    4.18    0.44
  -1  -2  -3    3.49    0.45
   1   2   3    2.70    0.37
   1   2   3    3.48    0.34
   1   2   3    3.57    0.42
   1   2   3    5.34    0.51
   1   2   3    4.04    0.44
   1   2   3    5.20    0.50
   1   2   3    3.86    0.37
  -2  -2  -3    9.87    0.54
  -2  -2  -3    9.85    0.63
  -2  -2  -3   12.18    0.78
   2   2   3   10.96    0.57
   2   2   3    9.92    0.47
   2   2   3   10.23    0.63
   2   2   3   11.08    0.63
   2   2   3   10.22    0.66
   2   2   3   11.31    0.69
   2   2   3    9.79    0.64
  -3  -2  -3    2.74    0.58
  -3  -2  -3    2.61    0.46
   3   2   3    2.60    0.46
   3   2   3    2.75    0.48
   3   2   3    4.10    0.60
   3   2   3    2.77    0.46
   3   2   3    2.85    0.42
   3   2   3    2.81    0.49
  -4  -2  -3    2.40    0.47
  -4  -2  -3    2.82    0.58
   4   2   3    3.79    0.50
   4   2   3    3.57    0.60
   4   2   3    2.55    0.52
   4   2   3    3.45    0.54
   4   2   3    3.22    0.55
  -5  -2  -3    0.13    0.32
  -5  -2  -3    0.23    0.32
   5   2   3    0.52    0.40
   5   2   3    1.11    0.43
   5   2   3    0.54    0.31
  -6  -2  -3    0.23    0.35
  -6  -2  -3    0.73    0.44
   6   2   3    0.38    0.30
   6   2   3    0.27    0.36
   9  -3  -3   -0.46    0.39
   9  -3  -3   -0.48    0.32
  -9   3   3   -0.76    0.32
  -9   3   3    0.33    0.42
   8  -3  -3   -0.34    0.27
   8  -3  -3    0.11    0.32
  -8   3   3    0.19    0.34
  -8   3   3   -0.14    0.34
   7  -3  -3    4.28    0.68
   7  -3  -3    5.20    0.62
   7  -3  -3    3.95    0.72
  -7   3   3    4.52    0.69
  -7   3   3    5.24    0.73
  -7   3   3    4.64    0.56
   6  -3  -3    1.37    0.46
   6  -3  -3    0.56    0.35
  -6   3   3    1.07    0.40
  -6   3   3    1.51    0.36
  -6   3   3    1.01    0.37
   5  -3  -3    1.40    0.43
   5  -3  -3    1.27    0.41
  -5   3   3    1.25    0.32
  -5   3   3    1.71    0.35
  -5   3   3    1.19    0.29
   4  -3  -3   16.44    0.85
   4  -3  -3   15.96    0.83
  -4   3   3   15.83    0.76
  -4   3   3   16.30    0.70
  -4   3   3   17.58    0.78
   3  -3  -3   15.03    0.74
   3  -3  -3   15.54    0.26
   3  -3  -3   15.59    0.76
   3  -3  -3   14.54    0.72
   3  -3  -3   15.84    0.40
  -3   3   3   15.79    0.72
  -3   3   3   15.14    0.73
  -3   3   3   14.94    0.59
   2  -3  -3    0.15    0.19
   2  -3  -3    0.26    0.24
   2  -3  -3    0.33    0.15
   2  -3  -3    0.30    0.20
  -2   3   3    0.36    0.13
  -2   3   3    0.20    0.17
  -2   3   3    0.29    0.20
  -2   3   3    0.43    0.21
  -2   3   3    0.43    0.20
   1  -3  -3    1.39    0.28
   1  -3  -3    2.00    0.32
   1  -3  -3    1.57    0.35
  -1   3   3    1.48    0.24
  -1   3   3    1.73    0.31
  -1   3   3    1.44    0.28
  -1   3   3    1.65    0.21
  -1   3   3    1.42    0.29
  -1   3   3    1.20    0.27
   0  -3  -3    0.24    0.22
   0  -3  -3    0.68    0.21
   0  -3  -3    0.50    0.19
   0  -3  -3    0.53    0.24
   0   3   3    0.61    0.23
   0   3   3    0.58    0.20
   0   3   3    0.57    0.24
   0   3   3    0.37    0.16
   0   3   3    0.45    0.21
   0   3   3    0.59    0.20
   0   3   3    0.42    0.19
  -1  -3  -3    1.27    0.30
  -1  -3  -3    1.15    0.28
  -1  -3  -3    1.11    0.33
   1   3   3    0.50    0.21
   1   3   3    1.31    0.30
   1   3   3    0.94    0.24
   1   3   3    0.87    0.29
   1   3   3    1.18    0.31
   1   3   3    1.33    0.30
   1   3   3    1.24    0.32
  -2  -3  -3    0.49    0.25
  -2  -3  -3    0.12    0.24
  -2  -3  -3    0.21    0.26
   2   3   3    0.11    0.24
   2   3   3    0.37    0.29
   2   3   3    0.62    0.29
   2   3   3    0.66    0.26
   2   3   3    0.36    0.22
  -3  -3  -3    0.08    0.28
  -3  -3  -3   -0.02    0.31
   3   3   3    0.11    0.30
   3   3   3   -0.13    0.25
   3   3   3    0.46    0.25
  -4  -3  -3    0.53    0.39
  -4  -3  -3    0.46    0.32
   4   3   3    0.34    0.37
   4   3   3    0.32    0.28
   4   3   3    0.63    0.39
  -5  -3  -3    0.00    0.34
  -5  -3  -3   -0.01    0.32
   5   3   3    0.04    0.43
   5   3   3   -0.16    0.26
   5   3   3    0.07    0.39
  -6  -3  -3    0.93    0.57
  -6  -3  -3    0.16    0.38
   6   3   3   -0.02    0.44
   6   3   3    0.02    0.32
   9  -4  -3    0.33    0.49
   9  -4  -3    0.24    0.38
  -9   4   3    0.31    0.44
  -9   4   3   -0.92    0.28
   8  -4  -3   -0.25    0.31
   8  -4  -3    0.45    0.40
  -8   4   3    0.37    0.30
  -8   4   3    0.33    0.37
  -8   4   3    0.54    0.39
   7  -4  -3    0.86    0.42
   7  -4  -3    1.80    0.47
   7  -4  -3    0.80    0.40
  -7   4   3    1.54    0.47
  -7   4   3    1.00    0.33
  -7   4   3    1.42    0.45
   6  -4  -3    0.88    0.43
   6  -4  -3    1.05    0.36
   6  -4  -3    1.24    0.45
  -6   4   3    0.50    0.26
  -6   4   3    0.52    0.31
  -6   4   3    0.22    0.26
   5  -4  -3   -0.14    0.27
   5  -4  -3   -0.04    0.30
   5  -4  -3   -0.07    0.25
  -5   4   3    0.29    0.26
  -5   4   3    0.20    0.24
  -5   4   3    0.18    0.24
   4  -4  -3    7.02    0.72
   4  -4  -3    7.78    0.75
   4  -4  -3    7.05    0.68
  -4   4   3    6.57    0.46
  -4   4   3    5.44    0.58
  -4   4   3    6.60    0.66
   3  -4  -3    4.21    0.52
   3  -4  -3    3.94    0.37
   3  -4  -3    3.11    0.51
   3  -4  -3    3.20    0.42
  -3   4   3    3.22    0.45
  -3   4   3    3.00    0.45
   2  -4  -3   12.21    0.78
   2  -4  -3   11.97    0.64
   2  -4  -3   13.73    0.65
   2  -4  -3   12.59    0.61
  -2   4   3   14.07    0.73
  -2   4   3   13.45    0.53
  -2   4   3   13.74    0.67
  -2   4   3   13.18    0.68
  -2   4   3   12.03    0.71
   1  -4  -3    0.33    0.26
   1  -4  -3    0.19    0.17
   1  -4  -3    0.08    0.19
  -1   4   3    0.37    0.23
  -1   4   3   -0.01    0.12
  -1   4   3    0.43    0.23
  -1   4   3    0.28    0.19
  -1   4   3    0.54    0.21
  -1   4   3    0.35    0.19
   0  -4  -3   -0.14    0.21
   0  -4  -3   -0.09    0.24
   0  -4  -3    0.18    0.18
   0   4   3   -0.20    0.13
   0   4   3    0.52    0.26
   0   4   3    0.04    0.20
   0   4   3    0.16    0.18
  -1  -4  -3    1.87    0.47
  -1  -4  -3    1.24    0.31
  -1  -4  -3    1.92    0.42
   1   4   3    1.47    0.38
   1   4   3    1.54    0.31
   1   4   3    1.28    0.38
   1   4   3    1.57    0.36
   1   4   3    1.60    0.35
  -2  -4  -3    1.07    0.35
  -2  -4  -3    1.46    0.49
  -2  -4  -3    1.38    0.39
   2   4   3    1.64    0.36
   2   4   3    0.69    0.33
   2   4   3    1.21    0.44
  -3  -4  -3    0.60    0.32
  -3  -4  -3    0.38    0.36
   3   4   3    0.77    0.41
   3   4   3    1.22    0.45
   3   4   3    0.44    0.28
  -4  -4  -3    2.66    0.56
  -4  -4  -3    1.43    0.51
   4   4   3    1.85    0.46
   4   4   3    1.87    0.56
   4   4   3    1.75    0.61
  -5  -4  -3    0.64    0.42
  -5  -4  -3    0.30    0.36
   5   4   3   -0.26    0.37
   5   4   3    1.22    0.48
   5   4   3   -0.14    0.50
   9  -5  -3    0.97    0.51
   9  -5  -3    0.65    0.47
  -9   5   3    1.20    0.48
   8  -5  -3    0.25    0.38
   8  -5  -3   -0.26    0.30
   8  -5  -3   -0.13    0.37
  -8   5   3    0.25    0.38
  -8   5   3   -0.15    0.27
   7  -5  -3    5.34    0.72
   7  -5  -3    6.36    0.88
   7  -5  -3    4.33    0.71
  -7   5   3    6.87    0.75
  -7   5   3    4.59    0.66
   6  -5  -3   12.01    0.93
   6  -5  -3   12.81    0.99
   6  -5  -3   12.37    0.95
  -6   5   3   14.01    0.93
  -6   5   3   11.32    0.82
   5  -5  -3    1.49    0.47
   5  -5  -3    1.01    0.41
   5  -5  -3    1.09    0.45
  -5   5   3    1.13    0.35
  -5   5   3    1.94    0.45
   4  -5  -3    2.52    0.49
   4  -5  -3    2.37    0.50
   4  -5  -3    3.50    0.53
  -4   5   3    2.73    0.45
  -4   5   3    3.70    0.53
   3  -5  -3    0.18    0.28
   3  -5  -3   -0.04    0.24
   3  -5  -3    0.27    0.24
  -3   5   3   -0.12    0.22
  -3   5   3    0.35    0.26
   2  -5  -3    4.07    0.50
   2  -5  -3    2.91    0.52
  -2   5   3    2.98    0.46
  -2   5   3    3.93    0.54
   1  -5  -3    4.83    0.61
   1  -5  -3    4.18    0.62
  -1   5   3    4.53    0.64
  -1   5   3    4.18    0.48
  -1   5   3    4.81    0.58
   0  -5  -3    7.29    0.80
   0  -5  -3    5.74    0.72
   0   5   3    7.21    0.69
   0   5   3    6.40    0.65
   0   5   3    6.57    0.78
   0   5   3    6.55    0.56
  -1  -5  -3    0.21    0.32
  -1  -5  -3   -0.24    0.29
   1   5   3    0.14    0.21
   1   5   3    0.07    0.28
   1   5   3    0.08    0.30
  -2  -5  -3    1.17    0.46
   2   5   3    2.62    0.56
   2   5   3    2.27    0.58
   2   5   3    2.49    0.45
  -3  -5  -3    0.58    0.41
   3   5   3    2.07    0.63
   3   5   3    2.13    0.56
   3   5   3    1.48    0.43
  -4  -5  -3    0.13    0.44
   4   5   3   -0.02    0.30
   4   5   3   -0.22    0.50
   4   5   3    0.31    0.40
   9  -6  -3    2.36    0.72
   9  -6  -3    1.78    0.62
  -9   6   3    2.02    0.59
  -9   6   3    0.51    0.39
   8  -6  -3    4.62    0.84
   8  -6  -3    6.41    0.95
   8  -6  -3    5.63    0.84
  -8   6   3    4.80    0.77
  -8   6   3    4.02    0.64
   7  -6  -3    0.41    0.36
   7  -6  -3    0.53    0.42
   7  -6  -3   -0.08    0.34
  -7   6   3    0.08    0.28
  -7   6   3    0.28    0.29
   6  -6  -3    0.93    0.43
   6  -6  -3    0.73    0.42
   6  -6  -3    0.85    0.44
  -6   6   3    0.76    0.36
  -6   6   3    0.92    0.35
   5  -6  -3    1.68    0.51
   5  -6  -3    2.04    0.50
  -5   6   3    2.24    0.46
  -5   6   3    1.02    0.40
   4  -6  -3    5.75    0.69
   4  -6  -3    4.66    0.68
  -4   6   3    6.82    0.78
  -4   6   3    6.71    0.77
   3  -6  -3    4.07    0.69
  -3   6   3    5.03    0.71
  -3   6   3    3.91    0.60
   2  -6  -3    4.99    0.74
   2  -6  -3    4.38    0.61
  -2   6   3    4.00    0.65
  -2   6   3    3.77    0.56
   1  -6  -3    1.88    0.51
   1  -6  -3    1.66    0.45
  -1   6   3    1.75    0.42
  -1   6   3    1.46    0.44
   0  -6  -3    1.38    0.46
   0  -6  -3    2.55    0.54
   0   6   3    1.44    0.46
   0   6   3    2.27    0.48
   0   6   3    1.75    0.40
  -1  -6  -3    1.47    0.50
  -1  -6  -3    1.47    0.51
   1   6   3    1.50    0.46
   1   6   3    1.48    0.52
   1   6   3    1.76    0.39
  -2  -6  -3    0.04    0.37
   2   6   3    0.28    0.28
   2   6   3    0.47    0.38
   2   6   3    0.56    0.45
   8  -7  -3    0.73    0.49
   8  -7  -3    0.61    0.49
   8  -7  -3   -0.01    0.41
  -8   7   3    1.32    0.57
  -8   7   3    0.95    0.45
   7  -7  -3    2.53    0.68
   7  -7  -3    3.50    0.70
  -7   7   3    2.55    0.62
  -7   7   3    2.45    0.61
   6  -7  -3    0.66    0.46
   6  -7  -3    0.37    0.36
  -6   7   3    0.46    0.35
  -6   7   3    0.25    0.33
   5  -7  -3    0.12    0.36
  -5   7   3    0.86    0.41
  -5   7   3    0.13    0.32
   4  -7  -3    0.32    0.40
  -4   7   3    0.36    0.30
  -4   7   3    1.60    0.51
   3  -7  -3    2.03    0.54
  -3   7   3    1.77    0.47
  -3   7   3    1.95    0.45
   2  -7  -3    4.03    0.69
  -2   7   3    4.10    0.72
  -2   7   3    5.00    0.68
   1  -7  -3    0.33    0.35
   1  -7  -3    0.48    0.42
  -1   7   3    0.26    0.30
  -1   7   3    0.63    0.43
   0  -7  -3   -0.14    0.37
   0  -7  -3    0.82    0.40
   0   7   3   -0.10    0.35
  -1  -7  -3    0.59    0.46
   1   7   3    2.24    0.69
   1   7   3    0.83    0.41
   7  -8  -3   -0.10    0.42
  -7   8   3   -0.10    0.31
  -7   8   3   -0.29    0.39
   6  -8  -3    0.33    0.47
  -6   8   3    0.09    0.29
  -6   8   3    0.11    0.36
   5  -8  -3   -0.32    0.33
  -5   8   3    0.00    0.26
  -5   8   3    0.22    0.40
   4  -8  -3    4.84    0.84
  -4   8   3    6.31    0.90
  -4   8   3    4.83    0.72
   3  -8  -3   -0.36    0.36
  -3   8   3   -0.48    0.30
  -3   8   3   -0.32    0.23
   2  -8  -3    0.10    0.43
  -2   8   3    0.41    0.33
  -2   8   3    0.07    0.41
   1  -8  -3   -0.39    0.35
   1  -8  -3   -0.24    0.34
  -1   8   3   -0.06    0.38
  -1   8   3   -0.14    0.27
  -1  10  -4    1.18    0.49
  -1  10  -4    2.24    0.61
  -1  10  -4    0.92    0.44
   1 -10   4    1.43    0.66
   1 -10   4    1.52    0.75
  -2  10  -4    0.60    0.39
  -2  10  -4    0.01    0.39
  -2  10  -4   -0.16    0.31
   2 -10   4    0.65    0.56
   2 -10   4    0.05    0.49
  -3  10  -4    0.04    0.31
  -3  10  -4    0.00    0.30
  -3  10  -4    0.01    0.33
   3 -10   4    1.07    0.62
   3 -10   4   -0.53    0.43
  -4  10  -4    0.71    0.40
  -4  10  -4   -0.05    0.31
   4 -10   4    1.21    0.68
  -5  10  -4    1.47    0.53
  -5  10  -4    2.27    0.59
   5 -10   4    1.77    0.70
  -6  10  -4    2.44    0.60
  -6  10  -4    1.47    0.51
   6 -10   4    0.72    0.61
   1   9  -4    1.36    0.51
   1   9  -4    0.72    0.35
   1   9  -4    0.32    0.34
   1   9  -4    1.13    0.53
  -1  -9   4    1.01    0.56
  -1  -9   4    0.87    0.57
   0   9  -4    0.49    0.36
   0   9  -4    0.51    0.37
   0   9  -4    0.65    0.44
   0   9  -4   -0.06    0.23
   0  -9   4    0.28    0.44
   0  -9   4   -0.12    0.47
  -1   9  -4    0.67    0.29
  -1   9  -4    0.22    0.34
  -1   9  -4    0.70    0.38
  -1   9  -4    0.06    0.31
   1  -9   4    0.76    0.55
   1  -9   4    0.20    0.40
  -2   9  -4   -0.26    0.23
  -2   9  -4    0.84    0.38
  -2   9  -4    0.25    0.28
   2  -9   4    0.26    0.40
   2  -9   4    0.18    0.48
  -3   9  -4    0.19    0.32
  -3   9  -4    0.11    0.29
  -3   9  -4   -0.03    0.24
   3  -9   4    0.05    0.43
   3  -9   4   -0.23    0.40
  -4   9  -4    0.55    0.34
  -4   9  -4   -0.02    0.26
  -4   9  -4   -0.16    0.27
   4  -9   4    0.45    0.49
  -5   9  -4    0.73    0.35
  -5   9  -4   -0.21    0.24
   5  -9   4    0.82    0.55
  -6   9  -4   -0.11    0.32
  -6   9  -4   -0.15    0.25
   6  -9   4    0.30    0.47
  -7   9  -4    0.15    0.40
  -7   9  -4    0.42    0.36
   7  -9   4    0.07    0.49
   7  -9   4    0.28    0.42
  -8   9  -4    0.05    0.31
   8  -9   4    0.25    0.51
   2   8  -4    0.64    0.43
   2   8  -4    0.34    0.33
   2   8  -4    0.03    0.35
  -2  -8   4   -0.20    0.41
  -2  -8   4    1.00    0.56
   1   8  -4    0.24    0.27
   1   8  -4    0.20    0.33
   1   8  -4    0.25    0.32
   1   8  -4    0.12    0.35
  -1  -8   4   -0.18    0.43
  -1  -8   4   -0.15    0.42
   0   8  -4    0.38    0.28
   0   8  -4    0.74    0.29
   0   8  -4    0.13    0.36
   0   8  -4    0.14    0.29
   0  -8   4    0.39    0.41
   0  -8   4    0.12    0.39
  -1   8  -4    2.71    0.51
  -1   8  -4    1.82    0.34
  -1   8  -4    2.53    0.53
  -1   8  -4    2.02    0.51
   1  -8   4    1.58    0.54
   1  -8   4    1.26    0.62
  -2   8  -4   18.22    0.77
  -2   8  -4   18.53    0.97
  -2   8  -4   17.89    1.03
  -2   8  -4   16.93    0.98
   2  -8   4   19.06    1.26
   2  -8   4   15.36    1.18
  -3   8  -4    0.09    0.26
  -3   8  -4    0.53    0.30
  -3   8  -4    0.29    0.32
  -3   8  -4   -0.03    0.17
   3  -8   4   -0.18    0.36
  -4   8  -4    0.16    0.31
  -4   8  -4    0.24    0.25
  -4   8  -4    0.20    0.28
   4  -8   4    0.28    0.44
  -5   8  -4    0.21    0.28
  -5   8  -4    0.56    0.35
  -5   8  -4    0.14    0.29
   5  -8   4   -0.04    0.36
   5  -8   4    0.03    0.30
  -6   8  -4    0.21    0.24
  -6   8  -4   -0.10    0.29
   6  -8   4   -0.37    0.34
   6  -8   4   -0.12    0.32
  -7   8  -4    1.35    0.44
  -7   8  -4    0.21    0.41
   7  -8   4    1.49    0.54
   7  -8   4    1.03    0.50
  -8   8  -4    3.00    0.72
   8  -8   4    2.76    0.71
   8  -8   4    1.93    0.65
   4   7  -4    0.52    0.32
   4   7  -4    0.17    0.38
   4   7  -4    0.94    0.50
  -4  -7   4    0.64    0.48
   3   7  -4    0.17    0.32
   3   7  -4    0.74    0.40
   3   7  -4    0.54    0.31
  -3  -7   4    0.54    0.45
  -3  -7   4    0.15    0.44
   2   7  -4    1.24    0.40
   2   7  -4    1.97    0.41
   2   7  -4    2.21    0.56
   2   7  -4    1.94    0.47
  -2  -7   4    2.27    0.62
  -2  -7   4    1.97    0.54
   1   7  -4    1.27    0.43
   1   7  -4    0.89    0.30
   1   7  -4    0.53    0.31
   1   7  -4    1.49    0.42
  -1  -7   4    0.48    0.46
  -1  -7   4   -0.02    0.38
   0   7  -4   24.47    1.16
   0   7  -4   23.87    0.93
   0   7  -4   24.29    1.05
   0   7  -4   22.88    1.10
   0  -7   4   24.44    1.35
   0  -7   4   23.52    1.35
  -1   7  -4    2.13    0.41
  -1   7  -4    2.96    0.40
  -1   7  -4    1.95    0.43
  -1   7  -4    2.42    0.51
   1  -7   4    2.09    0.63
   1  -7   4    2.99    0.67
  -2   7  -4   12.93    0.87
  -2   7  -4   11.37    0.83
  -2   7  -4   12.84    0.74
  -2   7  -4   12.74    0.62
   2  -7   4   15.02    1.12
   2  -7   4   12.93    1.03
  -3   7  -4    0.57    0.33
  -3   7  -4    0.82    0.30
  -3   7  -4    0.49    0.23
  -3   7  -4    0.48    0.32
   3  -7   4    0.08    0.42
   3  -7   4    0.35    0.24
  -4   7  -4    0.47    0.29
  -4   7  -4    0.64    0.38
  -4   7  -4   -0.30    0.26
  -4   7  -4    0.10    0.18
   4  -7   4    0.30    0.29
   4  -7   4    0.07    0.23
   4  -7   4   -0.26    0.36
  -5   7  -4    0.93    0.24
  -5   7  -4    0.76    0.30
  -5   7  -4    0.97    0.43
  -5   7  -4    1.10    0.38
   5  -7   4    1.20    0.41
   5  -7   4    1.00    0.40
   5  -7   4    1.03    0.45
  -6   7  -4    5.15    0.69
  -6   7  -4    5.75    0.69
  -6   7  -4    6.58    0.79
   6  -7   4    6.70    0.83
   6  -7   4    6.80    0.80
   6  -7   4    6.51    0.87
  -7   7  -4    1.77    0.49
  -7   7  -4    1.39    0.41
   7  -7   4    1.81    0.59
   7  -7   4    1.54    0.50
  -8   7  -4    0.72    0.50
   8  -7   4   -0.15    0.37
   8  -7   4    0.79    0.46
  -9   7  -4    0.19    0.50
   9  -7   4    0.40    0.49
   9  -7   4    0.16    0.45
   5   6  -4   -0.03    0.29
   5   6  -4    0.17    0.41
  -5  -6   4    0.13    0.37
  -5  -6   4    1.78    0.67
   4   6  -4    2.20    0.53
   4   6  -4    1.67    0.41
   4   6  -4    1.82    0.56
  -4  -6   4    1.63    0.49
  -4  -6   4    1.86    0.53
  -4  -6   4    2.24    0.67
   3   6  -4   -0.21    0.23
   3   6  -4   -0.06    0.24
   3   6  -4   -0.04    0.31
   3   6  -4    0.22    0.23
  -3  -6   4    0.13    0.30
  -3  -6   4   -0.14    0.29
  -3  -6   4    0.65    0.40
   2   6  -4    2.32    0.44
   2   6  -4    2.04    0.38
   2   6  -4    2.90    0.49
   2   6  -4    2.39    0.52
  -2  -6   4    2.19    0.60
  -2  -6   4    1.96    0.57
  -2  -6   4    2.32    0.45
   1   6  -4   38.77    1.27
   1   6  -4   40.70    1.43
   1   6  -4   41.11    1.27
   1   6  -4   39.04    1.15
  -1  -6   4   38.71    1.60
  -1  -6   4   38.25    1.54
  -1  -6   4   39.33    1.20
   0   6  -4   10.93    0.81
   0   6  -4   11.63    0.73
   0   6  -4   11.26    0.59
   0   6  -4   13.04    0.70
   0  -6   4   11.49    0.65
   0  -6   4   12.82    0.97
   0  -6   4   12.24    0.93
  -1   6  -4    0.70    0.31
  -1   6  -4    1.12    0.32
  -1   6  -4    1.44    0.27
  -1   6  -4    1.08    0.27
   1  -6   4    1.12    0.42
   1  -6   4    1.40    0.29
   1  -6   4    0.75    0.37
  -2   6  -4    3.73    0.51
  -2   6  -4    2.50    0.43
  -2   6  -4    3.29    0.37
  -2   6  -4    3.01    0.40
   2  -6   4    3.07    0.56
   2  -6   4    3.80    0.45
   2  -6   4    3.28    0.38
   2  -6   4    3.67    0.46
   2  -6   4    3.39    0.58
  -3   6  -4    0.37    0.18
  -3   6  -4    0.26    0.24
  -3   6  -4    0.19    0.21
  -3   6  -4    0.73    0.32
  -3   6  -4    0.28    0.20
   3  -6   4    0.57    0.25
   3  -6   4    0.51    0.35
   3  -6   4    0.30    0.22
   3  -6   4    0.59    0.25
  -4   6  -4    5.18    0.63
  -4   6  -4    5.18    0.55
  -4   6  -4    4.75    0.56
  -4   6  -4    4.41    0.53
  -4   6  -4    4.28    0.41
   4  -6   4    3.37    0.53
   4  -6   4    4.44    0.65
   4  -6   4    4.03    0.51
   4  -6   4    4.60    0.57
  -5   6  -4    2.91    0.52
  -5   6  -4    3.00    0.47
  -5   6  -4    2.97    0.47
  -5   6  -4    2.22    0.46
  -5   6  -4    3.47    0.39
   5  -6   4    3.87    0.61
   5  -6   4    3.32    0.45
   5  -6   4    2.99    0.49
   5  -6   4    3.57    0.58
   5  -6   4    2.90    0.53
  -6   6  -4    0.36    0.32
  -6   6  -4    0.93    0.41
  -6   6  -4    0.33    0.21
  -6   6  -4    0.36    0.38
  -6   6  -4    0.44    0.28
   6  -6   4   -0.20    0.31
   6  -6   4    0.62    0.36
   6  -6   4    0.71    0.37
   6  -6   4    0.56    0.26
  -7   6  -4    2.69    0.62
  -7   6  -4    1.51    0.30
  -7   6  -4    1.98    0.50
  -7   6  -4    2.20    0.53
   7  -6   4    1.71    0.47
   7  -6   4    1.67    0.37
   7  -6   4    2.01    0.58
   7  -6   4    2.43    0.57
  -8   6  -4    2.98    0.66
  -8   6  -4    1.83    0.56
   8  -6   4    2.10    0.61
   8  -6   4    1.49    0.54
  -9   6  -4    0.20    0.42
  -9   6  -4   -0.27    0.42
   9  -6   4   -0.26    0.35
   9  -6   4   -0.05    0.42
   6   5  -4    0.54    0.34
   6   5  -4    0.23    0.39
  -6  -5   4    0.21    0.43
  -6  -5   4   -0.02    0.39
   5   5  -4    0.32    0.29
   5   5  -4   -0.15    0.32
  -5  -5   4   -0.05    0.36
  -5  -5   4    0.75    0.37
   4   5  -4    0.32    0.23
   4   5  -4    0.29    0.34
   4   5  -4    0.48    0.31
  -4  -5   4    0.67    0.44
  -4  -5   4    0.95    0.42
  -4  -5   4    1.13    0.40
   3   5  -4   34.45    1.18
   3   5  -4   36.20    1.43
   3   5  -4   36.26    1.20
   3   5  -4   35.14    1.28
  -3  -5   4   36.64    1.34
  -3  -5   4   35.71    1.56
  -3  -5   4   37.85    1.53
   2   5  -4    0.30    0.23
   2   5  -4    0.50    0.24
   2   5  -4    0.11    0.25
   2   5  -4    0.42    0.31
  -2  -5   4    0.46    0.37
  -2  -5   4   -0.02    0.22
  -2  -5   4    0.20    0.32
   1   5  -4    1.78    0.31
   1   5  -4    1.40    0.33
   1   5  -4    2.27    0.43
   1   5  -4    2.31    0.34
  -1  -5   4    1.90    0.47
  -1  -5   4    2.29    0.34
  -1  -5   4    2.11    0.48
  -1  -5   4    1.80    0.34
   0   5  -4    6.31    0.64
   0   5  -4    6.80    0.49
   0   5  -4    5.25    0.41
   0   5  -4    6.70    0.63
   0   5  -4    6.40    0.44
   0  -5   4    6.27    0.71
   0  -5   4    6.48    0.74
   0  -5   4    6.62    0.49
  -1   5  -4    0.51    0.27
  -1   5  -4    1.89    0.36
  -1   5  -4    0.91    0.22
  -1   5  -4    1.26    0.24
   1  -5   4    0.64    0.21
   1  -5   4    1.13    0.26
   1  -5   4    1.39    0.40
   1  -5   4    1.57    0.41
   1  -5   4    1.41    0.28
  -2   5  -4    4.09    0.41
  -2   5  -4    3.68    0.50
  -2   5  -4    3.67    0.36
  -2   5  -4    3.01    0.42
   2  -5   4    4.03    0.46
   2  -5   4    3.68    0.55
   2  -5   4    4.33    0.45
   2  -5   4    4.46    0.49
  -3   5  -4    2.36    0.36
  -3   5  -4    2.83    0.39
  -3   5  -4    2.71    0.33
  -3   5  -4    2.33    0.40
  -3   5  -4    2.87    0.41
   3  -5   4    1.96    0.41
   3  -5   4    2.99    0.46
   3  -5   4    3.18    0.46
   3  -5   4    2.28    0.36
   3  -5   4    2.76    0.38
  -4   5  -4    0.79    0.31
  -4   5  -4    0.51    0.23
  -4   5  -4    0.84    0.31
  -4   5  -4    0.29    0.24
  -4   5  -4    0.56    0.19
   4  -5   4    0.30    0.22
   4  -5   4    0.67    0.23
   4  -5   4    0.28    0.25
   4  -5   4    0.87    0.34
   4  -5   4    0.11    0.23
  -5   5  -4    4.00    0.59
  -5   5  -4    3.05    0.51
  -5   5  -4    2.81    0.47
  -5   5  -4    4.82    0.53
  -5   5  -4    3.76    0.39
   5  -5   4    2.83    0.55
   5  -5   4    3.67    0.44
   5  -5   4    4.13    0.52
   5  -5   4    3.95    0.66
   5  -5   4    4.28    0.58
  -6   5  -4    1.06    0.41
  -6   5  -4    0.41    0.36
  -6   5  -4    0.72    0.39
  -6   5  -4    0.55    0.21
  -6   5  -4    0.56    0.26
   6  -5   4    1.46    0.45
   6  -5   4    0.97    0.39
   6  -5   4    0.99    0.30
   6  -5   4    0.26    0.40
  -7   5  -4    0.09    0.34
  -7   5  -4    0.90    0.25
  -7   5  -4    0.12    0.35
  -7   5  -4   -0.13    0.30
   7  -5   4    0.44    0.41
   7  -5   4    0.49    0.40
   7  -5   4    0.67    0.37
   7  -5   4    0.35    0.24
  -8   5  -4   -0.12    0.16
  -8   5  -4    0.30    0.37
  -8   5  -4    0.41    0.42
  -8   5  -4   -0.13    0.34
   8  -5   4    0.36    0.39
   8  -5   4    0.02    0.25
   8  -5   4    0.10    0.36
   8  -5   4   -0.08    0.34
  -9   5  -4    0.08    0.20
  -9   5  -4    1.00    0.46
  -9   5  -4    1.49    0.67
   9  -5   4   -0.02    0.27
   9  -5   4    0.45    0.42
   9  -5   4   -0.27    0.35
   9  -5   4    0.40    0.41
   6   4  -4    0.18    0.25
   6   4  -4    0.07    0.35
  -6  -4   4    0.07    0.40
  -6  -4   4    0.09    0.37
   5   4  -4    3.92    0.53
   5   4  -4    4.31    0.66
  -5  -4   4    3.99    0.69
  -5  -4   4    4.64    0.66
  -5  -4   4    4.31    0.66
   4   4  -4    2.02    0.42
   4   4  -4    1.71    0.47
   4   4  -4    1.76    0.47
   4   4  -4    1.11    0.31
  -4  -4   4    2.31    0.52
  -4  -4   4    1.07    0.45
  -4  -4   4    1.01    0.39
   3   4  -4    0.31    0.21
   3   4  -4    0.12    0.26
   3   4  -4    0.09    0.21
   3   4  -4    0.60    0.27
   3   4  -4    0.12    0.25
  -3  -4   4    0.50    0.36
  -3  -4   4   -0.05    0.28
  -3  -4   4    0.15    0.26
   2   4  -4    1.93    0.36
   2   4  -4    1.73    0.30
   2   4  -4    2.24    0.40
   2   4  -4    1.42    0.34
   2   4  -4    1.80    0.31
   2   4  -4    1.86    0.32
  -2  -4   4    1.15    0.36
  -2  -4   4    2.31    0.48
  -2  -4   4    2.21    0.34
  -2  -4   4    2.19    0.40
   1   4  -4   18.92    0.75
   1   4  -4   17.83    0.80
   1   4  -4   18.57    0.65
   1   4  -4   17.48    0.65
   1   4  -4   19.00    0.71
   1   4  -4   18.40    0.83
  -1  -4   4   18.04    0.77
  -1  -4   4   17.76    0.91
  -1  -4   4   19.25    0.92
  -1  -4   4   18.15    0.77
  -1  -4   4   18.00    0.72
   0   4  -4    5.50    0.34
   0   4  -4    5.89    0.45
   0   4  -4    6.10    0.56
   0   4  -4    5.71    0.38
   0   4  -4    6.35    0.58
   0  -4   4    5.56    0.49
   0  -4   4    6.65    0.46
   0  -4   4    5.40    0.61
   0  -4   4    6.98    0.72
   0  -4   4    6.29    0.46
  -1   4  -4   37.35    1.11
  -1   4  -4   36.24    0.84
  -1   4  -4   34.72    1.05
  -1   4  -4   36.33    0.75
   1  -4   4   35.86    1.03
   1  -4   4   36.80    1.19
   1  -4   4   36.28    1.01
   1  -4   4   36.60    0.96
  -2   4  -4    1.96    0.26
  -2   4  -4    1.82    0.33
  -2   4  -4    1.49    0.36
  -2   4  -4    1.37    0.23
   2  -4   4    1.46    0.35
   2  -4   4    1.99    0.34
   2  -4   4    1.36    0.29
   2  -4   4    1.61    0.30
   2  -4   4    1.47    0.29
  -3   4  -4    0.20    0.14
  -3   4  -4    0.65    0.22
  -3   4  -4    0.76    0.25
  -3   4  -4    0.63    0.22
  -3   4  -4    0.26    0.24
   3  -4   4    0.45    0.25
   3  -4   4    0.27    0.16
   3  -4   4    0.81    0.26
   3  -4   4    0.30    0.19
   3  -4   4    0.30    0.24
  -4   4  -4   -0.11    0.24
  -4   4  -4    0.13    0.17
  -4   4  -4    0.29    0.21
  -4   4  -4   -0.12    0.22
  -4   4  -4    0.07    0.12
   4  -4   4    0.20    0.22
   4  -4   4   -0.05    0.20
   4  -4   4   -0.09    0.21
   4  -4   4    0.01    0.16
   4  -4   4   -0.05    0.18
  -5   4  -4    2.74    0.50
  -5   4  -4    2.05    0.42
  -5   4  -4    2.97    0.52
  -5   4  -4    2.85    0.39
  -5   4  -4    2.40    0.33
   5  -4   4    2.95    0.52
   5  -4   4    2.23    0.49
   5  -4   4    2.07    0.49
   5  -4   4    3.28    0.44
  -6   4  -4    0.32    0.34
  -6   4  -4   -0.07    0.17
  -6   4  -4    0.41    0.31
  -6   4  -4   -0.20    0.25
   6  -4   4    0.60    0.34
   6  -4   4   -0.36    0.30
   6  -4   4   -0.17    0.27
   6  -4   4    0.13    0.22
   6  -4   4   -0.04    0.28
  -7   4  -4    1.06    0.44
  -7   4  -4    0.87    0.26
  -7   4  -4    0.67    0.46
  -7   4  -4    1.36    0.48
   7  -4   4    0.29    0.38
   7  -4   4    0.90    0.43
   7  -4   4    0.28    0.33
   7  -4   4    0.91    0.33
   7  -4   4    0.94    0.41
  -8   4  -4    0.40    0.44
  -8   4  -4    0.16    0.37
  -8   4  -4    0.04    0.43
   8  -4   4   -0.04    0.30
   8  -4   4   -0.17    0.37
   8  -4   4   -0.14    0.23
   8  -4   4    0.53    0.42
  -9   4  -4    0.37    0.43
  -9   4  -4    0.12    0.37
  -9   4  -4    0.66    0.49
  -9   4  -4    0.85    0.63
   9  -4   4    0.80    0.50
   9  -4   4   -0.36    0.31
   9  -4   4   -0.14    0.46
   9  -4   4   -0.13    0.25
   7   3  -4    0.11    0.37
   7   3  -4   -0.08    0.27
   7   3  -4    0.27    0.34
  -7  -3   4   -0.12    0.34
  -7  -3   4   -0.16    0.35
  -7  -3   4   -0.01    0.35
   6   3  -4    0.78    0.30
   6   3  -4    0.29    0.36
   6   3  -4    0.28    0.36
  -6  -3   4    0.46    0.42
  -6  -3   4    0.63    0.39
   5   3  -4    0.81    0.29
   5   3  -4    1.61    0.44
   5   3  -4    1.25    0.41
   5   3  -4    0.94    0.42
  -5  -3   4    0.41    0.39
  -5  -3   4    1.04    0.39
  -5  -3   4    1.42    0.47
   4   3  -4   -0.03    0.25
   4   3  -4   -0.02    0.30
   4   3  -4   -0.16    0.21
   4   3  -4   -0.07    0.15
   4   3  -4   -0.31    0.22
  -4  -3   4   -0.01    0.27
  -4  -3   4    0.14    0.27
  -4  -3   4    0.29    0.29
   3   3  -4    3.98    0.50
   3   3  -4    4.01    0.51
   3   3  -4    3.49    0.45
   3   3  -4    3.61    0.42
   3   3  -4    3.92    0.46
  -3  -3   4    2.99    0.47
  -3  -3   4    3.85    0.52
  -3  -3   4    3.51    0.50
   2   3  -4    3.78    0.44
   2   3  -4    4.17    0.48
   2   3  -4    3.05    0.34
   2   3  -4    3.29    0.42
   2   3  -4    3.66    0.44
   2   3  -4    2.93    0.32
  -2  -3   4    3.50    0.46
  -2  -3   4    3.37    0.45
  -2  -3   4    3.13    0.47
  -2  -3   4    2.87    0.43
  -2  -3   4    2.94    0.39
   1   3  -4    6.13    0.55
   1   3  -4    6.55    0.44
   1   3  -4    4.77    0.48
   1   3  -4    6.26    0.55
   1   3  -4    6.25    0.31
   1   3  -4    6.12    0.37
  -1  -3   4    5.90    0.60
  -1  -3   4    6.11    0.48
  -1  -3   4    5.94    0.53
  -1  -3   4    6.16    0.60
  -1  -3   4    5.99    0.46
   0   3  -4    6.87    0.38
   0   3  -4    6.96    0.26
   0   3  -4    6.86    0.45
   0   3  -4    6.83    0.49
   0   3  -4    7.22    0.49
   0  -3   4    6.99    0.47
   0  -3   4    6.99    0.47
   0  -3   4    6.12    0.58
   0  -3   4    6.61    0.45
   0  -3   4    7.76    0.58
  -1   3  -4    0.95    0.27
  -1   3  -4    0.96    0.25
  -1   3  -4    0.97    0.18
  -1   3  -4    1.06    0.15
   1  -3   4    0.97    0.28
   1  -3   4    1.21    0.27
   1  -3   4    1.64    0.28
   1  -3   4    1.02    0.25
   1  -3   4    0.99    0.21
  -2   3  -4    3.28    0.41
  -2   3  -4    3.08    0.36
  -2   3  -4    3.41    0.31
  -2   3  -4    2.19    0.24
   2  -3   4    3.10    0.40
   2  -3   4    3.17    0.43
   2  -3   4    3.18    0.40
   2  -3   4    2.82    0.38
   2  -3   4    2.58    0.31
  -3   3  -4    0.44    0.21
  -3   3  -4    0.61    0.23
  -3   3  -4    0.25    0.13
  -3   3  -4    0.24    0.23
  -3   3  -4    0.37    0.22
   3  -3   4    0.26    0.19
   3  -3   4    0.52    0.23
   3  -3   4    0.33    0.17
   3  -3   4    0.59    0.25
   3  -3   4    0.83    0.28
  -4   3  -4    0.61    0.29
  -4   3  -4    0.80    0.30
  -4   3  -4    0.94    0.29
  -4   3  -4    0.94    0.21
  -4   3  -4    0.69    0.22
   4  -3   4    0.54    0.30
   4  -3   4    0.63    0.22
   4  -3   4    0.87    0.28
   4  -3   4    0.71    0.28
   4  -3   4    0.61    0.31
   4  -3   4    0.76    0.22
  -5   3  -4    1.25    0.42
  -5   3  -4    1.06    0.36
  -5   3  -4    0.95    0.24
  -5   3  -4    0.69    0.33
   5  -3   4    0.51    0.31
   5  -3   4    1.29    0.44
   5  -3   4    0.78    0.37
   5  -3   4    0.73    0.26
   5  -3   4    0.94    0.35
  -6   3  -4    2.53    0.53
  -6   3  -4    3.50    0.64
  -6   3  -4    4.92    0.72
   6  -3   4    2.83    0.63
   6  -3   4    3.48    0.50
   6  -3   4    3.89    0.61
   6  -3   4    3.92    0.64
   6  -3   4    3.04    0.64
  -7   3  -4    0.37    0.40
  -7   3  -4    0.31    0.35
  -7   3  -4    0.33    0.31
   7  -3   4    0.11    0.25
   7  -3   4    0.21    0.32
   7  -3   4    0.04    0.33
   7  -3   4    0.50    0.42
   7  -3   4    0.33    0.31
  -8   3  -4   -0.49    0.35
  -8   3  -4    0.27    0.38
  -8   3  -4   -0.10    0.36
  -8   3  -4    0.15    0.38
   8  -3   4   -0.27    0.37
   8  -3   4    0.03    0.38
   8  -3   4    0.01    0.39
   8  -3   4    0.54    0.33
   8   2  -4    0.03    0.29
   8   2  -4    0.21    0.34
   8   2  -4    0.78    0.56
  -8  -2   4    0.52    0.48
  -8  -2   4    0.22    0.44
   7   2  -4    0.07    0.20
   7   2  -4    0.08    0.35
   7   2  -4   -0.44    0.24
   7   2  -4   -0.10    0.34
  -7  -2   4   -0.49    0.31
  -7  -2   4   -0.08    0.37
   6   2  -4    0.58    0.38
   6   2  -4    0.57    0.31
   6   2  -4    0.18    0.37
   6   2  -4    0.96    0.30
  -6  -2   4    0.60    0.38
  -6  -2   4    0.35    0.35
  -6  -2   4    0.12    0.35
   5   2  -4    1.20    0.28
   5   2  -4    1.19    0.38
   5   2  -4    1.18    0.40
   5   2  -4    1.63    0.36
   5   2  -4    1.31    0.45
  -5  -2   4    1.24    0.42
  -5  -2   4    0.76    0.36
  -5  -2   4    1.33    0.38
  -5  -2   4    2.03    0.45
   4   2  -4    0.79    0.27
   4   2  -4    0.33    0.26
   4   2  -4    0.74    0.21
   4   2  -4    0.63    0.29
   4   2  -4    0.22    0.23
  -4  -2   4    1.14    0.31
  -4  -2   4    0.70    0.30
  -4  -2   4    0.93    0.31
  -4  -2   4    0.96    0.33
   3   2  -4    1.31    0.34
   3   2  -4    1.89    0.33
   3   2  -4    1.06    0.24
   3   2  -4    1.23    0.27
   3   2  -4    0.98    0.28
  -3  -2   4    1.02    0.28
  -3  -2   4    0.96    0.28
  -3  -2   4    1.63    0.37
  -3  -2   4    1.01    0.32
   2   2  -4    2.92    0.38
   2   2  -4    2.76    0.36
   2   2  -4    2.67    0.29
   2   2  -4    2.90    0.39
   2   2  -4    3.06    0.43
  -2  -2   4    2.70    0.40
  -2  -2   4    1.99    0.34
  -2  -2   4    2.84    0.43
  -2  -2   4    2.61    0.38
  -2  -2   4    2.17    0.35
   1   2  -4   47.97    1.09
   1   2  -4   49.87    1.11
   1   2  -4   48.92    0.90
   1   2  -4   49.16    1.09
   1   2  -4   50.87    1.19
  -1  -2   4   51.09    1.17
  -1  -2   4   49.82    1.23
  -1  -2   4   48.92    1.17
  -1  -2   4   48.61    1.15
  -1  -2   4   48.30    1.22
   0   2  -4   51.04    0.89
   0   2  -4   49.87    1.09
   0   2  -4   49.62    1.10
   0  -2   4   51.33    1.15
   0  -2   4   49.56    1.15
   0  -2   4   51.05    1.19
   0  -2   4   51.63    1.20
  -1   2  -4   26.97    0.50
  -1   2  -4   26.01    0.77
  -1   2  -4   25.60    0.84
   1  -2   4   26.24    0.82
   1  -2   4   26.32    0.89
   1  -2   4   26.80    0.92
   1  -2   4   26.63    0.75
   1  -2   4   25.52    0.85
  -2   2  -4    0.90    0.25
  -2   2  -4    0.98    0.18
  -2   2  -4    1.54    0.24
  -2   2  -4    1.18    0.24
   2  -2   4    0.85    0.21
   2  -2   4    1.04    0.27
   2  -2   4    0.89    0.25
   2  -2   4    1.20    0.24
   2  -2   4    1.05    0.27
   2  -2   4    1.36    0.31
  -3   2  -4    1.26    0.23
  -3   2  -4    0.86    0.25
  -3   2  -4    0.78    0.27
  -3   2  -4    0.80    0.28
  -3   2  -4    0.99    0.18
   3  -2   4    0.91    0.28
   3  -2   4    0.98    0.27
   3  -2   4    0.90    0.28
   3  -2   4    0.80    0.26
   3  -2   4    0.69    0.21
   3  -2   4    1.65    0.25
  -4   2  -4    2.48    0.41
  -4   2  -4    2.22    0.41
  -4   2  -4    2.36    0.44
   4  -2   4    2.63    0.47
   4  -2   4    2.31    0.42
   4  -2   4    2.88    0.45
   4  -2   4    2.23    0.46
   4  -2   4    2.63    0.38
  -5   2  -4    8.37    0.81
  -5   2  -4    9.13    0.93
   5  -2   4    8.04    0.61
   5  -2   4    8.36    0.89
   5  -2   4    7.79    0.76
   5  -2   4    7.40    0.81
   5  -2   4    8.29    0.87
  -6   2  -4   -0.19    0.40
  -6   2  -4    0.11    0.35
   6  -2   4    0.09    0.30
   6  -2   4    0.35    0.26
   6  -2   4    0.17    0.29
   6  -2   4   -0.12    0.28
   6  -2   4   -0.35    0.32
  -7   2  -4   -0.38    0.30
  -7   2  -4    0.07    0.33
  -7   2  -4    0.06    0.31
   7  -2   4    0.02    0.31
   7  -2   4   -0.19    0.31
   7  -2   4   -0.26    0.26
   7  -2   4   -0.03    0.25
  -8   2  -4    0.00    0.28
  -8   2  -4    1.36    0.63
  -8   2  -4    0.53    0.45
   8  -2   4    1.65    0.55
   8  -2   4    0.69    0.38
   8  -2   4    1.19    0.55
   8  -2   4    0.85    0.51
   8   1  -4    1.83    0.43
   8   1  -4    1.94    0.53
   8   1  -4    0.80    0.53
   8   1  -4    2.21    0.63
  -8  -1   4    1.16    0.52
  -8  -1   4    1.26    0.48
   7   1  -4    1.19    0.33
   7   1  -4    2.23    0.47
   7   1  -4    1.94    0.53
   7   1  -4    1.27    0.55
  -7  -1   4    1.23    0.49
  -7  -1   4    1.03    0.44
   6   1  -4    2.20    0.54
   6   1  -4    3.07    0.66
   6   1  -4    3.00    0.51
   6   1  -4    2.42    0.38
  -6  -1   4    1.75    0.45
  -6  -1   4    3.19    0.56
  -6  -1   4    2.54    0.57
  -6  -1   4    2.37    0.46
   5   1  -4    0.18    0.15
   5   1  -4    0.15    0.20
   5   1  -4    0.42    0.32
   5   1  -4    0.23    0.22
   5   1  -4    0.55    0.35
  -5  -1   4    0.03    0.27
  -5  -1   4   -0.08    0.20
  -5  -1   4   -0.11    0.25
  -5  -1   4   -0.03    0.20
  -5  -1   4   -0.02    0.21
   4   1  -4    0.10    0.14
   4   1  -4   -0.08    0.14
   4   1  -4    0.02    0.26
   4   1  -4    0.37    0.23
   4   1  -4    0.05    0.17
  -4  -1   4    0.00    0.21
  -4  -1   4    0.05    0.16
  -4  -1   4   -0.22    0.15
  -4  -1   4   -0.11    0.16
  -4  -1   4    0.01    0.18
   3   1  -4   98.69    1.54
   3   1  -4   99.75    1.81
   3   1  -4   99.78    1.36
   3   1  -4   94.98    1.87
  -3  -1   4  100.62    1.60
  -3  -1   4   95.12    1.80
  -3  -1   4   98.41    1.54
  -3  -1   4   96.45    1.33
  -3  -1   4   96.80    1.81
  -3  -1   4   99.10    1.87
   2   1  -4    0.34    0.18
   2   1  -4    0.24    0.13
   2   1  -4    0.34    0.16
   2   1  -4    0.49    0.22
  -2  -1   4    0.06    0.17
  -2  -1   4    0.14    0.15
  -2  -1   4    0.12    0.20
  -2  -1   4    0.27    0.18
  -2  -1   4    0.18    0.11
  -2  -1   4    0.06    0.17
  -2  -1   4    0.36    0.21
   1   1  -4    4.46    0.28
   1   1  -4    3.73    0.40
   1   1  -4    3.93    0.37
   1   1  -4    2.91    0.37
  -1  -1   4    4.09    0.42
  -1  -1   4    3.17    0.40
  -1  -1   4    3.10    0.39
  -1  -1   4    3.18    0.34
  -1  -1   4    3.84    0.42
   0   1  -4    1.99    0.31
   0   1  -4    2.49    0.24
   0  -1   4    2.56    0.33
   0  -1   4    2.11    0.15
   0  -1   4    1.92    0.28
   0  -1   4    2.13    0.32
   0  -1   4    2.45    0.32
   0  -1   4    2.57    0.29
   0  -1   4    1.68    0.29
  -1   1  -4    9.10    0.51
  -1   1  -4    8.92    0.46
  -1   1  -4    8.54    0.37
   1  -1   4    9.27    0.45
   1  -1   4    7.46    0.48
   1  -1   4    9.19    0.58
   1  -1   4    8.03    0.43
   1  -1   4    7.59    0.48
   1  -1   4    9.06    0.48
  -2   1  -4    2.79    0.31
  -2   1  -4    2.56    0.39
  -2   1  -4    2.32    0.35
   2  -1   4    2.73    0.40
   2  -1   4    2.89    0.41
   2  -1   4    2.89    0.35
   2  -1   4    2.32    0.35
   2  -1   4    2.82    0.42
   2  -1   4    2.80    0.31
   2  -1   4    2.62    0.31
  -3   1  -4    3.95    0.52
   3  -1   4    3.80    0.53
   3  -1   4    3.08    0.47
   3  -1   4    4.18    0.31
   3  -1   4    4.24    0.53
   3  -1   4    3.61    0.47
   3  -1   4    3.50    0.41
  -4   1  -4   17.79    0.94
   4  -1   4   16.45    0.93
   4  -1   4   16.78    0.78
   4  -1   4   16.22    0.88
   4  -1   4   18.33    1.00
   4  -1   4   17.48    0.94
  -5   1  -4    0.33    0.33
   5  -1   4    0.33    0.33
   5  -1   4   -0.09    0.24
   5  -1   4    0.06    0.33
   5  -1   4    0.09    0.19
   5  -1   4   -0.23    0.26
  -6   1  -4    0.40    0.37
  -6   1  -4   -0.03    0.30
   6  -1   4    0.44    0.36
   6  -1   4   -0.26    0.28
   6  -1   4    0.16    0.24
   6  -1   4    0.51    0.35
   6  -1   4    0.31    0.43
  -7   1  -4   -0.22    0.28
  -7   1  -4    0.73    0.45
  -7   1  -4    0.14    0.41
   7  -1   4    0.89    0.48
   7  -1   4    0.05    0.28
   7  -1   4    0.19    0.36
   7  -1   4    0.56    0.39
  -8   1  -4   -0.01    0.47
  -8   1  -4    0.19    0.35
  -8   1  -4   -0.31    0.35
   8  -1   4    0.29    0.35
   8  -1   4    0.13    0.46
   8  -1   4   -0.67    0.30
   8  -1   4   -0.25    0.36
   9   0  -4    0.00    0.22
   9   0  -4    0.41    0.51
   9   0  -4    0.37    0.43
  -9   0   4   -0.12    0.41
  -9   0   4   -0.14    0.34
   8   0  -4    0.59    0.27
   8   0  -4    0.69    0.41
   8   0  -4    0.72    0.49
  -8   0   4    1.01    0.47
  -8   0   4    0.30    0.33
   7   0  -4    1.57    0.53
   7   0  -4    2.15    0.60
   7   0  -4    0.50    0.24
   7   0  -4    2.05    0.42
  -7   0   4    0.78    0.39
  -7   0   4    1.07    0.45
   6   0  -4   -0.14    0.34
   6   0  -4    0.26    0.18
   6   0  -4    0.70    0.41
   6   0  -4    0.15    0.21
  -6   0   4    0.36    0.23
  -6   0   4    0.29    0.33
  -6   0   4    0.00    0.29
  -6   0   4   -0.15    0.25
   5   0  -4   27.03    0.89
   5   0  -4   25.97    0.79
   5   0  -4   23.39    1.17
   5   0  -4   25.66    1.17
  -5   0   4   24.81    0.89
  -5   0   4   25.53    0.97
  -5   0   4   27.99    1.08
  -5   0   4   27.46    1.14
  -5   0   4   25.11    0.81
   4   0  -4   35.76    0.83
   4   0  -4   36.61    0.91
   4   0  -4   35.28    1.20
   4   0  -4   34.40    1.26
  -4   0   4   36.04    1.17
  -4   0   4   36.50    1.01
  -4   0   4   35.17    0.99
  -4   0   4   34.20    1.14
  -4   0   4   36.56    0.85
   3   0  -4    2.20    0.37
   3   0  -4    2.32    0.28
   3   0  -4    2.95    0.27
   3   0  -4    2.81    0.43
  -3   0   4    2.04    0.38
  -3   0   4    3.37    0.33
  -3   0   4    2.79    0.40
  -3   0   4    1.71    0.37
  -3   0   4    2.52    0.28
  -3   0   4    2.66    0.36
  -3   0   4    2.59    0.39
   2   0  -4    0.70    0.15
   2   0  -4    0.26    0.20
   2   0  -4    0.63    0.18
   2   0  -4    0.40    0.18
  -2   0   4    0.82    0.25
  -2   0   4    0.39    0.12
  -2   0   4    0.61    0.22
  -2   0   4    0.50    0.20
  -2   0   4    0.70    0.21
  -2   0   4    0.41    0.22
   1   0  -4    6.75    0.39
   1   0  -4    5.81    0.45
   1   0  -4    6.07    0.30
   1   0  -4    6.58    0.47
  -1   0   4    6.64    0.49
  -1   0   4    6.52    0.36
  -1   0   4    6.41    0.46
  -1   0   4    4.83    0.48
  -1   0   4    7.19    0.46
  -1   0   4    6.69    0.29
  -1   0   4    7.20    0.45
   0   0  -4    0.15    0.09
   0   0  -4    0.11    0.15
   0   0   4    0.22    0.18
   0   0   4    0.35    0.16
   0   0   4    0.10    0.13
   0   0   4    0.11    0.15
   0   0   4    0.16    0.10
   0   0   4    0.10    0.16
   0   0   4    0.13    0.12
   0   0   4    0.21    0.16
  -1   0  -4    2.24    0.34
  -1   0  -4    2.21    0.23
   1   0   4    2.45    0.29
   1   0   4    1.44    0.27
   1   0   4    2.06    0.34
   1   0   4    2.23    0.33
   1   0   4    2.78    0.31
   1   0   4    2.67    0.40
   1   0   4    1.92    0.27
   1   0   4    2.68    0.33
  -2   0  -4  168.70    2.37
   2   0   4  166.03    2.05
   2   0   4  168.97    2.43
   2   0   4  171.11    2.50
   2   0   4  167.99    1.80
   2   0   4  169.21    2.38
   2   0   4  168.24    2.35
   2   0   4  170.75    2.19
  -3   0  -4    6.16    0.66
   3   0   4    5.54    0.68
   3   0   4    3.77    0.51
   3   0   4    5.38    0.52
   3   0   4    4.73    0.60
   3   0   4    4.14    0.54
   3   0   4    4.27    0.51
  -4   0  -4   -0.08    0.22
  -4   0  -4   -0.10    0.26
   4   0   4    0.19    0.26
   4   0   4    0.28    0.22
   4   0   4    0.40    0.30
   4   0   4    0.07    0.24
   4   0   4    0.24    0.28
  -5   0  -4   -0.34    0.28
  -5   0  -4   -0.25    0.28
   5   0   4    0.03    0.29
   5   0   4   -0.25    0.27
   5   0   4   -0.05    0.27
   5   0   4   -0.01    0.27
   5   0   4   -0.04    0.18
  -6   0  -4   -0.04    0.30
  -6   0  -4    0.58    0.39
   6   0   4    0.36    0.29
   6   0   4    0.28    0.28
   6   0   4   -0.06    0.32
   6   0   4    0.03    0.34
  -7   0  -4    2.49    0.65
  -7   0  -4    1.39    0.55
   7   0   4    1.15    0.52
   7   0   4    1.54    0.44
   7   0   4    0.50    0.49
   7   0   4    1.17    0.47
   9  -1  -4    0.35    0.47
   9  -1  -4    0.45    0.44
  -9   1   4    0.93    0.48
  -9   1   4    0.07    0.43
   8  -1  -4    0.49    0.34
   8  -1  -4    0.86    0.49
  -8   1   4    0.07    0.40
  -8   1   4    0.70    0.41
   7  -1  -4    3.30    0.70
   7  -1  -4    2.53    0.59
   7  -1  -4    3.15    0.40
  -7   1   4    1.22    0.49
  -7   1   4    2.47    0.52
   6  -1  -4   20.42    0.72
   6  -1  -4   19.75    1.20
   6  -1  -4   20.17    1.16
  -6   1   4   20.63    1.03
  -6   1   4   18.94    1.06
  -6   1   4   19.48    0.85
  -6   1   4   21.10    1.02
   5  -1  -4    0.34    0.15
   5  -1  -4   -0.42    0.20
   5  -1  -4    0.25    0.16
   5  -1  -4    0.20    0.29
  -5   1   4    0.81    0.32
  -5   1   4   -0.01    0.23
  -5   1   4    0.42    0.23
  -5   1   4    0.32    0.27
   4  -1  -4    0.21    0.25
   4  -1  -4    0.03    0.21
   4  -1  -4   -0.07    0.11
   4  -1  -4    0.07    0.10
  -4   1   4   -0.03    0.16
  -4   1   4   -0.15    0.15
  -4   1   4    0.11    0.19
  -4   1   4   -0.08    0.16
   3  -1  -4    1.79    0.21
   3  -1  -4    1.53    0.33
   3  -1  -4    1.99    0.23
   3  -1  -4    1.11    0.29
  -3   1   4    1.88    0.37
  -3   1   4    1.46    0.31
  -3   1   4    1.48    0.25
  -3   1   4    2.21    0.40
  -3   1   4    1.41    0.29
  -3   1   4    1.78    0.35
   2  -1  -4   10.75    0.62
   2  -1  -4   10.14    0.36
   2  -1  -4    9.47    0.41
   2  -1  -4   11.52    0.64
  -2   1   4   10.74    0.57
  -2   1   4   10.54    0.46
  -2   1   4   10.36    0.64
  -2   1   4    9.85    0.64
  -2   1   4    9.98    0.55
  -2   1   4   10.81    0.64
   1  -1  -4    4.58    0.50
   1  -1  -4    4.00    0.43
   1  -1  -4    3.67    0.33
   1  -1  -4    3.92    0.24
  -1   1   4    3.22    0.40
  -1   1   4    4.14    0.31
  -1   1   4    4.10    0.36
  -1   1   4    4.34    0.49
  -1   1   4    5.02    0.46
  -1   1   4    3.31    0.36
  -1   1   4    4.41    0.30
   0  -1  -4  180.42    1.54
   0   1   4  183.41    2.34
   0   1   4  180.33    2.18
   0   1   4  182.26    2.37
   0   1   4  178.83    2.04
   0   1   4  182.38    2.06
   0   1   4  179.71    1.84
   0   1   4  178.10    1.96
  -1  -1  -4   23.32    0.88
  -1  -1  -4   23.72    0.92
   1   1   4   25.24    0.96
   1   1   4   22.76    0.84
   1   1   4   24.48    0.91
   1   1   4   24.15    0.87
   1   1   4   24.27    0.77
   1   1   4   23.72    0.88
   1   1   4   23.47    0.73
  -2  -1  -4   -0.13    0.15
  -2  -1  -4   -0.32    0.18
  -2  -1  -4   -0.07    0.22
   2   1   4    0.24    0.23
   2   1   4   -0.26    0.18
   2   1   4    0.11    0.16
   2   1   4   -0.18    0.17
   2   1   4    0.06    0.14
   2   1   4   -0.19    0.14
   2   1   4   -0.01    0.21
  -3  -1  -4    1.71    0.38
  -3  -1  -4    1.49    0.43
   3   1   4    1.67    0.42
   3   1   4    1.19    0.36
   3   1   4    1.67    0.33
   3   1   4    1.35    0.40
   3   1   4    0.36    0.30
   3   1   4    1.78    0.41
  -4  -1  -4    1.52    0.41
  -4  -1  -4    1.24    0.42
   4   1   4    1.65    0.46
   4   1   4    2.18    0.54
   4   1   4    1.50    0.47
   4   1   4    0.98    0.37
   4   1   4    2.02    0.41
   4   1   4    2.05    0.45
  -5  -1  -4    1.36    0.48
  -5  -1  -4    1.63    0.43
   5   1   4    2.64    0.57
   5   1   4    2.31    0.54
   5   1   4    2.25    0.53
   5   1   4    1.60    0.41
   5   1   4    1.94    0.51
  -6  -1  -4    1.14    0.53
  -6  -1  -4    0.13    0.36
   6   1   4    0.36    0.40
   6   1   4    0.12    0.24
   6   1   4   -0.09    0.29
   6   1   4   -0.15    0.32
  -7  -1  -4   -0.37    0.40
  -7  -1  -4   -0.24    0.26
   7   1   4   -0.05    0.31
   7   1   4    0.58    0.44
   7   1   4    0.00    0.40
   9  -2  -4    0.28    0.44
   9  -2  -4    0.56    0.49
  -9   2   4    0.64    0.51
  -9   2   4    0.76    0.50
   8  -2  -4    3.06    0.71
   8  -2  -4    2.80    0.66
  -8   2   4    4.46    0.73
  -8   2   4    1.35    0.51
   7  -2  -4    8.50    1.03
   7  -2  -4    6.45    0.83
  -7   2   4    8.23    0.67
  -7   2   4    9.29    0.91
  -7   2   4    7.77    0.83
   6  -2  -4    0.16    0.34
   6  -2  -4   -0.14    0.31
  -6   2   4   -0.20    0.21
  -6   2   4    0.04    0.24
  -6   2   4   -0.22    0.27
   5  -2  -4    4.60    0.61
   5  -2  -4    6.84    0.35
   5  -2  -4    6.06    0.70
  -5   2   4    5.46    0.56
  -5   2   4    5.38    0.56
  -5   2   4    6.32    0.66
   4  -2  -4    1.95    0.44
   4  -2  -4    2.82    0.49
   4  -2  -4    1.74    0.16
  -4   2   4    1.80    0.36
  -4   2   4    2.14    0.39
  -4   2   4    1.43    0.31
   3  -2  -4    5.77    0.29
   3  -2  -4    6.81    0.67
   3  -2  -4    7.03    0.67
  -3   2   4    6.72    0.66
  -3   2   4    5.79    0.53
  -3   2   4    6.55    0.66
  -3   2   4    6.13    0.45
  -3   2   4    5.90    0.55
   2  -2  -4    8.13    0.57
   2  -2  -4    8.54    0.39
   2  -2  -4    8.81    0.58
   2  -2  -4    8.46    0.38
  -2   2   4    7.93    0.59
  -2   2   4    8.30    0.52
  -2   2   4    8.32    0.37
  -2   2   4    8.89    0.62
  -2   2   4    8.54    0.55
  -2   2   4    7.83    0.48
   1  -2  -4   22.19    0.83
   1  -2  -4   21.57    0.73
   1  -2  -4   22.43    0.85
   1  -2  -4   21.89    0.52
  -1   2   4   23.07    0.79
  -1   2   4   22.03    0.69
  -1   2   4   21.51    0.82
  -1   2   4   21.81    0.61
  -1   2   4   22.27    0.88
  -1   2   4   21.91    0.88
  -1   2   4   22.28    0.79
   0  -2  -4    2.55    0.39
   0  -2  -4    2.96    0.42
   0   2   4    2.74    0.39
   0   2   4    2.22    0.34
   0   2   4    3.25    0.35
   0   2   4    2.48    0.38
   0   2   4    3.02    0.38
   0   2   4    2.04    0.32
   0   2   4    2.15    0.36
  -1  -2  -4    0.21    0.22
  -1  -2  -4    0.16    0.20
  -1  -2  -4    0.33    0.23
   1   2   4    0.07    0.16
   1   2   4   -0.01    0.15
   1   2   4    0.09    0.21
   1   2   4    0.08    0.18
   1   2   4    0.21    0.22
   1   2   4   -0.16    0.16
   1   2   4    0.36    0.22
  -2  -2  -4    8.33    0.73
  -2  -2  -4    7.32    0.77
  -2  -2  -4    8.23    0.56
   2   2   4    8.90    0.68
   2   2   4    7.93    0.74
   2   2   4    8.32    0.49
   2   2   4    8.26    0.67
   2   2   4    8.61    0.65
   2   2   4    7.45    0.53
   2   2   4    9.05    0.68
  -3  -2  -4    4.36    0.63
  -3  -2  -4    4.60    0.71
   3   2   4    6.50    0.73
   3   2   4    5.14    0.59
   3   2   4    4.39    0.62
   3   2   4    4.35    0.60
   3   2   4    4.52    0.64
   3   2   4    4.70    0.67
  -4  -2  -4    0.09    0.35
  -4  -2  -4    0.03    0.28
   4   2   4   -0.17    0.26
   4   2   4    0.18    0.31
   4   2   4   -0.21    0.28
   4   2   4    0.15    0.21
   4   2   4    0.03    0.34
  -5  -2  -4    0.01    0.28
  -5  -2  -4   -0.12    0.37
   5   2   4    0.42    0.28
   5   2   4    0.18    0.38
   5   2   4    0.15    0.36
  -6  -2  -4    0.71    0.45
  -6  -2  -4   -0.18    0.30
   6   2   4   -0.20    0.30
   6   2   4   -0.14    0.42
   9  -3  -4    2.87    0.78
   9  -3  -4    2.02    0.60
  -9   3   4    2.82    0.68
  -9   3   4    3.81    0.75
   8  -3  -4   -0.14    0.30
   8  -3  -4   -0.03    0.38
  -8   3   4   -0.11    0.33
  -8   3   4   -0.34    0.27
  -8   3   4    0.57    0.28
   7  -3  -4    0.62    0.45
   7  -3  -4   -0.10    0.30
  -7   3   4    0.38    0.35
  -7   3   4    1.10    0.36
  -7   3   4    0.29    0.30
   6  -3  -4    0.38    0.36
   6  -3  -4    0.52    0.42
  -6   3   4    0.71    0.32
  -6   3   4    0.30    0.31
  -6   3   4    0.62    0.31
   5  -3  -4    3.19    0.59
   5  -3  -4    2.76    0.52
  -5   3   4    3.95    0.52
  -5   3   4    3.22    0.51
  -5   3   4    4.24    0.54
   4  -3  -4    1.43    0.40
   4  -3  -4    0.88    0.37
  -4   3   4    1.58    0.33
  -4   3   4    1.32    0.32
  -4   3   4    1.66    0.34
   3  -3  -4    2.33    0.42
   3  -3  -4    2.39    0.21
   3  -3  -4    2.77    0.47
  -3   3   4    2.90    0.46
  -3   3   4    2.88    0.38
  -3   3   4    2.98    0.42
  -3   3   4    2.60    0.43
  -3   3   4    2.76    0.46
   2  -3  -4    0.27    0.22
   2  -3  -4    0.54    0.18
   2  -3  -4    0.07    0.20
   2  -3  -4    0.02    0.22
   2  -3  -4    0.11    0.10
  -2   3   4    0.22    0.17
  -2   3   4    0.37    0.19
  -2   3   4    0.16    0.21
  -2   3   4    0.26    0.12
  -2   3   4    0.20    0.20
  -2   3   4    0.26    0.14
  -2   3   4    0.12    0.22
   1  -3  -4    8.90    0.58
   1  -3  -4    9.25    0.57
   1  -3  -4    8.39    0.58
   1  -3  -4    8.54    0.66
  -1   3   4    7.90    0.56
  -1   3   4    9.06    0.54
  -1   3   4    8.76    0.44
  -1   3   4    8.36    0.61
  -1   3   4    8.70    0.58
  -1   3   4    8.25    0.60
  -1   3   4    8.77    0.52
   0  -3  -4    1.15    0.34
   0  -3  -4    1.35    0.34
   0  -3  -4    1.43    0.33
   0  -3  -4    1.17    0.29
   0  -3  -4    0.83    0.27
   0   3   4    1.51    0.27
   0   3   4    1.53    0.32
   0   3   4    1.25    0.31
   0   3   4    0.61    0.25
   0   3   4    0.72    0.25
   0   3   4    1.40    0.31
   0   3   4    1.62    0.35
  -1  -3  -4    2.17    0.42
  -1  -3  -4    2.05    0.46
  -1  -3  -4    2.09    0.40
   1   3   4    2.34    0.42
   1   3   4    2.28    0.42
   1   3   4    2.29    0.41
   1   3   4    1.42    0.37
   1   3   4    2.23    0.42
   1   3   4    2.32    0.37
   1   3   4    1.82    0.33
  -2  -3  -4    0.28    0.29
  -2  -3  -4   -0.25    0.23
  -2  -3  -4   -0.09    0.25
   2   3   4    0.52    0.34
   2   3   4   -0.01    0.28
   2   3   4    0.26    0.24
   2   3   4    0.29    0.29
   2   3   4    0.29    0.29
  -3  -3  -4    0.23    0.33
  -3  -3  -4    0.32    0.30
   3   3   4    0.08    0.22
   3   3   4    0.61    0.41
   3   3   4    0.42    0.32
   3   3   4    0.20    0.34
  -4  -3  -4    0.46    0.36
  -4  -3  -4   -0.03    0.31
   4   3   4    0.20    0.27
   4   3   4    0.14    0.38
   4   3   4    0.06    0.33
  -5  -3  -4    0.48    0.46
  -5  -3  -4    0.52    0.39
   5   3   4    0.07    0.33
   5   3   4    0.23    0.41
   5   3   4    0.03    0.45
   9  -4  -4    0.43    0.42
   9  -4  -4   -0.01    0.39
  -9   4   4    0.06    0.38
  -9   4   4   -0.49    0.31
   8  -4  -4    0.81    0.39
   8  -4  -4    0.45    0.43
   8  -4  -4    0.72    0.50
  -8   4   4   -0.08    0.26
  -8   4   4    0.18    0.33
  -8   4   4    0.00    0.29
   7  -4  -4    0.76    0.42
   7  -4  -4    2.00    0.58
   7  -4  -4    1.07    0.44
  -7   4   4    1.10    0.41
  -7   4   4    0.31    0.32
  -7   4   4    0.61    0.31
   6  -4  -4    1.65    0.54
   6  -4  -4    1.64    0.48
   6  -4  -4    1.43    0.52
  -6   4   4    1.81    0.44
  -6   4   4    1.51    0.41
  -6   4   4    1.25    0.42
   5  -4  -4    0.24    0.34
   5  -4  -4    0.19    0.31
   5  -4  -4    1.05    0.42
  -5   4   4   -0.14    0.22
  -5   4   4    0.24    0.28
  -5   4   4    0.62    0.31
   4  -4  -4    4.00    0.65
   4  -4  -4    3.09    0.51
   4  -4  -4    2.38    0.48
  -4   4   4    3.08    0.41
  -4   4   4    2.83    0.45
  -4   4   4    2.67    0.44
   3  -4  -4    3.24    0.53
   3  -4  -4    4.40    0.56
   3  -4  -4    3.36    0.51
  -3   4   4    3.17    0.48
  -3   4   4    2.62    0.44
  -3   4   4    2.81    0.49
   2  -4  -4    0.19    0.19
   2  -4  -4    0.17    0.24
   2  -4  -4    0.81    0.38
   2  -4  -4    0.10    0.23
  -2   4   4    0.13    0.22
  -2   4   4    0.55    0.28
  -2   4   4   -0.11    0.21
  -2   4   4    0.17    0.22
  -2   4   4    0.43    0.20
   1  -4  -4    0.14    0.21
   1  -4  -4    0.18    0.21
   1  -4  -4    0.06    0.27
   1  -4  -4    0.12    0.20
  -1   4   4   -0.09    0.18
  -1   4   4    0.31    0.18
  -1   4   4    0.04    0.22
  -1   4   4   -0.15    0.17
  -1   4   4   -0.01    0.20
  -1   4   4   -0.22    0.20
   0  -4  -4    0.75    0.35
   0  -4  -4    0.40    0.32
   0   4   4    0.47    0.28
   0   4   4    0.80    0.31
   0   4   4    0.46    0.22
   0   4   4    0.51    0.27
  -1  -4  -4    3.42    0.58
  -1  -4  -4    5.73    0.68
   1   4   4    5.49    0.68
   1   4   4    4.90    0.66
   1   4   4    7.05    0.63
   1   4   4    6.37    0.64
  -2  -4  -4    1.30    0.44
   2   4   4    2.50    0.55
   2   4   4    3.87    0.53
   2   4   4    3.13    0.57
  -3  -4  -4    0.30    0.41
   3   4   4   -0.11    0.23
   3   4   4   -0.30    0.30
   3   4   4    0.15    0.37
  -4  -4  -4   -0.25    0.39
   4   4   4    0.09    0.39
   4   4   4   -0.06    0.31
   4   4   4   -0.11    0.36
   9  -5  -4   -0.42    0.30
   9  -5  -4   -0.57    0.36
  -9   5   4    0.29    0.36
  -9   5   4   -0.33    0.23
   8  -5  -4    2.88    0.68
   8  -5  -4    2.24    0.61
   8  -5  -4    2.43    0.67
  -8   5   4    2.65    0.59
  -8   5   4    3.87    0.66
   7  -5  -4   -0.32    0.34
   7  -5  -4    0.08    0.34
   7  -5  -4   -0.17    0.35
  -7   5   4    0.22    0.27
  -7   5   4    0.39    0.35
   6  -5  -4   -0.48    0.28
   6  -5  -4   -0.07    0.33
   6  -5  -4    0.18    0.33
  -6   5   4    0.00    0.26
  -6   5   4   -0.10    0.25
   5  -5  -4   -0.15    0.37
   5  -5  -4   -0.32    0.29
   5  -5  -4    0.59    0.37
  -5   5   4   -0.31    0.23
  -5   5   4   -0.05    0.27
   4  -5  -4    1.38    0.44
   4  -5  -4    1.86    0.54
   4  -5  -4    0.44    0.36
  -4   5   4    1.14    0.39
  -4   5   4    0.44    0.32
   3  -5  -4    0.17    0.33
   3  -5  -4   -0.04    0.27
  -3   5   4    0.45    0.32
  -3   5   4    0.07    0.23
   2  -5  -4   -0.18    0.32
   2  -5  -4   -0.20    0.19
  -2   5   4   -0.09    0.23
  -2   5   4    0.19    0.26
   1  -5  -4   12.36    0.83
   1  -5  -4   11.77    1.05
  -1   5   4   11.35    0.88
  -1   5   4   10.82    0.81
  -1   5   4   11.08    0.73
   0  -5  -4    7.59    0.84
   0  -5  -4   10.48    1.00
   0   5   4    9.11    0.93
   0   5   4    8.08    0.76
   0   5   4    7.80    0.67
   0   5   4    8.90    0.81
  -1  -5  -4    0.20    0.34
  -1  -5  -4    0.10    0.29
   1   5   4    0.34    0.34
   1   5   4    0.72    0.42
   1   5   4    0.25    0.23
  -2  -5  -4    1.24    0.48
   2   5   4    0.99    0.35
   2   5   4    0.68    0.48
   2   5   4    2.02    0.53
  -3  -5  -4    0.01    0.35
   3   5   4    1.07    0.44
   3   5   4    0.08    0.28
   3   5   4   -0.33    0.38
   9  -6  -4    0.29    0.51
   9  -6  -4    0.13    0.44
   9  -6  -4    0.17    0.48
  -9   6   4    0.22    0.45
  -9   6   4    0.07    0.34
   8  -6  -4    0.23    0.48
   8  -6  -4    0.99    0.49
   8  -6  -4    0.40    0.46
  -8   6   4    1.44    0.54
  -8   6   4    0.17    0.37
   7  -6  -4    0.35    0.43
   7  -6  -4    0.06    0.36
   7  -6  -4    0.86    0.44
  -7   6   4   -0.27    0.29
  -7   6   4    0.32    0.31
   6  -6  -4    2.34    0.60
   6  -6  -4    2.26    0.56
   6  -6  -4    2.15    0.59
  -6   6   4    1.30    0.42
  -6   6   4    1.77    0.49
   5  -6  -4    0.97    0.42
   5  -6  -4    1.47    0.50
  -5   6   4    0.87    0.40
  -5   6   4    0.78    0.36
   4  -6  -4   -0.06    0.29
  -4   6   4    0.22    0.30
  -4   6   4   -0.25    0.21
   3  -6  -4    7.53    0.92
  -3   6   4    4.42    0.64
  -3   6   4    7.78    0.88
   2  -6  -4    4.55    0.75
  -2   6   4    4.57    0.69
  -2   6   4    3.31    0.61
   1  -6  -4    4.84    0.72
   1  -6  -4    6.39    0.79
  -1   6   4    7.10    0.82
  -1   6   4    5.76    0.82
   0  -6  -4    1.24    0.49
   0  -6  -4    1.04    0.48
   0   6   4    0.90    0.45
   0   6   4    1.45    0.44
  -1  -6  -4    1.10    0.48
   1   6   4    0.92    0.47
   1   6   4    0.93    0.47
  -2  -6  -4    0.54    0.46
   2   6   4    0.14    0.45
   2   6   4    1.42    0.49
   2   6   4    0.61    0.37
   8  -7  -4   -0.27    0.44
   8  -7  -4    0.31    0.40
  -8   7   4    0.14    0.36
  -8   7   4    0.52    0.39
   7  -7  -4   -0.09    0.43
   7  -7  -4    0.18    0.45
  -7   7   4    0.90    0.45
  -7   7   4    1.80    0.55
   6  -7  -4    0.20    0.41
  -6   7   4    0.46    0.37
  -6   7   4    1.18    0.50
   5  -7  -4    1.76    0.60
  -5   7   4    2.70    0.61
  -5   7   4    2.36    0.57
   4  -7  -4   -0.11    0.35
  -4   7   4    0.22    0.38
  -4   7   4    0.79    0.40
   3  -7  -4    7.27    0.95
  -3   7   4    6.53    0.85
  -3   7   4    6.06    0.82
   2  -7  -4    1.24    0.54
  -2   7   4    0.44    0.36
  -2   7   4    0.28    0.34
   1  -7  -4    0.66    0.43
  -1   7   4   -0.28    0.35
  -1   7   4    0.06    0.32
   0  -7  -4   -0.44    0.41
   0  -7  -4    1.42    0.50
   0   7   4   -0.36    0.33
   6  -8  -4   -0.05    0.48
  -6   8   4   -0.26    0.36
  -6   8   4    0.51    0.47
   5  -8  -4    0.60    0.49
  -5   8   4    0.66    0.45
  -5   8   4    0.81    0.42
   4  -8  -4    5.12    0.92
  -4   8   4    3.91    0.70
  -4   8   4    5.42    0.85
   3  -8  -4   -0.46    0.29
  -3   8   4   -0.33    0.27
  -3   8   4    0.12    0.48
  -2  10  -5    0.48    0.32
  -2  10  -5    0.06    0.38
   2 -10   5    0.52    0.54
   2 -10   5    0.02    0.48
  -3  10  -5   -0.04    0.35
  -3  10  -5   -0.31    0.28
   3 -10   5    0.17    0.53
  -4  10  -5    0.90    0.44
  -4  10  -5    1.11    0.46
   4 -10   5    0.84    0.64
  -5  10  -5    1.23    0.45
   5 -10   5    1.53    0.76
  -6  10  -5   -0.06    0.35
  -6  10  -5    0.54    0.40
   6 -10   5   -0.28    0.55
   1   9  -5   -0.16    0.29
   1   9  -5   -0.26    0.33
   1   9  -5    0.06    0.26
  -1  -9   5    0.63    0.59
  -1  -9   5    0.01    0.48
   0   9  -5    0.12    0.31
   0   9  -5   -0.17    0.21
   0   9  -5    0.29    0.40
   0  -9   5   -0.12    0.49
   0  -9   5    0.22    0.43
  -1   9  -5    0.08    0.24
  -1   9  -5   -0.06    0.32
  -1   9  -5    0.00    0.35
   1  -9   5    0.26    0.51
   1  -9   5   -0.09    0.38
  -2   9  -5    0.12    0.22
  -2   9  -5    0.35    0.36
  -2   9  -5   -0.12    0.28
   2  -9   5   -0.02    0.50
   2  -9   5    0.32    0.49
  -3   9  -5    2.08    0.54
  -3   9  -5    1.96    0.54
  -3   9  -5    3.33    0.51
   3  -9   5    2.61    0.72
  -4   9  -5   -0.34    0.20
  -4   9  -5   -0.52    0.26
  -4   9  -5    0.30    0.34
   4  -9   5    1.06    0.61
  -5   9  -5   -0.35    0.19
  -5   9  -5   -0.41    0.22
  -5   9  -5   -0.10    0.35
   5  -9   5    0.34    0.52
  -6   9  -5    0.75    0.42
  -6   9  -5    1.65    0.50
   6  -9   5    0.78    0.53
  -7   9  -5    0.05    0.37
  -7   9  -5   -0.19    0.33
   7  -9   5    0.31    0.51
   2   8  -5    0.45    0.33
   2   8  -5    1.00    0.52
   2   8  -5    0.71    0.39
  -2  -8   5   -0.08    0.47
  -2  -8   5    0.84    0.53
   1   8  -5    0.78    0.40
   1   8  -5    0.79    0.32
   1   8  -5    1.23    0.49
  -1  -8   5    1.49    0.61
  -1  -8   5    1.17    0.62
   0   8  -5    0.30    0.34
   0   8  -5    0.10    0.19
   0   8  -5    0.10    0.35
   0  -8   5    0.28    0.43
   0  -8   5    0.75    0.50
  -1   8  -5    0.87    0.37
  -1   8  -5    1.30    0.32
  -1   8  -5    1.35    0.45
   1  -8   5    2.12    0.64
   1  -8   5    0.27    0.43
  -2   8  -5    0.00    0.22
  -2   8  -5    0.41    0.36
  -2   8  -5   -0.27    0.26
  -2   8  -5    0.52    0.25
   2  -8   5   -0.37    0.28
   2  -8   5    0.43    0.49
  -3   8  -5    1.62    0.32
  -3   8  -5    1.53    0.44
  -3   8  -5    1.98    0.48
  -3   8  -5    3.01    0.49
   3  -8   5    2.68    0.71
  -4   8  -5    0.29    0.27
  -4   8  -5    0.34    0.32
  -4   8  -5    0.06    0.30
  -4   8  -5   -0.15    0.18
   4  -8   5   -0.39    0.38
  -5   8  -5    3.96    0.68
  -5   8  -5    3.87    0.61
  -5   8  -5    4.36    0.61
   5  -8   5    4.16    0.67
   5  -8   5    3.72    0.73
  -6   8  -5    0.58    0.34
  -6   8  -5    0.77    0.39
  -6   8  -5    0.60    0.46
   6  -8   5    0.78    0.49
   6  -8   5    1.24    0.46
   6  -8   5    0.21    0.37
  -7   8  -5    1.70    0.51
  -7   8  -5    1.98    0.55
   7  -8   5    0.61    0.43
   7  -8   5    2.22    0.64
  -8   8  -5    0.87    0.48
   8  -8   5    0.11    0.35
   8  -8   5    0.24    0.43
   4   7  -5    1.46    0.44
   4   7  -5    1.46    0.59
  -4  -7   5    2.04    0.68
  -4  -7   5    0.65    0.46
   3   7  -5    0.04    0.23
   3   7  -5    0.47    0.46
  -3  -7   5    0.34    0.43
  -3  -7   5    0.88    0.58
   2   7  -5    1.21    0.39
   2   7  -5    0.74    0.34
   2   7  -5    0.67    0.41
  -2  -7   5    0.72    0.43
  -2  -7   5   -0.04    0.34
   1   7  -5    0.40    0.27
   1   7  -5    0.42    0.36
   1   7  -5    0.89    0.30
  -1  -7   5    0.60    0.47
  -1  -7   5    0.85    0.44
   0   7  -5    0.19    0.34
   0   7  -5    0.06    0.29
   0   7  -5   -0.24    0.20
   0  -7   5   -0.30    0.39
   0  -7   5    0.06    0.38
  -1   7  -5    0.47    0.34
  -1   7  -5   -0.05    0.32
  -1   7  -5    0.05    0.20
  -1   7  -5   -0.02    0.21
   1  -7   5    0.51    0.45
   1  -7   5   -0.32    0.38
  -2   7  -5   -0.07    0.19
  -2   7  -5   -0.13    0.19
  -2   7  -5   -0.19    0.22
  -2   7  -5   -0.14    0.27
   2  -7   5   -0.35    0.34
  -3   7  -5    2.15    0.40
  -3   7  -5    2.98    0.55
  -3   7  -5    2.80    0.37
  -3   7  -5    2.24    0.49
   3  -7   5    2.97    0.65
   3  -7   5    2.77    0.49
  -4   7  -5    6.89    0.51
  -4   7  -5    6.40    0.76
  -4   7  -5    7.14    0.68
  -4   7  -5    6.99    0.75
   4  -7   5    7.73    0.89
   4  -7   5    8.14    0.81
   4  -7   5    8.29    0.83
  -5   7  -5    0.01    0.26
  -5   7  -5   -0.16    0.22
  -5   7  -5    0.12    0.21
  -5   7  -5    0.39    0.40
   5  -7   5    0.51    0.32
   5  -7   5   -0.01    0.35
   5  -7   5    0.06    0.30
  -6   7  -5    0.44    0.37
  -6   7  -5    0.10    0.31
  -6   7  -5    0.33    0.21
  -6   7  -5   -0.01    0.38
  -6   7  -5    0.30    0.26
   6  -7   5   -0.28    0.20
   6  -7   5    0.05    0.30
   6  -7   5    0.17    0.34
   6  -7   5   -0.18    0.29
  -7   7  -5   11.07    1.05
  -7   7  -5   10.96    1.06
  -7   7  -5   10.87    1.08
  -7   7  -5   13.21    0.91
   7  -7   5   11.29    1.01
   7  -7   5   10.40    1.15
   7  -7   5   11.22    1.19
  -8   7  -5    0.16    0.42
  -8   7  -5    0.63    0.48
   8  -7   5   -0.14    0.39
   8  -7   5    0.07    0.37
   5   6  -5    0.14    0.31
   5   6  -5    0.11    0.39
  -5  -6   5   -0.11    0.41
  -5  -6   5    0.18    0.36
   4   6  -5    4.99    0.64
   4   6  -5    4.86    0.83
  -4  -6   5    3.15    0.75
  -4  -6   5    3.72    0.68
  -4  -6   5    4.61    0.77
   3   6  -5    0.74    0.42
   3   6  -5    0.23    0.30
   3   6  -5    1.45    0.36
  -3  -6   5    1.39    0.52
  -3  -6   5    1.23    0.47
  -3  -6   5    1.71    0.48
   2   6  -5    0.34    0.22
   2   6  -5    0.15    0.33
   2   6  -5    0.15    0.30
  -2  -6   5   -0.42    0.21
  -2  -6   5   -0.11    0.39
  -2  -6   5    0.02    0.39
   1   6  -5   14.58    0.91
   1   6  -5   15.09    0.76
   1   6  -5   13.83    0.92
   1   6  -5   13.33    0.73
  -1  -6   5   14.95    1.10
  -1  -6   5   13.04    1.00
  -1  -6   5   13.91    0.81
   0   6  -5    6.77    0.51
   0   6  -5    6.38    0.70
   0   6  -5    7.59    0.78
   0   6  -5    7.26    0.51
   0  -6   5    7.13    0.88
   0  -6   5    7.07    0.67
   0  -6   5    5.74    0.81
  -1   6  -5    0.01    0.29
  -1   6  -5   -0.09    0.13
  -1   6  -5   -0.46    0.23
  -1   6  -5   -0.01    0.17
  -1   6  -5    0.03    0.21
   1  -6   5    0.28    0.22
   1  -6   5   -0.12    0.37
   1  -6   5   -0.15    0.36
   1  -6   5   -0.13    0.18
   1  -6   5    0.22    0.20
  -2   6  -5    9.12    0.55
  -2   6  -5    9.66    0.55
  -2   6  -5    8.92    0.72
  -2   6  -5    8.27    0.76
   2  -6   5   10.34    0.68
   2  -6   5    9.32    0.66
   2  -6   5    8.57    0.60
   2  -6   5    7.72    0.82
  -3   6  -5    1.42    0.32
  -3   6  -5    1.05    0.43
  -3   6  -5    0.63    0.32
  -3   6  -5    1.27    0.25
   3  -6   5    0.77    0.31
   3  -6   5    0.80    0.42
   3  -6   5    1.77    0.40
   3  -6   5    1.35    0.35
  -4   6  -5    5.32    0.62
  -4   6  -5    7.01    0.70
  -4   6  -5    4.34    0.65
  -4   6  -5    5.94    0.60
  -4   6  -5    5.12    0.49
   4  -6   5    5.14    0.66
   4  -6   5    5.85    0.60
   4  -6   5    5.03    0.65
   4  -6   5    5.99    0.65
   4  -6   5    4.38    0.66
  -5   6  -5   23.84    0.84
  -5   6  -5   22.41    1.03
  -5   6  -5   23.42    1.07
  -5   6  -5   21.21    1.14
  -5   6  -5   23.76    1.10
   5  -6   5   22.58    1.07
   5  -6   5   21.81    0.94
   5  -6   5   22.27    1.20
   5  -6   5   23.29    1.12
   5  -6   5   22.32    1.20
  -6   6  -5    2.35    0.55
  -6   6  -5    2.54    0.55
  -6   6  -5    2.99    0.55
  -6   6  -5    2.91    0.40
  -6   6  -5    2.49    0.47
   6  -6   5    2.97    0.64
   6  -6   5    3.40    0.48
   6  -6   5    2.47    0.53
   6  -6   5    3.61    0.70
  -7   6  -5    0.46    0.38
  -7   6  -5   -0.15    0.32
  -7   6  -5    0.22    0.39
  -7   6  -5    0.27    0.21
   7  -6   5   -0.02    0.30
   7  -6   5   -0.50    0.22
   7  -6   5   -0.23    0.20
   7  -6   5    0.14    0.40
  -8   6  -5    0.14    0.41
  -8   6  -5    0.28    0.25
  -8   6  -5    0.63    0.47
  -8   6  -5    2.32    0.63
   8  -6   5    0.13    0.45
   8  -6   5    0.07    0.36
   8  -6   5    0.49    0.34
   8  -6   5    0.46    0.41
   6   5  -5    2.71    0.56
   6   5  -5    1.52    0.57
  -6  -5   5    2.95    0.72
  -6  -5   5    2.31    0.59
   5   5  -5    1.74    0.53
   5   5  -5    1.02    0.36
  -5  -5   5    1.11    0.46
  -5  -5   5    1.09    0.50
  -5  -5   5    1.19    0.47
   4   5  -5   -0.08    0.17
   4   5  -5    0.17    0.31
  -4  -5   5   -0.14    0.30
  -4  -5   5    0.08    0.28
  -4  -5   5   -0.12    0.31
   3   5  -5   16.03    0.90
   3   5  -5   13.76    0.81
   3   5  -5   14.55    0.80
   3   5  -5   13.41    0.94
  -3  -5   5   15.04    1.07
  -3  -5   5   13.31    1.21
  -3  -5   5   13.89    0.93
   2   5  -5   33.10    1.04
   2   5  -5   34.98    1.26
   2   5  -5   32.38    1.07
   2   5  -5   31.35    1.29
   2   5  -5   32.00    1.21
  -2  -5   5   32.35    1.42
  -2  -5   5   30.35    1.20
  -2  -5   5   30.36    1.40
   1   5  -5    0.19    0.22
   1   5  -5   -0.04    0.28
   1   5  -5   -0.31    0.20
   1   5  -5    0.04    0.24
   1   5  -5   -0.05    0.15
   1   5  -5   -0.19    0.17
  -1  -5   5   -0.17    0.20
  -1  -5   5   -0.06    0.36
  -1  -5   5    0.02    0.23
  -1  -5   5   -0.16    0.18
  -1  -5   5    0.16    0.35
   0   5  -5    0.99    0.24
   0   5  -5    1.01    0.33
   0   5  -5    1.09    0.31
   0   5  -5    1.56    0.24
   0   5  -5    0.60    0.33
   0  -5   5    1.05    0.40
   0  -5   5    1.75    0.33
   0  -5   5    0.57    0.35
   0  -5   5    2.09    0.39
   0  -5   5    1.34    0.33
  -1   5  -5    0.03    0.16
  -1   5  -5    0.20    0.13
  -1   5  -5    0.11    0.26
  -1   5  -5    0.28    0.24
   1  -5   5    0.37    0.21
   1  -5   5    0.00    0.19
   1  -5   5    0.09    0.19
   1  -5   5    0.30    0.33
  -2   5  -5   16.90    0.90
  -2   5  -5   16.80    0.65
  -2   5  -5   15.71    0.60
  -2   5  -5   16.70    0.86
   2  -5   5   17.01    0.84
   2  -5   5   17.57    0.80
   2  -5   5   16.55    0.92
   2  -5   5   16.31    0.84
  -3   5  -5   10.39    0.68
  -3   5  -5    9.39    0.52
  -3   5  -5    8.09    0.51
  -3   5  -5    8.52    0.76
   3  -5   5    9.64    0.70
   3  -5   5    7.58    0.71
   3  -5   5    9.41    0.61
   3  -5   5   10.41    0.66
   3  -5   5    6.39    0.65
  -4   5  -5   14.96    0.87
  -4   5  -5   15.80    0.87
  -4   5  -5   14.00    0.62
  -4   5  -5   16.10    0.80
  -4   5  -5   16.06    0.80
   4  -5   5   13.74    0.90
   4  -5   5   14.90    0.93
   4  -5   5   15.54    0.88
   4  -5   5   15.10    0.86
   4  -5   5   15.91    0.77
  -5   5  -5    2.64    0.51
  -5   5  -5    2.89    0.43
  -5   5  -5    2.56    0.35
  -5   5  -5    2.70    0.52
  -5   5  -5    2.86    0.55
   5  -5   5    3.71    0.48
   5  -5   5    2.63    0.55
   5  -5   5    1.38    0.43
   5  -5   5    2.56    0.51
  -6   5  -5    0.82    0.39
  -6   5  -5    0.25    0.34
  -6   5  -5   -0.02    0.37
  -6   5  -5    0.32    0.22
   6  -5   5    0.95    0.44
   6  -5   5    0.28    0.31
   6  -5   5    0.76    0.39
   6  -5   5    0.50    0.31
  -7   5  -5    0.74    0.25
  -7   5  -5    0.54    0.45
  -7   5  -5    0.28    0.36
  -7   5  -5    0.29    0.30
   7  -5   5    0.27    0.26
   7  -5   5    0.38    0.32
   7  -5   5    0.23    0.38
   7  -5   5    0.48    0.44
  -8   5  -5    0.57    0.44
  -8   5  -5   -0.57    0.27
  -8   5  -5    0.90    0.48
  -8   5  -5   -0.01    0.20
   8  -5   5    0.09    0.27
   8  -5   5   -0.54    0.30
   8  -5   5    0.13    0.41
   8  -5   5   -0.38    0.31
   8  -5   5    0.45    0.48
   6   4  -5    0.23    0.32
   6   4  -5    0.10    0.28
  -6  -4   5    0.63    0.44
  -6  -4   5    0.78    0.45
   5   4  -5   -0.10    0.28
   5   4  -5    0.24    0.23
   5   4  -5    0.70    0.40
  -5  -4   5   -0.04    0.30
  -5  -4   5    0.30    0.35
  -5  -4   5    0.34    0.33
   4   4  -5   11.40    0.73
   4   4  -5   12.42    0.89
   4   4  -5   11.37    0.92
   4   4  -5   12.38    0.81
  -4  -4   5   12.60    0.93
  -4  -4   5   13.18    0.95
  -4  -4   5   13.50    1.00
   3   4  -5    0.42    0.27
   3   4  -5    1.25    0.37
   3   4  -5    1.09    0.35
   3   4  -5    0.74    0.26
   3   4  -5    1.18    0.36
  -3  -4   5    0.80    0.40
  -3  -4   5    1.03    0.46
  -3  -4   5    0.46    0.29
   2   4  -5    1.06    0.33
   2   4  -5    0.99    0.24
   2   4  -5    1.79    0.40
   2   4  -5    0.57    0.30
   2   4  -5    0.68    0.29
   2   4  -5    1.22    0.27
  -2  -4   5    0.77    0.36
  -2  -4   5    0.94    0.40
  -2  -4   5    1.59    0.36
  -2  -4   5    0.98    0.34
  -2  -4   5    1.19    0.33
   1   4  -5    9.96    0.53
   1   4  -5    9.43    0.66
   1   4  -5   10.90    0.70
   1   4  -5    9.30    0.59
   1   4  -5   10.34    0.44
   1   4  -5   10.93    0.67
  -1  -4   5   10.71    0.68
  -1  -4   5   10.28    0.76
  -1  -4   5   10.59    0.65
  -1  -4   5   10.08    0.77
  -1  -4   5    9.01    0.64
   0   4  -5    0.43    0.24
   0   4  -5    0.65    0.26
   0   4  -5    0.63    0.13
   0   4  -5    0.86    0.30
   0   4  -5    0.73    0.21
   0  -4   5    0.42    0.23
   0  -4   5    1.00    0.34
   0  -4   5    0.31    0.21
   0  -4   5    0.56    0.24
  -1   4  -5    1.00    0.22
  -1   4  -5    1.47    0.38
  -1   4  -5    1.55    0.36
  -1   4  -5    0.97    0.16
   1  -4   5    0.70    0.25
   1  -4   5    1.25    0.32
   1  -4   5    1.12    0.36
   1  -4   5    1.09    0.29
  -2   4  -5   25.48    0.96
  -2   4  -5   26.38    0.68
  -2   4  -5   26.48    0.77
  -2   4  -5   27.63    1.04
   2  -4   5   25.77    1.02
   2  -4   5   25.97    1.03
   2  -4   5   26.35    0.88
   2  -4   5   26.55    0.97
   2  -4   5   25.07    1.03
  -3   4  -5    2.97    0.45
  -3   4  -5    2.73    0.41
  -3   4  -5    2.00    0.28
  -3   4  -5    3.10    0.38
   3  -4   5    2.14    0.38
   3  -4   5    3.15    0.46
   3  -4   5    2.96    0.48
   3  -4   5    2.97    0.51
   3  -4   5    2.17    0.36
  -4   4  -5    3.18    0.47
  -4   4  -5    2.98    0.49
  -4   4  -5    3.71    0.39
  -4   4  -5    4.42    0.50
  -4   4  -5    2.84    0.49
   4  -4   5    3.19    0.57
   4  -4   5    3.39    0.53
   4  -4   5    3.98    0.49
   4  -4   5    2.88    0.41
   4  -4   5    3.60    0.60
  -5   4  -5    5.21    0.65
  -5   4  -5    4.11    0.43
  -5   4  -5    3.66    0.56
  -5   4  -5    5.29    0.52
  -5   4  -5    3.89    0.58
   5  -4   5    5.21    0.59
   5  -4   5    4.74    0.76
   5  -4   5    4.54    0.67
   5  -4   5    4.27    0.59
  -6   4  -5    0.65    0.39
  -6   4  -5    0.61    0.24
  -6   4  -5    0.30    0.34
  -6   4  -5    0.32    0.38
   6  -4   5    0.89    0.31
   6  -4   5    0.65    0.42
   6  -4   5    0.31    0.36
   6  -4   5    0.59    0.39
   6  -4   5    1.15    0.44
  -7   4  -5    0.19    0.37
  -7   4  -5    0.52    0.40
  -7   4  -5    0.44    0.23
  -7   4  -5    0.15    0.39
   7  -4   5    0.35    0.35
   7  -4   5   -0.07    0.24
   7  -4   5    0.76    0.40
   7  -4   5    0.60    0.43
   7  -4   5    0.20    0.40
  -8   4  -5    0.14    0.36
  -8   4  -5   -0.72    0.42
  -8   4  -5    0.26    0.37
  -8   4  -5    0.35    0.23
   8  -4   5   -0.04    0.42
   8  -4   5    0.61    0.48
   8  -4   5    0.18    0.33
   8  -4   5    0.32    0.39
   7   3  -5    0.78    0.46
   7   3  -5    0.31    0.41
   7   3  -5    1.50    0.43
  -7  -3   5    0.63    0.44
   6   3  -5    0.02    0.23
   6   3  -5    0.02    0.37
   6   3  -5    0.19    0.30
  -6  -3   5   -0.11    0.24
  -6  -3   5    0.78    0.38
   5   3  -5    0.42    0.34
   5   3  -5    0.48    0.39
   5   3  -5    0.63    0.29
   5   3  -5    1.18    0.43
  -5  -3   5    0.87    0.35
  -5  -3   5    1.06    0.41
  -5  -3   5    0.81    0.38
  -5  -3   5    1.22    0.43
   4   3  -5    3.59    0.55
   4   3  -5    3.88    0.63
   4   3  -5    3.72    0.54
   4   3  -5    3.07    0.49
   4   3  -5    5.04    0.55
  -4  -3   5    4.96    0.67
  -4  -3   5    3.00    0.56
  -4  -3   5    3.16    0.54
   3   3  -5    2.19    0.32
   3   3  -5    2.67    0.46
   3   3  -5    2.18    0.43
   3   3  -5    2.02    0.40
   3   3  -5    3.27    0.48
  -3  -3   5    1.81    0.43
  -3  -3   5    2.83    0.48
  -3  -3   5    2.56    0.46
  -3  -3   5    1.44    0.37
   2   3  -5    1.22    0.24
   2   3  -5    1.42    0.33
   2   3  -5    1.37    0.33
   2   3  -5    1.35    0.33
   2   3  -5    1.52    0.33
  -2  -3   5    1.18    0.33
  -2  -3   5    1.32    0.35
  -2  -3   5    1.29    0.36
  -2  -3   5    0.89    0.28
  -2  -3   5    0.86    0.30
   1   3  -5   10.75    0.61
   1   3  -5    9.82    0.62
   1   3  -5    9.18    0.49
   1   3  -5    9.06    0.61
   1   3  -5    8.50    0.59
  -1  -3   5    8.96    0.65
  -1  -3   5    9.51    0.65
  -1  -3   5    9.97    0.64
  -1  -3   5    9.82    0.62
  -1  -3   5    9.85    0.68
   0   3  -5    1.62    0.35
   0   3  -5    2.68    0.42
   0   3  -5    2.77    0.42
   0   3  -5    1.92    0.27
   0  -3   5    2.25    0.39
   0  -3   5    2.08    0.37
   0  -3   5    1.46    0.31
   0  -3   5    1.53    0.36
  -1   3  -5    0.12    0.08
  -1   3  -5    0.07    0.21
  -1   3  -5   -0.03    0.18
  -1   3  -5   -0.05    0.12
   1  -3   5   -0.36    0.14
   1  -3   5    0.09    0.17
   1  -3   5    0.12    0.21
   1  -3   5    0.09    0.18
   1  -3   5    0.09    0.14
  -2   3  -5   14.09    0.56
  -2   3  -5   14.73    0.77
  -2   3  -5   13.77    0.69
   2  -3   5   13.51    0.78
   2  -3   5   12.94    0.76
   2  -3   5   14.33    0.71
   2  -3   5   12.06    0.69
   2  -3   5   13.68    0.64
  -3   3  -5    6.98    0.51
  -3   3  -5    6.02    0.61
  -3   3  -5    6.53    0.67
  -3   3  -5    6.28    0.41
  -3   3  -5    6.40    0.50
   3  -3   5    6.44    0.49
   3  -3   5    6.08    0.54
   3  -3   5    5.32    0.60
   3  -3   5    5.23    0.60
   3  -3   5    5.42    0.65
  -4   3  -5    1.75    0.42
  -4   3  -5    1.81    0.33
  -4   3  -5    1.14    0.24
  -4   3  -5    1.27    0.37
  -4   3  -5    1.95    0.40
   4  -3   5    1.38    0.41
   4  -3   5    1.03    0.36
   4  -3   5    1.12    0.28
   4  -3   5    1.79    0.43
   4  -3   5    1.77    0.44
  -5   3  -5    0.67    0.36
  -5   3  -5    1.14    0.26
  -5   3  -5    0.43    0.32
  -5   3  -5    1.81    0.47
   5  -3   5    0.48    0.33
   5  -3   5    1.05    0.40
   5  -3   5    1.05    0.32
   5  -3   5    1.14    0.42
   5  -3   5    0.21    0.29
  -6   3  -5    1.00    0.45
  -6   3  -5    0.62    0.39
  -6   3  -5    0.74    0.28
  -6   3  -5    0.74    0.37
   6  -3   5    0.69    0.41
   6  -3   5    0.66    0.34
   6  -3   5    0.97    0.41
   6  -3   5    1.01    0.47
   6  -3   5    0.94    0.44
  -7   3  -5    0.20    0.38
  -7   3  -5    0.69    0.42
  -7   3  -5   -0.64    0.37
   7  -3   5   -0.53    0.30
   7  -3   5    0.32    0.38
   7  -3   5   -0.05    0.28
   7  -3   5    0.43    0.28
   7  -3   5   -0.07    0.34
  -8   3  -5    0.22    0.37
  -8   3  -5   -0.30    0.40
  -8   3  -5   -0.12    0.35
  -8   3  -5   -0.26    0.37
   8  -3   5   -0.42    0.36
   8  -3   5    0.04    0.43
   8  -3   5   -0.35    0.33
   8  -3   5    0.16    0.30
   8   2  -5   -0.29    0.25
   8   2  -5    0.15    0.34
   8   2  -5   -0.41    0.39
  -8  -2   5    0.47    0.38
   7   2  -5    0.09    0.23
   7   2  -5    0.05    0.29
   7   2  -5    0.12    0.41
   7   2  -5    0.34    0.40
  -7  -2   5    0.18    0.37
  -7  -2   5    0.45    0.38
   6   2  -5    1.08    0.35
   6   2  -5    0.97    0.31
   6   2  -5    0.61    0.39
   6   2  -5    1.34    0.50
  -6  -2   5    1.69    0.49
  -6  -2   5    1.56    0.44
  -6  -2   5    1.24    0.39
   5   2  -5    0.85    0.28
   5   2  -5    0.67    0.32
   5   2  -5    1.11    0.43
   5   2  -5    0.26    0.34
   5   2  -5    0.25    0.30
  -5  -2   5    0.66    0.34
  -5  -2   5    0.69    0.35
  -5  -2   5    0.55    0.36
  -5  -2   5    0.56    0.35
   4   2  -5    4.02    0.46
   4   2  -5    3.36    0.49
   4   2  -5    3.71    0.49
   4   2  -5    3.93    0.57
   4   2  -5    4.56    0.67
  -4  -2   5    4.79    0.64
  -4  -2   5    3.87    0.50
  -4  -2   5    3.90    0.54
  -4  -2   5    2.85    0.53
  -4  -2   5    3.75    0.44
   3   2  -5   18.57    0.93
   3   2  -5   18.10    0.82
   3   2  -5   18.32    0.82
   3   2  -5   18.47    0.69
   3   2  -5   18.19    0.89
  -3  -2   5   19.58    0.98
  -3  -2   5   18.43    0.61
  -3  -2   5   16.68    0.77
  -3  -2   5   17.14    0.89
  -3  -2   5   18.41    0.94
  -3  -2   5   17.83    0.91
  -3  -2   5   17.84    0.83
   2   2  -5   12.05    0.65
   2   2  -5   12.15    0.71
   2   2  -5   13.52    0.57
   2   2  -5   14.04    0.74
   2   2  -5   11.38    0.65
  -2  -2   5   13.82    0.76
  -2  -2   5   13.21    0.71
  -2  -2   5   13.30    0.78
  -2  -2   5   14.07    0.69
  -2  -2   5   13.23    0.73
  -2  -2   5   12.78    0.38
  -2  -2   5   12.91    0.77
   1   2  -5    9.77    0.47
   1   2  -5    9.38    0.60
   1   2  -5    9.43    0.63
   1   2  -5   10.83    0.63
   1   2  -5   10.79    0.63
  -1  -2   5    9.54    0.62
  -1  -2   5   10.17    0.67
  -1  -2   5    9.59    0.61
  -1  -2   5    9.49    0.59
  -1  -2   5    9.60    0.67
   0   2  -5    0.25    0.21
   0   2  -5    0.30    0.19
   0   2  -5    0.22    0.15
   0  -2   5    0.10    0.18
   0  -2   5    0.17    0.17
   0  -2   5    0.58    0.21
   0  -2   5    0.10    0.17
   0  -2   5    0.37    0.22
   0  -2   5    0.16    0.22
  -1   2  -5    0.57    0.23
  -1   2  -5    0.59    0.29
  -1   2  -5    0.52    0.14
  -1   2  -5    0.17    0.12
   1  -2   5    0.59    0.24
   1  -2   5    0.29    0.20
   1  -2   5    0.63    0.26
   1  -2   5    0.54    0.23
   1  -2   5    0.41    0.18
  -2   2  -5    0.29    0.22
  -2   2  -5    0.72    0.20
  -2   2  -5    0.49    0.22
  -2   2  -5    0.75    0.19
   2  -2   5    0.19    0.20
   2  -2   5    0.37    0.23
   2  -2   5    0.61    0.27
   2  -2   5    0.70    0.21
   2  -2   5    0.88    0.25
  -3   2  -5    0.70    0.27
  -3   2  -5    0.67    0.26
  -3   2  -5    0.45    0.29
  -3   2  -5    0.49    0.23
  -3   2  -5    0.56    0.19
   3  -2   5    0.52    0.20
   3  -2   5    0.56    0.28
   3  -2   5    0.94    0.25
   3  -2   5    0.62    0.29
   3  -2   5    0.32    0.25
   3  -2   5    0.58    0.26
  -4   2  -5   11.90    0.59
  -4   2  -5   13.57    0.81
  -4   2  -5   11.80    0.82
  -4   2  -5   12.47    0.87
   4  -2   5   11.61    0.86
   4  -2   5   10.93    0.81
   4  -2   5   11.04    0.78
   4  -2   5    8.84    0.87
   4  -2   5   11.61    0.70
  -5   2  -5    0.09    0.25
  -5   2  -5    0.05    0.29
  -5   2  -5    0.05    0.34
   5  -2   5    0.34    0.35
   5  -2   5    0.25    0.34
   5  -2   5   -0.08    0.30
   5  -2   5    0.44    0.26
   5  -2   5   -0.19    0.26
  -6   2  -5    1.01    0.43
  -6   2  -5    1.07    0.44
   6  -2   5    2.16    0.54
   6  -2   5    1.53    0.39
   6  -2   5    1.13    0.42
   6  -2   5    1.32    0.44
   6  -2   5    1.39    0.50
  -7   2  -5    0.19    0.38
  -7   2  -5   -0.12    0.40
  -7   2  -5   -0.23    0.30
   7  -2   5   -0.15    0.35
   7  -2   5   -0.31    0.29
   7  -2   5    0.14    0.40
   7  -2   5    0.27    0.27
   7  -2   5   -0.10    0.30
  -8   2  -5    0.76    0.45
  -8   2  -5   -0.33    0.45
  -8   2  -5   -0.32    0.28
   8  -2   5   -0.31    0.44
   8  -2   5   -0.10    0.41
   8  -2   5    0.06    0.37
   8  -2   5   -0.39    0.41
   8   1  -5    0.35    0.40
   8   1  -5    0.19    0.25
   8   1  -5    0.42    0.48
  -8  -1   5   -0.08    0.36
  -8  -1   5    0.09    0.38
   7   1  -5    0.63    0.43
   7   1  -5    0.46    0.39
   7   1  -5    0.08    0.28
   7   1  -5    0.47    0.26
  -7  -1   5    0.91    0.43
  -7  -1   5    0.30    0.36
   6   1  -5   10.19    0.72
   6   1  -5    8.64    0.98
   6   1  -5    9.32    0.62
   6   1  -5    9.83    1.02
   6   1  -5   10.22    0.70
  -6  -1   5   10.33    0.83
  -6  -1   5    8.43    0.65
  -6  -1   5    9.64    0.77
  -6  -1   5    9.60    1.02
   5   1  -5    3.39    0.44
   5   1  -5    3.33    0.59
   5   1  -5    2.58    0.54
   5   1  -5    3.06    0.44
   5   1  -5    3.06    0.46
  -5  -1   5    3.27    0.46
  -5  -1   5    2.97    0.45
  -5  -1   5    1.80    0.48
  -5  -1   5    2.77    0.52
   4   1  -5    0.91    0.37
   4   1  -5    0.46    0.33
   4   1  -5    0.67    0.25
   4   1  -5    1.36    0.27
  -4  -1   5    0.37    0.31
  -4  -1   5    1.06    0.31
  -4  -1   5    1.18    0.28
  -4  -1   5    1.24    0.29
  -4  -1   5    1.03    0.35
  -4  -1   5    1.14    0.40
   3   1  -5    4.89    0.60
   3   1  -5    4.97    0.36
   3   1  -5    4.66    0.45
   3   1  -5    5.25    0.63
  -3  -1   5    5.57    0.64
  -3  -1   5    3.26    0.41
  -3  -1   5    6.29    0.65
  -3  -1   5    4.09    0.51
  -3  -1   5    4.93    0.47
  -3  -1   5    5.87    0.37
  -3  -1   5    4.99    0.64
   2   1  -5   15.20    0.81
   2   1  -5   16.07    0.79
   2   1  -5   15.97    0.67
   2   1  -5   16.43    0.57
  -2  -1   5   15.00    0.74
  -2  -1   5   14.63    0.77
  -2  -1   5   16.32    0.71
  -2  -1   5   16.38    0.41
  -2  -1   5   15.85    0.84
  -2  -1   5   15.15    0.84
   1   1  -5    3.08    0.39
   1   1  -5    4.08    0.49
   1   1  -5    2.31    0.40
   1   1  -5    3.25    0.31
  -1  -1   5    3.06    0.44
  -1  -1   5    3.03    0.45
  -1  -1   5    3.61    0.47
  -1  -1   5    2.05    0.35
  -1  -1   5    3.61    0.43
   0   1  -5    6.93    0.37
   0   1  -5    7.04    0.50
   0  -1   5    6.23    0.46
   0  -1   5    7.35    0.29
   0  -1   5    7.96    0.71
   0  -1   5    6.85    0.52
   0  -1   5    6.55    0.52
   0  -1   5    6.93    0.56
   0  -1   5    7.50    0.44
  -1   1  -5    3.85    0.44
  -1   1  -5    3.05    0.30
  -1   1  -5    3.17    0.37
   1  -1   5    4.00    0.32
   1  -1   5    3.12    0.36
   1  -1   5    3.64    0.41
   1  -1   5    2.98    0.46
   1  -1   5    3.55    0.47
   1  -1   5    3.32    0.43
   1  -1   5    3.14    0.43
   1  -1   5    2.56    0.33
  -2   1  -5   11.95    0.58
  -2   1  -5   12.17    0.71
  -2   1  -5   11.51    0.51
   2  -1   5   11.67    0.69
   2  -1   5   12.03    0.60
   2  -1   5   12.34    0.72
   2  -1   5   11.21    0.57
   2  -1   5   11.60    0.75
   2  -1   5   12.54    0.61
   2  -1   5   11.74    0.76
  -3   1  -5    0.58    0.29
  -3   1  -5    0.40    0.27
  -3   1  -5    0.15    0.17
   3  -1   5    0.06    0.16
   3  -1   5    0.46    0.31
   3  -1   5    0.12    0.18
   3  -1   5    0.27    0.29
   3  -1   5    0.67    0.33
   3  -1   5    0.70    0.29
  -4   1  -5   -0.33    0.17
   4  -1   5   -0.16    0.22
   4  -1   5    0.32    0.31
   4  -1   5   -0.21    0.28
   4  -1   5    0.23    0.28
   4  -1   5    0.00    0.21
  -5   1  -5    0.07    0.29
   5  -1   5    0.78    0.38
   5  -1   5    0.81    0.41
   5  -1   5    0.10    0.31
   5  -1   5    0.81    0.39
   5  -1   5    0.35    0.27
  -6   1  -5    0.00    0.26
  -6   1  -5    0.22    0.38
   6  -1   5   -0.14    0.25
   6  -1   5    0.33    0.32
   6  -1   5    0.32    0.36
   6  -1   5    0.04    0.31
   6  -1   5    0.36    0.34
  -7   1  -5    0.81    0.47
  -7   1  -5    0.64    0.39
  -7   1  -5    0.41    0.40
   7  -1   5    0.29    0.38
   7  -1   5    0.14    0.41
   7  -1   5    0.51    0.43
   7  -1   5    0.27    0.38
   8   0  -5    2.79    0.70
   8   0  -5    1.89    0.52
   8   0  -5    2.40    0.43
  -8   0   5    2.70    0.70
  -8   0   5    1.54    0.51
   7   0  -5    0.30    0.20
   7   0  -5   -0.08    0.29
   7   0  -5    0.11    0.39
  -7   0   5    0.06    0.29
  -7   0   5    0.74    0.36
  -7   0   5    0.46    0.37
   6   0  -5    2.38    0.59
   6   0  -5    2.98    0.66
   6   0  -5    1.75    0.36
   6   0  -5    1.87    0.32
  -6   0   5    3.37    0.65
  -6   0   5    1.21    0.39
  -6   0   5    0.97    0.31
  -6   0   5    2.16    0.47
   5   0  -5   -0.01    0.15
   5   0  -5    0.38    0.34
   5   0  -5    0.48    0.22
   5   0  -5    0.21    0.33
  -5   0   5    0.63    0.33
  -5   0   5    0.67    0.27
  -5   0   5    0.19    0.23
  -5   0   5    0.39    0.32
   4   0  -5    7.05    0.41
   4   0  -5    7.21    0.80
   4   0  -5    6.46    0.44
   4   0  -5    5.61    0.64
  -4   0   5    5.70    0.55
  -4   0   5    5.66    0.63
  -4   0   5    6.06    0.68
  -4   0   5    7.17    0.48
  -4   0   5    6.35    0.66
   3   0  -5   15.45    0.85
   3   0  -5   15.58    0.62
   3   0  -5   14.96    0.54
   3   0  -5   16.25    0.89
  -3   0   5   16.07    0.88
  -3   0   5   14.38    0.86
  -3   0   5   16.62    0.57
  -3   0   5   15.99    0.86
  -3   0   5   16.69    0.83
  -3   0   5   15.42    0.74
   2   0  -5   18.54    0.56
   2   0  -5   16.43    0.81
   2   0  -5   18.77    0.68
   2   0  -5   18.35    0.88
  -2   0   5   17.77    0.88
  -2   0   5   17.25    0.76
  -2   0   5   17.30    0.80
  -2   0   5   18.93    0.91
  -2   0   5   17.17    0.84
  -2   0   5   18.49    0.53
   1   0  -5   10.67    0.65
   1   0  -5   10.27    0.43
   1   0  -5   11.70    0.57
   1   0  -5   10.95    0.67
  -1   0   5   11.41    0.70
  -1   0   5   10.75    0.69
  -1   0   5   12.49    0.70
  -1   0   5   11.64    0.42
  -1   0   5   11.67    0.52
  -1   0   5   11.10    0.62
   0   0  -5    3.08    0.39
   0   0  -5    3.02    0.27
   0   0   5    3.13    0.35
   0   0   5    2.75    0.29
   0   0   5    3.25    0.40
   0   0   5    3.27    0.39
   0   0   5    3.35    0.46
   0   0   5    2.71    0.39
   0   0   5    3.35    0.46
   0   0   5    2.81    0.44
  -1   0  -5    1.94    0.25
  -1   0  -5    1.83    0.36
   1   0   5    2.45    0.43
   1   0   5    1.90    0.31
   1   0   5    1.80    0.36
   1   0   5    2.21    0.36
   1   0   5    2.01    0.34
   1   0   5    1.87    0.30
   1   0   5    2.13    0.43
   1   0   5    1.99    0.29
  -2   0  -5   12.66    0.76
   2   0   5   12.60    0.59
   2   0   5   12.04    0.74
   2   0   5   11.68    0.77
   2   0   5   10.75    0.75
   2   0   5   12.92    0.66
   2   0   5   12.26    0.67
   2   0   5   13.44    0.77
  -3   0  -5    4.80    0.62
   3   0   5    5.26    0.69
   3   0   5    3.77    0.61
   3   0   5    4.39    0.51
   3   0   5    5.06    0.61
   3   0   5    4.55    0.63
   3   0   5    4.38    0.58
  -4   0  -5    2.33    0.53
  -4   0  -5    2.94    0.61
   4   0   5    2.68    0.47
   4   0   5    0.70    0.38
   4   0   5    4.19    0.66
   4   0   5    3.85    0.63
   4   0   5    3.14    0.60
  -5   0  -5    0.22    0.27
  -5   0  -5    0.35    0.38
   5   0   5   -0.14    0.27
   5   0   5   -0.03    0.29
   5   0   5    0.05    0.23
   5   0   5   -0.10    0.26
   5   0   5    0.02    0.37
  -6   0  -5    0.09    0.34
  -6   0  -5    0.08    0.33
   6   0   5    0.23    0.34
   6   0   5    0.38    0.41
   6   0   5    0.15    0.30
   6   0   5    0.03    0.38
   6   0   5    0.08    0.35
  -7   0  -5    0.61    0.40
  -7   0  -5    0.04    0.38
   7   0   5    1.34    0.61
   7   0   5    0.19    0.46
   7   0   5    0.56    0.47
   7   0   5    0.78    0.40
   9  -1  -5    0.77    0.52
   9  -1  -5    0.49    0.50
  -9   1   5    1.11    0.51
  -9   1   5   -0.36    0.41
   8  -1  -5    0.22    0.41
   8  -1  -5    0.87    0.51
  -8   1   5    0.32    0.39
  -8   1   5   -0.31    0.33
   7  -1  -5   -0.13    0.32
   7  -1  -5    0.18    0.35
  -7   1   5    0.52    0.34
  -7   1   5    0.27    0.26
  -7   1   5    0.22    0.32
  -7   1   5    0.62    0.36
   6  -1  -5    0.05    0.36
   6  -1  -5   -0.11    0.13
   6  -1  -5   -0.55    0.32
  -6   1   5    0.32    0.34
  -6   1   5   -0.04    0.23
  -6   1   5    0.26    0.29
  -6   1   5    0.19    0.29
   5  -1  -5    4.41    0.39
   5  -1  -5    4.64    0.73
   5  -1  -5    2.42    0.50
  -5   1   5    5.11    0.67
  -5   1   5    4.08    0.51
  -5   1   5    5.25    0.68
  -5   1   5    4.51    0.52
   4  -1  -5   13.75    0.88
   4  -1  -5   13.02    0.52
   4  -1  -5   13.70    0.50
   4  -1  -5   14.39    0.91
  -4   1   5   13.44    0.64
  -4   1   5   14.35    0.77
  -4   1   5   13.07    0.88
  -4   1   5   12.63    0.83
  -4   1   5   11.86    0.76
   3  -1  -5    3.64    0.52
   3  -1  -5    4.36    0.59
   3  -1  -5    4.64    0.35
   3  -1  -5    4.29    0.33
  -3   1   5    3.99    0.38
  -3   1   5    3.80    0.56
  -3   1   5    3.81    0.55
  -3   1   5    4.60    0.54
  -3   1   5    3.79    0.55
  -3   1   5    3.56    0.44
   2  -1  -5   12.07    0.74
   2  -1  -5   13.41    0.75
   2  -1  -5   13.76    0.56
   2  -1  -5   13.35    0.46
  -2   1   5   11.88    0.52
  -2   1   5   13.54    0.55
  -2   1   5   11.87    0.68
  -2   1   5   12.52    0.68
  -2   1   5   12.80    0.77
  -2   1   5   12.98    0.79
  -2   1   5   13.13    0.78
   1  -1  -5   11.44    0.44
   1  -1  -5   11.65    0.56
   1  -1  -5   11.18    0.70
   1  -1  -5   12.22    0.70
  -1   1   5   11.94    0.63
  -1   1   5   12.46    0.55
  -1   1   5   11.20    0.63
  -1   1   5   11.14    0.72
  -1   1   5   11.80    0.74
  -1   1   5   11.90    0.53
  -1   1   5   11.36    0.57
  -1   1   5   11.32    0.72
   0  -1  -5    4.03    0.30
   0  -1  -5    4.85    0.50
   0   1   5    4.44    0.56
   0   1   5    4.06    0.39
   0   1   5    4.42    0.50
   0   1   5    3.36    0.38
   0   1   5    3.90    0.53
   0   1   5    4.05    0.45
   0   1   5    3.79    0.43
   1   1   5   13.67    0.65
   1   1   5   14.20    0.77
   1   1   5   13.56    0.71
   1   1   5   15.01    0.67
   1   1   5   13.73    0.82
   1   1   5   13.57    0.74
   1   1   5   14.83    0.82
  -2  -1  -5    9.61    0.60
  -2  -1  -5    8.95    0.69
  -2  -1  -5   10.36    0.80
   2   1   5    9.18    0.86
   2   1   5    9.43    0.54
   2   1   5   10.14    0.70
   2   1   5    8.75    0.80
   2   1   5    9.59    0.84
   2   1   5    8.88    0.72
   2   1   5   10.34    0.65
  -3  -1  -5    1.41    0.43
  -3  -1  -5    1.08    0.36
   3   1   5    1.96    0.49
   3   1   5    1.25    0.41
   3   1   5    2.27    0.42
   3   1   5    1.43    0.41
   3   1   5    2.28    0.50
   3   1   5    2.25    0.50
  -4  -1  -5   -0.04    0.27
  -4  -1  -5   -0.28    0.27
   4   1   5   -0.37    0.31
   4   1   5   -0.27    0.29
   4   1   5   -0.07    0.21
   4   1   5    0.30    0.32
   4   1   5   -0.11    0.31
   4   1   5    0.12    0.31
  -5  -1  -5    0.14    0.30
  -5  -1  -5    0.15    0.33
   5   1   5   -0.08    0.28
   5   1   5   -0.16    0.29
   5   1   5    0.01    0.27
   5   1   5    0.25    0.34
   5   1   5   -0.10    0.32
  -6  -1  -5    0.15    0.38
  -6  -1  -5    0.12    0.32
   6   1   5   -0.52    0.37
   6   1   5    0.36    0.43
   6   1   5    0.18    0.28
   9  -2  -5    0.44    0.56
   9  -2  -5    0.09    0.39
  -9   2   5    0.86    0.45
  -9   2   5    0.69    0.47
   8  -2  -5   -0.39    0.34
   8  -2  -5    0.36    0.40
  -8   2   5    0.07    0.33
  -8   2   5   -0.11    0.37
   7  -2  -5    0.39    0.44
   7  -2  -5   -0.13    0.27
  -7   2   5    0.39    0.32
  -7   2   5    0.24    0.26
  -7   2   5   -0.18    0.29
   6  -2  -5    0.82    0.41
   6  -2  -5    1.22    0.52
  -6   2   5    1.72    0.41
  -6   2   5    1.32    0.41
  -6   2   5    1.53    0.40
   5  -2  -5    0.93    0.41
   5  -2  -5    0.84    0.40
  -5   2   5    0.50    0.32
  -5   2   5    0.68    0.29
  -5   2   5    0.55    0.28
   4  -2  -5   -0.07    0.28
   4  -2  -5   -0.26    0.21
  -4   2   5   -0.01    0.31
  -4   2   5    0.22    0.23
  -4   2   5   -0.17    0.18
  -4   2   5    0.01    0.22
   3  -2  -5    3.90    0.27
   3  -2  -5    3.55    0.32
   3  -2  -5    2.95    0.50
   3  -2  -5    3.84    0.56
  -3   2   5    3.14    0.46
  -3   2   5    4.50    0.61
  -3   2   5    3.52    0.54
  -3   2   5    3.00    0.43
  -3   2   5    3.78    0.43
   2  -2  -5    5.10    0.57
   2  -2  -5    6.49    0.42
   2  -2  -5    6.79    0.42
   2  -2  -5    5.99    0.66
   2  -2  -5    6.30    0.32
  -2   2   5    7.19    0.66
  -2   2   5    5.86    0.46
  -2   2   5    4.84    0.60
  -2   2   5    6.87    0.72
  -2   2   5    6.30    0.38
  -2   2   5    6.53    0.58
   1  -2  -5   26.10    1.04
   1  -2  -5   26.64    1.01
   1  -2  -5   25.47    0.85
   1  -2  -5   26.63    0.65
   1  -2  -5   26.38    0.91
  -1   2   5   26.94    0.94
  -1   2   5   27.95    1.10
  -1   2   5   26.65    0.87
  -1   2   5   26.35    0.97
  -1   2   5   26.89    0.99
  -1   2   5   25.66    0.77
  -1   2   5   25.98    1.07
   0  -2  -5    0.98    0.32
   0  -2  -5    1.09    0.21
   0   2   5    1.30    0.31
   0   2   5    0.99    0.32
   0   2   5    1.07    0.33
   0   2   5    0.84    0.28
   0   2   5    1.15    0.29
   0   2   5    1.27    0.27
   0   2   5    1.82    0.39
  -1  -2  -5    0.27    0.27
  -1  -2  -5    0.04    0.25
  -1  -2  -5   -0.09    0.23
   1   2   5   -0.05    0.21
   1   2   5   -0.13    0.17
   1   2   5   -0.14    0.21
   1   2   5   -0.16    0.21
   1   2   5    0.17    0.24
   1   2   5    0.28    0.25
   1   2   5   -0.16    0.21
  -2  -2  -5    0.26    0.26
  -2  -2  -5    0.09    0.26
  -2  -2  -5    0.79    0.38
   2   2   5    1.03    0.35
   2   2   5    0.25    0.31
   2   2   5    0.56    0.31
   2   2   5   -0.20    0.25
   2   2   5    0.53    0.28
   2   2   5    0.50    0.31
  -3  -2  -5    2.19    0.47
  -3  -2  -5    1.93    0.50
   3   2   5    2.78    0.56
   3   2   5    2.76    0.47
   3   2   5    1.90    0.52
   3   2   5    2.88    0.55
   3   2   5    2.64    0.56
   3   2   5    2.34    0.53
  -4  -2  -5    0.33    0.34
  -4  -2  -5    0.02    0.29
   4   2   5    0.21    0.34
   4   2   5    0.03    0.24
   4   2   5   -0.38    0.30
   4   2   5   -0.13    0.31
   4   2   5   -0.01    0.31
  -5  -2  -5    0.22    0.34
  -5  -2  -5   -0.19    0.33
   5   2   5   -0.51    0.32
   5   2   5    0.52    0.32
   9  -3  -5    0.42    0.47
   9  -3  -5    0.60    0.54
  -9   3   5    0.83    0.46
  -9   3   5   -0.37    0.36
   8  -3  -5   -0.19    0.31
   8  -3  -5    0.32    0.43
  -8   3   5    0.17    0.29
  -8   3   5    0.23    0.38
  -8   3   5    0.28    0.37
   7  -3  -5    0.03    0.34
   7  -3  -5    0.24    0.38
  -7   3   5    0.68    0.33
  -7   3   5    0.38    0.29
  -7   3   5    0.40    0.40
   6  -3  -5    2.04    0.59
   6  -3  -5    0.84    0.45
  -6   3   5    0.84    0.35
  -6   3   5    0.98    0.39
  -6   3   5    0.95    0.39
   5  -3  -5   -0.02    0.34
   5  -3  -5   -0.07    0.26
  -5   3   5   -0.23    0.20
  -5   3   5    0.12    0.29
  -5   3   5   -0.23    0.20
   4  -3  -5    3.52    0.60
   4  -3  -5    2.47    0.53
  -4   3   5    3.29    0.62
  -4   3   5    2.78    0.46
  -4   3   5    2.76    0.44
  -4   3   5    1.84    0.41
   3  -3  -5   14.80    0.89
   3  -3  -5   15.81    0.91
  -3   3   5   16.35    0.96
  -3   3   5   17.33    0.93
  -3   3   5   16.98    0.83
  -3   3   5   15.63    0.93
  -3   3   5   16.00    0.77
   2  -3  -5    4.26    0.41
   2  -3  -5    5.59    0.64
   2  -3  -5    4.54    0.45
   2  -3  -5    4.46    0.29
   2  -3  -5    4.44    0.59
  -2   3   5    3.72    0.52
  -2   3   5    4.30    0.50
  -2   3   5    3.68    0.47
  -2   3   5    4.77    0.44
  -2   3   5    4.00    0.57
  -2   3   5    4.21    0.59
   1  -3  -5    2.27    0.27
   1  -3  -5    2.38    0.42
   1  -3  -5    2.25    0.43
   1  -3  -5    2.85    0.51
   1  -3  -5    2.30    0.43
  -1   3   5    2.25    0.40
  -1   3   5    1.87    0.41
  -1   3   5    2.53    0.43
  -1   3   5    1.86    0.41
  -1   3   5    2.39    0.38
  -1   3   5    3.12    0.45
  -1   3   5    2.09    0.32
   0  -3  -5   -0.09    0.23
   0  -3  -5   -0.11    0.23
   0  -3  -5   -0.47    0.18
   0  -3  -5    0.31    0.32
   0  -3  -5    0.00    0.24
   0   3   5   -0.12    0.22
   0   3   5   -0.20    0.20
   0   3   5    0.07    0.25
   0   3   5   -0.18    0.19
   0   3   5   -0.10    0.21
   0   3   5    0.17    0.24
   0   3   5   -0.05    0.16
  -1  -3  -5    0.48    0.34
  -1  -3  -5    1.18    0.37
  -1  -3  -5    0.65    0.33
   1   3   5    0.48    0.29
   1   3   5    0.28    0.28
   1   3   5    0.29    0.29
   1   3   5    0.59    0.28
   1   3   5    1.00    0.36
   1   3   5    0.92    0.33
   1   3   5    1.31    0.41
  -2  -3  -5   -0.27    0.23
  -2  -3  -5    0.07    0.27
   2   3   5   -0.12    0.26
   2   3   5   -0.04    0.21
   2   3   5   -0.08    0.24
   2   3   5    0.09    0.29
  -3  -3  -5    0.00    0.29
  -3  -3  -5   -0.11    0.27
   3   3   5   -0.14    0.32
   3   3   5   -0.09    0.29
   3   3   5    0.02    0.28
   3   3   5    0.19    0.28
  -4  -3  -5    0.06    0.30
  -4  -3  -5    0.45    0.38
   4   3   5    0.29    0.34
   4   3   5    0.24    0.40
   4   3   5   -0.07    0.45
   4   3   5   -0.32    0.29
   9  -4  -5    0.42    0.46
   9  -4  -5    0.02    0.38
  -9   4   5    0.08    0.41
  -9   4   5   -0.11    0.30
  -9   4   5    0.68    0.44
   8  -4  -5    0.13    0.38
   8  -4  -5   -0.09    0.35
   8  -4  -5    0.05    0.44
  -8   4   5    0.25    0.35
  -8   4   5    0.12    0.30
  -8   4   5   -0.01    0.41
   7  -4  -5    0.82    0.46
   7  -4  -5   -0.25    0.38
   7  -4  -5   -0.05    0.32
  -7   4   5   -0.06    0.22
  -7   4   5   -0.14    0.28
  -7   4   5    0.38    0.37
   6  -4  -5    0.94    0.47
   6  -4  -5    0.51    0.44
   6  -4  -5   -0.05    0.32
  -6   4   5    1.92    0.46
  -6   4   5    0.51    0.33
  -6   4   5    0.22    0.30
   5  -4  -5    1.56    0.49
   5  -4  -5    2.40    0.58
   5  -4  -5    1.55    0.51
  -5   4   5    2.52    0.47
  -5   4   5    2.76    0.52
   4  -4  -5    0.74    0.35
   4  -4  -5    0.20    0.37
   4  -4  -5    1.05    0.49
  -4   4   5    0.37    0.29
  -4   4   5    0.43    0.35
   3  -4  -5    0.59    0.32
   3  -4  -5    0.56    0.34
   3  -4  -5    0.08    0.36
  -3   4   5    0.30    0.33
  -3   4   5    0.43    0.32
  -3   4   5    0.22    0.26
  -3   4   5    0.19    0.31
   2  -4  -5    2.07    0.46
   2  -4  -5    1.31    0.37
   2  -4  -5    1.22    0.44
  -2   4   5    1.08    0.33
  -2   4   5    1.39    0.41
  -2   4   5    1.74    0.44
  -2   4   5    1.39    0.41
   1  -4  -5    4.27    0.57
   1  -4  -5    3.54    0.55
   1  -4  -5    5.00    0.63
   1  -4  -5    3.57    0.63
  -1   4   5    4.55    0.62
  -1   4   5    3.71    0.59
  -1   4   5    4.62    0.55
  -1   4   5    4.23    0.59
   0  -4  -5    0.74    0.40
   0  -4  -5    1.19    0.42
   0   4   5    0.59    0.26
   0   4   5    0.87    0.37
   0   4   5    0.15    0.29
   0   4   5    0.60    0.34
  -1  -4  -5    0.55    0.37
  -1  -4  -5   -0.05    0.34
   1   4   5   -0.30    0.17
   1   4   5    0.33    0.33
   1   4   5   -0.28    0.27
  -2  -4  -5    0.95    0.43
   2   4   5    0.88    0.41
   2   4   5    0.40    0.39
   2   4   5    0.44    0.27
  -3  -4  -5   -0.20    0.30
   3   4   5    0.19    0.36
   3   4   5    0.59    0.35
   3   4   5   -0.56    0.28
   8  -5  -5    1.29    0.56
   8  -5  -5   -0.16    0.40
   8  -5  -5    0.59    0.49
  -8   5   5    1.04    0.48
  -8   5   5    0.63    0.41
   7  -5  -5   -0.06    0.38
   7  -5  -5   -0.62    0.33
   7  -5  -5    0.40    0.43
  -7   5   5    0.09    0.31
  -7   5   5   -0.02    0.29
   6  -5  -5    4.94    0.77
   6  -5  -5    4.57    0.81
   6  -5  -5    3.30    0.67
  -6   5   5    3.41    0.63
  -6   5   5    3.67    0.62
   5  -5  -5   10.11    1.05
   5  -5  -5    8.41    0.94
   5  -5  -5    8.14    0.92
  -5   5   5    7.61    0.85
  -5   5   5    7.38    0.81
   4  -5  -5    4.40    0.70
   4  -5  -5    3.24    0.67
   4  -5  -5    2.92    0.58
  -4   5   5    2.30    0.51
  -4   5   5    1.58    0.42
   3  -5  -5    7.73    0.92
   3  -5  -5    6.82    0.77
  -3   5   5    5.90    0.75
  -3   5   5    5.86    0.71
  -3   5   5    5.95    0.73
   2  -5  -5    0.61    0.38
  -2   5   5    1.90    0.49
  -2   5   5    1.34    0.41
   1  -5  -5   -0.08    0.40
   1  -5  -5    0.04    0.26
  -1   5   5    0.11    0.30
  -1   5   5    0.01    0.29
   0  -5  -5    3.27    0.62
   0  -5  -5    1.43    0.50
   0   5   5    3.79    0.61
   0   5   5    2.36    0.53
   0   5   5    2.54    0.51
  -1  -5  -5   -0.04    0.35
   1   5   5   -0.15    0.34
   1   5   5   -0.45    0.32
   1   5   5    0.28    0.27
  -2  -5  -5    0.15    0.38
   2   5   5    0.28    0.42
   2   5   5    0.30    0.42
   2   5   5   -0.05    0.25
   8  -6  -5    3.71    0.82
   8  -6  -5    3.23    0.75
   8  -6  -5    2.99    0.76
  -8   6   5    1.94    0.57
  -8   6   5    2.62    0.61
   7  -6  -5    5.95    0.94
   7  -6  -5    5.86    0.91
   7  -6  -5    7.32    1.01
  -7   6   5    7.05    0.91
  -7   6   5    6.62    0.87
   6  -6  -5    0.50    0.38
   6  -6  -5    0.25    0.45
  -6   6   5    0.30    0.35
  -6   6   5    0.35    0.35
   5  -6  -5    0.53    0.42
   5  -6  -5    0.20    0.38
  -5   6   5    0.00    0.29
  -5   6   5    0.54    0.33
   4  -6  -5    0.46    0.35
  -4   6   5    0.36    0.30
  -4   6   5    0.24    0.29
   3  -6  -5    0.71    0.43
  -3   6   5    0.53    0.37
  -3   6   5    0.81    0.40
   2  -6  -5    3.94    0.72
  -2   6   5    4.43    0.75
  -2   6   5    5.47    0.78
   1  -6  -5   -0.54    0.37
  -1   6   5    0.20    0.33
  -1   6   5    0.62    0.38
   0  -6  -5    3.45    0.67
   0  -6  -5    2.02    0.61
   0   6   5    3.13    0.73
  -1  -6  -5   -0.08    0.37
   1   6   5   -0.37    0.42
   7  -7  -5   -0.02    0.48
   7  -7  -5   -0.02    0.45
  -7   7   5    0.32    0.36
  -7   7   5   -0.19    0.31
   6  -7  -5   -0.04    0.42
  -6   7   5   -0.31    0.27
  -6   7   5   -0.41    0.32
   5  -7  -5    0.28    0.43
  -5   7   5    0.44    0.35
  -5   7   5    0.21    0.39
   4  -7  -5    0.88    0.54
  -4   7   5    1.20    0.50
  -4   7   5    1.04    0.45
   3  -7  -5    0.79    0.46
  -3   7   5   -0.17    0.27
  -3   7   5   -0.12    0.31
   2  -7  -5    2.10    0.67
  -2   7   5    2.19    0.54
  -2   7   5    1.24    0.52
   1  -7  -5   -0.03    0.42
  -1   7   5    0.02    0.34
  -2  10  -6    1.30    0.39
  -2  10  -6    1.22    0.51
  -2  10  -6    0.79    0.42
   2 -10   6    0.24    0.52
   2 -10   6    0.84    0.61
  -3  10  -6    0.12    0.36
  -3  10  -6    0.71    0.46
   3 -10   6    0.93    0.65
  -4  10  -6    0.06    0.30
  -4  10  -6   -0.18    0.39
   4 -10   6    0.21    0.65
  -5  10  -6    0.69    0.41
  -5  10  -6   -0.01    0.37
   5 -10   6    0.05    0.58
   1   9  -6    2.32    0.72
   1   9  -6    3.19    0.58
   1   9  -6    3.08    0.70
  -1  -9   6    2.62    0.73
  -1  -9   6    3.20    0.86
   0   9  -6    0.65    0.45
   0   9  -6    1.48    0.40
   0   9  -6    0.90    0.46
   0  -9   6    0.93    0.55
   0  -9   6    0.95    0.59
  -1   9  -6    0.30    0.37
  -1   9  -6   -0.06    0.22
  -1   9  -6    0.07    0.35
   1  -9   6    0.65    0.50
   1  -9   6   -0.71    0.36
  -2   9  -6    1.05    0.51
  -2   9  -6    0.39    0.39
  -2   9  -6    0.86    0.32
   2  -9   6    0.22    0.49
  -3   9  -6   -0.12    0.26
  -3   9  -6    0.20    0.24
  -3   9  -6   -0.37    0.31
   3  -9   6    0.26    0.46
  -4   9  -6    0.48    0.34
  -4   9  -6    0.96    0.33
  -4   9  -6    0.79    0.45
   4  -9   6    0.51    0.53
  -5   9  -6    0.37    0.45
  -5   9  -6   -0.11    0.29
   5  -9   6    0.40    0.51
  -6   9  -6    0.63    0.52
  -6   9  -6    0.05    0.26
   6  -9   6   -0.01    0.38
   6  -9   6    0.31    0.51
  -7   9  -6    0.12    0.32
   7  -9   6   -0.17    0.31
   2   8  -6   -0.74    0.37
   2   8  -6   -0.04    0.24
   2   8  -6   -0.06    0.28
  -2  -8   6    0.91    0.56
  -2  -8   6    0.28    0.46
   1   8  -6    0.50    0.32
   1   8  -6    0.11    0.29
   1   8  -6    0.17    0.38
  -1  -8   6    0.46    0.46
  -1  -8   6    0.19    0.40
   0   8  -6   -0.03    0.24
   0   8  -6    0.48    0.28
   0   8  -6    0.22    0.38
   0  -8   6   -0.35    0.34
   0  -8   6    0.96    0.50
  -1   8  -6    0.38    0.43
  -1   8  -6    0.02    0.23
  -1   8  -6    0.40    0.36
   1  -8   6   -0.33    0.35
   1  -8   6   -0.05    0.44
  -2   8  -6   -0.09    0.28
  -2   8  -6    0.02    0.19
  -2   8  -6    0.04    0.32
   2  -8   6    0.42    0.47
  -3   8  -6   18.68    1.09
  -3   8  -6   20.58    0.90
  -3   8  -6   19.25    1.15
   3  -8   6   20.06    1.35
  -4   8  -6   -0.36    0.34
  -4   8  -6    0.37    0.25
  -4   8  -6    0.22    0.32
   4  -8   6   -0.02    0.29
   4  -8   6    0.02    0.43
  -5   8  -6   -0.01    0.26
  -5   8  -6    0.03    0.22
  -5   8  -6   -0.13    0.44
   5  -8   6    0.44    0.36
   5  -8   6    0.41    0.42
   5  -8   6    0.27    0.35
  -6   8  -6   -0.35    0.43
  -6   8  -6   -0.10    0.26
   6  -8   6    0.17    0.39
   6  -8   6    0.13    0.39
  -7   8  -6    0.06    0.32
  -7   8  -6    0.07    0.51
   7  -8   6    0.38    0.46
   7  -8   6   -0.43    0.35
   3   7  -6    0.59    0.45
   3   7  -6   -0.01    0.25
   3   7  -6   -0.46    0.25
  -3  -7   6    0.42    0.52
  -3  -7   6    0.63    0.44
   2   7  -6   -0.24    0.34
   2   7  -6   -0.08    0.24
   2   7  -6    0.00    0.28
  -2  -7   6    0.84    0.51
  -2  -7   6    0.02    0.40
   1   7  -6    0.16    0.33
   1   7  -6   -0.06    0.21
   1   7  -6    0.32    0.32
  -1  -7   6    0.51    0.44
  -1  -7   6   -0.39    0.29
   0   7  -6    1.12    0.31
   0   7  -6    1.45    0.47
   0   7  -6    0.84    0.43
   0  -7   6    1.20    0.50
   0  -7   6   -0.09    0.42
  -1   7  -6   42.65    1.60
  -1   7  -6   42.86    1.23
  -1   7  -6   40.52    1.53
   1  -7   6   42.32    1.78
  -2   7  -6    0.16    0.22
  -2   7  -6   -0.07    0.32
  -2   7  -6    0.34    0.33
   2  -7   6    0.03    0.25
   2  -7   6    0.15    0.27
   2  -7   6    0.03    0.44
  -3   7  -6    3.49    0.59
  -3   7  -6    3.93    0.46
  -3   7  -6    3.12    0.60
   3  -7   6    3.13    0.62
   3  -7   6    3.65    0.57
   3  -7   6    4.05    0.62
   3  -7   6    3.99    0.56
  -4   7  -6    0.55    0.31
  -4   7  -6   -0.10    0.16
  -4   7  -6   -0.33    0.34
  -4   7  -6    0.35    0.31
   4  -7   6   -0.27    0.24
   4  -7   6    0.01    0.31
   4  -7   6   -0.09    0.25
   4  -7   6   -0.31    0.33
  -5   7  -6    1.60    0.35
  -5   7  -6    1.27    0.42
  -5   7  -6    1.57    0.54
  -5   7  -6    0.96    0.38
   5  -7   6    1.90    0.53
   5  -7   6    2.37    0.56
   5  -7   6    1.82    0.43
   5  -7   6    1.15    0.43
   5  -7   6    1.92    0.45
  -6   7  -6    1.38    0.34
  -6   7  -6    1.35    0.52
  -6   7  -6    0.83    0.42
  -6   7  -6    1.01    0.38
  -6   7  -6    0.62    0.36
   6  -7   6    1.26    0.50
   6  -7   6    0.87    0.42
   6  -7   6    1.37    0.53
   6  -7   6    0.66    0.34
  -7   7  -6    0.31    0.37
  -7   7  -6    0.55    0.43
  -7   7  -6    0.70    0.28
  -7   7  -6    1.12    0.50
   7  -7   6    0.78    0.50
   7  -7   6    0.02    0.28
   7  -7   6    0.54    0.40
   7  -7   6    1.00    0.50
  -8   7  -6   -0.12    0.41
  -8   7  -6    0.35    0.49
  -8   7  -6    0.69    0.48
   8  -7   6    0.47    0.40
   8  -7   6    0.33    0.44
   8  -7   6    0.09    0.45
   8  -7   6    0.09    0.38
   5   6  -6    0.19    0.30
   5   6  -6    0.29    0.44
  -5  -6   6    0.16    0.50
  -5  -6   6    0.19    0.40
  -5  -6   6    0.07    0.35
   4   6  -6    1.79    0.45
   4   6  -6    2.59    0.66
  -4  -6   6    1.16    0.49
  -4  -6   6    1.55    0.57
  -4  -6   6    1.05    0.53
   3   6  -6    0.61    0.39
   3   6  -6   -0.01    0.31
   3   6  -6   -0.03    0.20
  -3  -6   6   -0.21    0.28
  -3  -6   6    0.19    0.42
  -3  -6   6    0.32    0.43
   2   6  -6    4.16    0.54
   2   6  -6    5.04    0.68
   2   6  -6    5.15    0.73
  -2  -6   6    6.07    0.72
  -2  -6   6    5.01    0.77
  -2  -6   6    5.78    0.90
   1   6  -6   16.86    0.83
   1   6  -6   16.79    1.02
   1   6  -6   17.09    1.04
  -1  -6   6   16.94    1.17
  -1  -6   6   17.01    0.95
  -1  -6   6   13.83    1.12
   0   6  -6   10.86    0.96
   0   6  -6   10.36    0.65
   0   6  -6   10.98    0.86
   0  -6   6   11.55    0.79
   0  -6   6   11.86    1.11
   0  -6   6   10.51    0.77
   0  -6   6   11.62    0.72
   0  -6   6   11.06    1.09
  -1   6  -6    5.21    0.65
  -1   6  -6    4.83    0.67
  -1   6  -6    6.41    0.65
  -1   6  -6    4.59    0.50
   1  -6   6    6.51    0.66
   1  -6   6    5.30    0.76
   1  -6   6    6.11    0.65
   1  -6   6    6.40    0.68
  -2   6  -6    0.90    0.27
  -2   6  -6    0.63    0.34
  -2   6  -6    1.16    0.43
   2  -6   6    1.12    0.35
   2  -6   6    0.51    0.43
   2  -6   6    1.20    0.39
   2  -6   6    0.77    0.30
  -3   6  -6    1.41    0.48
  -3   6  -6    1.19    0.27
  -3   6  -6    1.09    0.41
   3  -6   6    1.25    0.42
   3  -6   6    0.97    0.36
   3  -6   6    1.15    0.40
   3  -6   6    0.88    0.38
  -4   6  -6    6.18    0.70
  -4   6  -6    6.12    0.77
  -4   6  -6    7.11    0.74
  -4   6  -6    5.31    0.51
   4  -6   6    5.94    0.75
   4  -6   6    7.57    0.80
   4  -6   6    6.19    0.79
   4  -6   6    7.15    0.77
   4  -6   6    5.63    0.62
  -5   6  -6    0.34    0.21
  -5   6  -6    0.10    0.42
  -5   6  -6    0.08    0.28
  -5   6  -6    0.46    0.28
  -5   6  -6   -0.06    0.28
   5  -6   6    0.11    0.33
   5  -6   6   -0.26    0.23
   5  -6   6    0.32    0.34
   5  -6   6    0.03    0.34
  -6   6  -6    0.85    0.41
  -6   6  -6    0.92    0.28
  -6   6  -6    2.17    0.54
  -6   6  -6    0.99    0.48
  -6   6  -6    1.56    0.40
   6  -6   6    0.98    0.45
   6  -6   6    2.08    0.60
   6  -6   6    0.85    0.36
   6  -6   6    1.50    0.50
  -7   6  -6    0.57    0.48
  -7   6  -6    0.48    0.42
  -7   6  -6    0.08    0.21
  -7   6  -6    0.29    0.40
   7  -6   6    0.50    0.32
   7  -6   6   -0.08    0.34
   7  -6   6    0.41    0.37
   7  -6   6    0.51    0.41
  -8   6  -6    0.42    0.26
  -8   6  -6    0.56    0.46
  -8   6  -6   -0.34    0.32
  -8   6  -6    0.45    0.45
   8  -6   6   -0.17    0.31
   8  -6   6    0.70    0.43
   8  -6   6   -0.11    0.41
   8  -6   6   -0.06    0.42
   5   5  -6   -0.27    0.29
   5   5  -6    0.20    0.25
  -5  -5   6   -0.29    0.36
  -5  -5   6   -0.20    0.36
  -5  -5   6    0.04    0.33
   4   5  -6    3.75    0.53
   4   5  -6    6.22    0.83
   4   5  -6    4.39    0.62
  -4  -5   6    4.56    0.80
  -4  -5   6    4.90    0.73
  -4  -5   6    4.98    0.81
   3   5  -6    1.82    0.46
   3   5  -6    1.65    0.46
   3   5  -6    1.98    0.41
  -3  -5   6    1.32    0.45
  -3  -5   6    1.36    0.51
  -3  -5   6    1.20    0.48
   2   5  -6   13.18    0.92
   2   5  -6   13.11    0.87
   2   5  -6   11.47    0.71
   2   5  -6   14.23    0.87
  -2  -5   6   15.24    0.93
  -2  -5   6   14.52    1.06
  -2  -5   6   13.55    0.83
  -2  -5   6   14.03    0.88
  -2  -5   6   15.52    1.10
   1   5  -6    0.03    0.17
   1   5  -6    0.33    0.34
   1   5  -6    0.84    0.31
   1   5  -6    0.66    0.30
   1   5  -6    0.70    0.35
  -1  -5   6    0.86    0.46
  -1  -5   6    0.86    0.34
  -1  -5   6    0.39    0.29
  -1  -5   6    0.69    0.34
  -1  -5   6   -0.02    0.33
   0   5  -6    4.06    0.45
   0   5  -6    4.38    0.62
   0   5  -6    4.93    0.65
   0   5  -6    3.59    0.52
   0  -5   6    6.56    0.67
   0  -5   6    5.27    0.63
   0  -5   6    3.97    0.57
   0  -5   6    4.65    0.65
  -1   5  -6   -0.17    0.17
  -1   5  -6   -0.13    0.27
  -1   5  -6    0.33    0.30
   1  -5   6   -0.35    0.18
   1  -5   6    0.09    0.20
   1  -5   6   -0.22    0.18
   1  -5   6   -0.48    0.30
  -2   5  -6    4.30    0.47
  -2   5  -6    4.35    0.58
  -2   5  -6    5.27    0.67
   2  -5   6    4.96    0.69
   2  -5   6    4.60    0.61
   2  -5   6    4.97    0.63
   2  -5   6    3.66    0.52
  -3   5  -6    0.12    0.25
  -3   5  -6   -0.03    0.15
  -3   5  -6   -0.04    0.31
   3  -5   6   -0.01    0.22
   3  -5   6    0.10    0.30
   3  -5   6   -0.10    0.24
   3  -5   6   -0.12    0.20
   3  -5   6   -0.30    0.21
  -4   5  -6    0.33    0.28
  -4   5  -6   -0.29    0.32
  -4   5  -6    0.46    0.29
  -4   5  -6    0.18    0.26
  -4   5  -6    0.05    0.18
   4  -5   6   -0.08    0.23
   4  -5   6   -0.31    0.23
   4  -5   6    0.28    0.28
   4  -5   6    0.27    0.30
   4  -5   6   -0.24    0.28
  -5   5  -6   -0.07    0.23
  -5   5  -6   -0.11    0.21
  -5   5  -6   -0.32    0.30
  -5   5  -6   -0.17    0.16
  -5   5  -6   -0.29    0.31
   5  -5   6    0.77    0.38
   5  -5   6    0.19    0.38
   5  -5   6   -0.21    0.27
   5  -5   6    0.46    0.29
  -6   5  -6    0.55    0.23
  -6   5  -6    1.75    0.50
  -6   5  -6    0.67    0.40
  -6   5  -6    1.70    0.51
   6  -5   6    1.67    0.44
   6  -5   6    0.68    0.42
   6  -5   6    0.76    0.39
   6  -5   6    1.23    0.48
  -7   5  -6    0.19    0.45
  -7   5  -6    0.41    0.44
  -7   5  -6    0.20    0.23
  -7   5  -6   -0.45    0.30
   7  -5   6    0.43    0.39
   7  -5   6    0.11    0.31
   7  -5   6    0.50    0.43
   7  -5   6   -0.26    0.33
  -8   5  -6    1.00    0.51
  -8   5  -6   -0.28    0.41
  -8   5  -6   -0.01    0.22
  -8   5  -6    0.54    0.43
   8  -5   6   -0.44    0.32
   8  -5   6   -0.03    0.32
   8  -5   6    0.27    0.40
   8  -5   6    0.16    0.41
   6   4  -6    0.39    0.32
   6   4  -6    0.37    0.39
  -6  -4   6    1.17    0.52
  -6  -4   6   -0.16    0.30
   5   4  -6    1.42    0.53
   5   4  -6    1.81    0.50
   5   4  -6    1.63    0.38
  -5  -4   6    1.22    0.48
  -5  -4   6    1.39    0.52
  -5  -4   6    2.11    0.53
   4   4  -6    1.08    0.41
   4   4  -6    1.09    0.39
   4   4  -6    0.82    0.29
   4   4  -6    1.44    0.46
   4   4  -6    1.18    0.38
  -4  -4   6    1.73    0.48
  -4  -4   6    0.57    0.36
  -4  -4   6    1.85    0.54
   3   4  -6    4.20    0.58
   3   4  -6    3.87    0.56
   3   4  -6    4.81    0.54
   3   4  -6    4.20    0.63
   3   4  -6    3.75    0.63
  -3  -4   6    3.69    0.61
  -3  -4   6    5.11    0.63
  -3  -4   6    4.12    0.68
  -3  -4   6    4.83    0.73
   2   4  -6    0.88    0.35
   2   4  -6    1.25    0.37
   2   4  -6    0.24    0.22
   2   4  -6    0.72    0.33
   2   4  -6    0.63    0.32
  -2  -4   6    0.22    0.35
  -2  -4   6    0.20    0.33
  -2  -4   6    0.90    0.36
  -2  -4   6    1.08    0.33
  -2  -4   6    1.08    0.35
   1   4  -6    0.56    0.30
   1   4  -6    0.10    0.27
   1   4  -6    0.37    0.24
   1   4  -6    0.28    0.30
   1   4  -6    0.46    0.26
  -1  -4   6    0.40    0.36
  -1  -4   6    0.29    0.28
  -1  -4   6    0.46    0.28
  -1  -4   6    0.50    0.34
  -1  -4   6    0.49    0.28
   0   4  -6    3.73    0.52
   0   4  -6    4.31    0.58
   0   4  -6    4.25    0.59
   0   4  -6    3.83    0.42
   0  -4   6    3.70    0.57
   0  -4   6    3.89    0.53
   0  -4   6    4.31    0.54
   0  -4   6    3.39    0.50
  -1   4  -6    0.47    0.31
  -1   4  -6    1.15    0.27
  -1   4  -6    0.78    0.34
   1  -4   6    0.70    0.28
   1  -4   6    0.93    0.32
   1  -4   6    1.19    0.39
   1  -4   6    1.21    0.35
  -2   4  -6   12.79    0.74
  -2   4  -6   12.26    0.59
  -2   4  -6   11.53    0.79
   2  -4   6   11.00    0.77
   2  -4   6   10.82    0.67
   2  -4   6   12.08    0.76
   2  -4   6   10.87    0.78
   2  -4   6    8.61    0.69
  -3   4  -6   -0.71    0.23
  -3   4  -6    0.18    0.24
  -3   4  -6   -0.24    0.14
  -3   4  -6    0.16    0.20
   3  -4   6   -0.21    0.20
   3  -4   6    0.08    0.22
   3  -4   6   -0.16    0.20
   3  -4   6    0.06    0.21
   3  -4   6    0.15    0.27
  -4   4  -6    0.34    0.34
  -4   4  -6   -0.15    0.26
  -4   4  -6    0.41    0.21
  -4   4  -6    0.85    0.34
  -4   4  -6    0.65    0.31
   4  -4   6   -0.08    0.27
   4  -4   6    0.08    0.23
   4  -4   6    0.43    0.31
   4  -4   6    0.48    0.33
   4  -4   6    1.02    0.31
  -5   4  -6    0.21    0.20
  -5   4  -6    0.89    0.42
  -5   4  -6    0.11    0.27
  -5   4  -6    0.33    0.35
   5  -4   6    0.48    0.40
   5  -4   6    0.15    0.32
   5  -4   6    0.03    0.29
   5  -4   6    0.69    0.30
  -6   4  -6    0.48    0.38
  -6   4  -6    0.46    0.42
  -6   4  -6    0.62    0.24
  -6   4  -6    0.71    0.40
   6  -4   6    0.40    0.37
   6  -4   6    0.34    0.40
   6  -4   6    0.87    0.42
   6  -4   6    0.77    0.44
   6  -4   6    0.77    0.32
  -7   4  -6    0.20    0.34
  -7   4  -6   -0.21    0.37
  -7   4  -6   -0.11    0.31
  -7   4  -6   -0.07    0.21
   7  -4   6   -0.33    0.29
   7  -4   6    0.04    0.30
   7  -4   6   -0.09    0.40
   7  -4   6    0.14    0.37
   7  -4   6    0.48    0.38
  -8   4  -6    0.36    0.46
  -8   4  -6   -0.11    0.45
  -8   4  -6    0.28    0.41
  -8   4  -6    0.43    0.23
   8  -4   6   -0.24    0.28
   8  -4   6    0.36    0.35
   8  -4   6    0.63    0.52
   8  -4   6    0.19    0.42
   8  -4   6    0.06    0.40
   7   3  -6    0.95    0.47
   7   3  -6    0.98    0.56
   7   3  -6    1.05    0.39
  -7  -3   6    0.89    0.46
   6   3  -6    0.29    0.39
   6   3  -6   -0.16    0.39
   6   3  -6    0.30    0.36
   6   3  -6    0.74    0.31
  -6  -3   6    0.20    0.35
  -6  -3   6    0.75    0.40
   5   3  -6    0.21    0.32
   5   3  -6    0.08    0.29
   5   3  -6   -0.19    0.19
   5   3  -6   -0.12    0.28
   5   3  -6   -0.50    0.27
  -5  -3   6    0.03    0.32
  -5  -3   6   -0.06    0.31
  -5  -3   6   -0.71    0.24
   4   3  -6    0.42    0.31
   4   3  -6    0.45    0.31
   4   3  -6    0.50    0.38
   4   3  -6    0.08    0.29
   4   3  -6    0.33    0.23
  -4  -3   6    0.31    0.36
  -4  -3   6   -0.15    0.27
  -4  -3   6    0.09    0.33
   3   3  -6    0.31    0.29
   3   3  -6    0.08    0.27
   3   3  -6    0.07    0.18
   3   3  -6    0.05    0.29
   3   3  -6    0.04    0.28
  -3  -3   6   -0.12    0.30
  -3  -3   6   -0.21    0.30
  -3  -3   6    0.09    0.28
  -3  -3   6    0.29    0.30
  -3  -3   6    0.07    0.25
   2   3  -6    6.98    0.68
   2   3  -6    5.27    0.60
   2   3  -6    4.30    0.44
   2   3  -6    3.85    0.54
   2   3  -6    4.80    0.61
  -2  -3   6    4.71    0.61
  -2  -3   6    4.10    0.59
  -2  -3   6    3.28    0.51
  -2  -3   6    4.96    0.63
  -2  -3   6    4.35    0.57
   1   3  -6    2.36    0.43
   1   3  -6    2.07    0.31
   1   3  -6    2.27    0.41
   1   3  -6    1.57    0.38
   1   3  -6    2.20    0.42
  -1  -3   6    2.27    0.45
  -1  -3   6    1.26    0.36
  -1  -3   6    2.05    0.44
  -1  -3   6    1.56    0.38
   0   3  -6    9.39    0.67
   0   3  -6   10.14    0.51
   0   3  -6    9.62    0.67
   0   3  -6    9.74    0.65
   0  -3   6    9.27    0.65
   0  -3   6    8.99    0.64
   0  -3   6   10.53    0.72
   0  -3   6   10.37    0.71
  -1   3  -6    4.12    0.52
  -1   3  -6    3.80    0.38
  -1   3  -6    4.61    0.54
   1  -3   6    4.16    0.54
   1  -3   6    3.67    0.51
   1  -3   6    4.29    0.55
   1  -3   6    4.59    0.50
   1  -3   6    3.64    0.52
  -2   3  -6    0.32    0.18
  -2   3  -6    0.62    0.20
  -2   3  -6    0.84    0.29
  -2   3  -6    0.32    0.28
   2  -3   6    0.60    0.24
   2  -3   6    0.57    0.27
   2  -3   6    0.31    0.25
   2  -3   6    0.34    0.26
   2  -3   6    0.69    0.33
  -3   3  -6    0.33    0.25
  -3   3  -6    0.60    0.21
  -3   3  -6    1.04    0.32
  -3   3  -6    1.03    0.35
  -3   3  -6    0.61    0.34
   3  -3   6    0.00    0.25
   3  -3   6    0.07    0.21
   3  -3   6    0.53    0.26
   3  -3   6    0.52    0.31
   3  -3   6    1.18    0.38
  -4   3  -6    1.03    0.27
  -4   3  -6    0.62    0.34
  -4   3  -6    0.49    0.28
  -4   3  -6    0.91    0.38
  -4   3  -6    0.44    0.34
   4  -3   6    1.20    0.42
   4  -3   6    0.59    0.33
   4  -3   6   -0.14    0.26
   4  -3   6    0.00    0.27
   4  -3   6    0.23    0.30
  -5   3  -6    0.19    0.30
  -5   3  -6    0.50    0.36
  -5   3  -6   -0.20    0.34
  -5   3  -6    0.63    0.26
   5  -3   6   -0.14    0.22
   5  -3   6   -0.28    0.28
   5  -3   6    0.14    0.31
   5  -3   6    0.34    0.40
   5  -3   6    0.12    0.32
  -6   3  -6    0.37    0.36
  -6   3  -6    0.15    0.23
  -6   3  -6   -0.25    0.27
  -6   3  -6    0.39    0.41
   6  -3   6   -0.11    0.27
   6  -3   6   -0.20    0.25
   6  -3   6   -0.03    0.35
   6  -3   6    0.26    0.36
   6  -3   6    0.05    0.34
  -7   3  -6    0.25    0.43
  -7   3  -6    0.26    0.25
  -7   3  -6    0.42    0.40
  -7   3  -6   -0.01    0.33
   7  -3   6    0.45    0.38
   7  -3   6    0.37    0.36
   7  -3   6   -0.18    0.35
   7  -3   6    0.38    0.41
   7  -3   6    0.84    0.50
   7   2  -6    1.15    0.51
   7   2  -6    1.35    0.45
   7   2  -6    0.94    0.56
   7   2  -6    2.12    0.45
  -7  -2   6    1.56    0.54
   6   2  -6   -0.63    0.24
   6   2  -6    0.58    0.43
   6   2  -6    0.02    0.22
   6   2  -6    0.15    0.41
  -6  -2   6    0.33    0.34
  -6  -2   6   -0.35    0.28
   5   2  -6    0.48    0.31
   5   2  -6    0.04    0.21
   5   2  -6    0.34    0.31
   5   2  -6   -0.40    0.34
   5   2  -6    0.50    0.36
  -5  -2   6    0.01    0.27
  -5  -2   6   -0.08    0.27
  -5  -2   6   -0.08    0.27
   4   2  -6    1.48    0.43
   4   2  -6    1.71    0.50
   4   2  -6    2.27    0.36
   4   2  -6    1.29    0.37
   4   2  -6    1.44    0.37
  -4  -2   6    1.39    0.41
  -4  -2   6    0.66    0.38
  -4  -2   6    1.40    0.36
  -4  -2   6    1.70    0.46
  -4  -2   6    2.03    0.52
   3   2  -6    0.47    0.32
   3   2  -6    0.37    0.19
   3   2  -6    0.64    0.30
   3   2  -6    0.10    0.27
   3   2  -6    0.32    0.30
  -3  -2   6    0.34    0.29
  -3  -2   6    0.28    0.28
  -3  -2   6    0.28    0.30
  -3  -2   6    0.56    0.30
  -3  -2   6    0.67    0.31
  -3  -2   6    0.27    0.28
   2   2  -6    3.35    0.50
   2   2  -6    3.63    0.49
   2   2  -6    3.06    0.35
   2   2  -6    4.37    0.52
   2   2  -6    4.12    0.57
  -2  -2   6    4.04    0.58
  -2  -2   6    2.87    0.48
  -2  -2   6    3.44    0.47
  -2  -2   6    3.17    0.52
  -2  -2   6    3.13    0.50
   1   2  -6    9.41    0.63
   1   2  -6   10.99    0.70
   1   2  -6   11.24    0.75
   1   2  -6    9.82    0.68
   1   2  -6    9.62    0.49
  -1  -2   6   10.23    0.71
  -1  -2   6   10.62    0.73
  -1  -2   6   10.40    0.75
  -1  -2   6   10.18    0.67
  -1  -2   6   10.39    0.70
   0   2  -6    6.96    0.43
   0   2  -6    8.86    0.63
   0   2  -6    6.95    0.54
   0  -2   6    7.25    0.50
   0  -2   6    7.33    0.67
   0  -2   6    5.78    0.63
   0  -2   6    7.26    0.70
   0  -2   6    7.96    0.60
   0  -2   6    6.05    0.63
  -1   2  -6   12.23    0.55
  -1   2  -6   12.68    0.43
  -1   2  -6   12.83    0.78
  -1   2  -6   13.01    0.70
   1  -2   6   11.42    0.62
   1  -2   6   12.84    0.70
   1  -2   6   12.16    0.76
   1  -2   6   12.98    0.74
   1  -2   6   11.30    0.77
   1  -2   6   11.98    0.79
  -2   2  -6    8.69    0.51
  -2   2  -6    9.10    0.49
  -2   2  -6    9.69    0.62
  -2   2  -6    9.44    0.71
   2  -2   6    9.13    0.61
   2  -2   6    8.60    0.61
   2  -2   6    7.84    0.79
   2  -2   6    7.74    0.78
   2  -2   6    9.84    0.71
  -3   2  -6    1.64    0.41
  -3   2  -6    1.50    0.35
  -3   2  -6    1.35    0.34
  -3   2  -6    1.82    0.29
  -3   2  -6    1.30    0.38
   3  -2   6    1.40    0.31
   3  -2   6    1.37    0.41
   3  -2   6    1.62    0.36
   3  -2   6    1.34    0.40
   3  -2   6    1.04    0.37
   3  -2   6    1.11    0.41
  -4   2  -6    0.31    0.22
  -4   2  -6    0.58    0.35
  -4   2  -6    0.37    0.30
  -4   2  -6    0.98    0.40
   4  -2   6    0.17    0.31
   4  -2   6    0.24    0.33
   4  -2   6    0.20    0.30
   4  -2   6    0.15    0.26
   4  -2   6    0.43    0.32
  -5   2  -6    0.10    0.25
  -5   2  -6    0.39    0.21
  -5   2  -6    0.42    0.36
  -5   2  -6   -0.12    0.34
   5  -2   6    0.57    0.41
   5  -2   6   -0.08    0.31
   5  -2   6   -0.06    0.30
   5  -2   6    0.47    0.37
   5  -2   6    0.10    0.27
  -6   2  -6    1.56    0.53
  -6   2  -6    1.59    0.51
  -6   2  -6    1.45    0.50
   6  -2   6    2.39    0.60
   6  -2   6    1.08    0.48
   6  -2   6    1.72    0.43
   6  -2   6    2.64    0.66
   6  -2   6    2.17    0.64
  -7   2  -6   -0.53    0.29
  -7   2  -6   -0.34    0.25
  -7   2  -6    0.02    0.45
  -7   2  -6   -0.24    0.34
   7  -2   6   -0.06    0.31
   7  -2   6   -0.05    0.33
   7  -2   6    0.77    0.38
   7  -2   6   -0.16    0.32
   7  -2   6    0.12    0.38
   8   1  -6    0.80    0.53
   8   1  -6    1.23    0.38
   8   1  -6    0.68    0.52
  -8  -1   6    0.58    0.46
   7   1  -6    0.22    0.23
   7   1  -6    0.11    0.36
   7   1  -6    0.06    0.34
  -7  -1   6    0.12    0.29
  -7  -1   6    0.28    0.36
   6   1  -6    3.54    0.56
   6   1  -6    2.84    0.62
   6   1  -6    4.98    0.84
   6   1  -6    4.35    0.53
   6   1  -6    3.57    0.54
  -6  -1   6    4.05    0.64
  -6  -1   6    4.38    0.59
  -6  -1   6    2.50    0.61
   5   1  -6    0.19    0.37
   5   1  -6    0.18    0.26
   5   1  -6   -0.06    0.17
   5   1  -6    0.34    0.25
   5   1  -6    0.25    0.36
  -5  -1   6    0.13    0.29
  -5  -1   6   -0.16    0.29
  -5  -1   6    0.19    0.29
   4   1  -6    7.12    0.64
   4   1  -6    7.73    0.87
   4   1  -6    5.42    0.67
   4   1  -6    6.26    0.53
  -4  -1   6    4.78    0.58
  -4  -1   6    4.79    0.63
  -4  -1   6    6.13    0.70
  -4  -1   6    4.83    0.66
   3   1  -6    3.43    0.45
   3   1  -6    3.14    0.52
   3   1  -6    4.59    0.42
   3   1  -6    3.98    0.62
  -3  -1   6    3.78    0.50
  -3  -1   6    5.27    0.71
  -3  -1   6    3.34    0.51
  -3  -1   6    3.44    0.57
  -3  -1   6    3.02    0.53
   2   1  -6   19.26    0.82
   2   1  -6   19.68    0.66
   2   1  -6   20.12    1.02
   2   1  -6   18.82    0.95
  -2  -1   6   20.93    0.97
  -2  -1   6   21.54    1.03
  -2  -1   6   19.29    0.85
  -2  -1   6   19.75    1.03
  -2  -1   6   18.92    0.99
   1   1  -6    0.37    0.26
   1   1  -6    0.84    0.31
   1   1  -6    0.44    0.26
   1   1  -6    0.94    0.22
  -1  -1   6    0.89    0.28
  -1  -1   6    1.15    0.32
  -1  -1   6    0.57    0.27
  -1  -1   6    1.16    0.33
  -1  -1   6    1.40    0.35
   0   1  -6    1.39    0.33
   0   1  -6    1.97    0.27
   0  -1   6    2.07    0.43
   0  -1   6    2.22    0.40
   0  -1   6    1.40    0.34
   0  -1   6    1.79    0.31
   0  -1   6    1.80    0.21
   0  -1   6    1.48    0.33
   0  -1   6    1.73    0.37
  -1   1  -6    0.80    0.26
  -1   1  -6    0.85    0.20
  -1   1  -6    0.47    0.27
   1  -1   6    0.99    0.23
   1  -1   6    0.94    0.35
   1  -1   6    0.66    0.23
   1  -1   6    1.37    0.33
   1  -1   6    1.38    0.39
   1  -1   6    1.29    0.31
   1  -1   6    1.61    0.38
  -2   1  -6    2.20    0.38
  -2   1  -6    1.99    0.30
  -2   1  -6    1.18    0.36
   2  -1   6    1.95    0.47
   2  -1   6    1.75    0.37
   2  -1   6    1.10    0.39
   2  -1   6    2.31    0.39
   2  -1   6    2.30    0.37
   2  -1   6    1.39    0.36
   2  -1   6    1.71    0.35
  -3   1  -6    3.59    0.43
  -3   1  -6    2.40    0.34
  -3   1  -6    2.12    0.48
  -3   1  -6    2.47    0.51
   3  -1   6    2.76    0.55
   3  -1   6    3.10    0.56
   3  -1   6    2.18    0.55
   3  -1   6    2.73    0.44
   3  -1   6    2.96    0.54
  -4   1  -6    3.59    0.61
  -4   1  -6    5.44    0.73
   4  -1   6    3.93    0.54
   4  -1   6    4.83    0.75
   4  -1   6    5.54    0.78
   4  -1   6    4.35    0.70
   4  -1   6    4.69    0.68
  -5   1  -6    1.40    0.45
   5  -1   6    0.61    0.35
   5  -1   6    1.14    0.48
   5  -1   6    0.57    0.37
   5  -1   6    1.07    0.44
   5  -1   6    0.25    0.34
  -6   1  -6    0.44    0.43
  -6   1  -6    0.25    0.33
   6  -1   6    0.31    0.31
   6  -1   6   -0.14    0.31
   6  -1   6   -0.15    0.35
   6  -1   6    0.51    0.39
   6  -1   6    0.52    0.48
  -7   1  -6    0.14    0.42
  -7   1  -6    0.08    0.42
  -7   1  -6   -0.11    0.36
   7  -1   6   -0.36    0.32
   7  -1   6   -0.30    0.36
   7  -1   6    0.24    0.32
   7  -1   6    0.12    0.42
   7  -1   6   -0.49    0.38
   8   0  -6   -0.10    0.44
   8   0  -6    0.03    0.44
  -8   0   6    0.09    0.36
   7   0  -6   -0.32    0.39
   7   0  -6   -0.03    0.17
   7   0  -6    0.00    0.38
  -7   0   6   -0.05    0.25
  -7   0   6   -0.06    0.33
  -7   0   6   -0.07    0.32
   6   0  -6    5.60    0.82
   6   0  -6    5.61    0.81
   6   0  -6    6.96    0.52
  -6   0   6    6.39    0.68
  -6   0   6    5.34    0.74
  -6   0   6    5.25    0.74
   5   0  -6    0.44    0.35
   5   0  -6    0.49    0.42
   5   0  -6    1.27    0.28
   5   0  -6    0.67    0.30
  -5   0   6    0.69    0.32
  -5   0   6    0.17    0.35
  -5   0   6    0.54    0.37
   4   0  -6    8.70    0.56
   4   0  -6    8.50    0.48
   4   0  -6    7.71    0.84
   4   0  -6    9.33    0.91
  -4   0   6    7.75    0.78
  -4   0   6    8.74    0.53
  -4   0   6    8.11    0.87
  -4   0   6    7.97    0.89
  -4   0   6    8.28    0.66
  -4   0   6    7.55    0.77
   3   0  -6   32.49    1.32
   3   0  -6   35.53    1.34
   3   0  -6   33.70    0.97
   3   0  -6   35.51    0.88
  -3   0   6   36.01    0.83
  -3   0   6   35.15    1.32
  -3   0   6   33.64    1.35
  -3   0   6   37.97    1.19
  -3   0   6   33.89    1.25
  -3   0   6   31.01    1.34
   2   0  -6    4.63    0.60
   2   0  -6    6.16    0.54
   2   0  -6    4.54    0.33
   2   0  -6    5.13    0.65
  -2   0   6    5.31    0.59
  -2   0   6    5.59    0.66
  -2   0   6    5.68    0.72
  -2   0   6    6.26    0.69
  -2   0   6    5.63    0.34
  -2   0   6    5.06    0.54
   1   0  -6    0.65    0.24
   1   0  -6    0.65    0.27
   1   0  -6    0.17    0.23
   1   0  -6    0.46    0.17
  -1   0   6    0.11    0.19
  -1   0   6    0.09    0.22
  -1   0   6    0.22    0.18
  -1   0   6   -0.09    0.19
  -1   0   6    0.04    0.17
  -1   0   6   -0.08    0.24
  -1   0   6    0.30    0.14
   0   0  -6    0.51    0.18
   0   0  -6    0.55    0.26
   0   0   6    0.94    0.24
   0   0   6    0.90    0.29
   0   0   6    0.78    0.32
   0   0   6    0.89    0.30
   0   0   6    0.78    0.34
   0   0   6    1.26    0.24
   0   0   6    1.04    0.30
  -1   0  -6    7.55    0.70
  -1   0  -6    6.93    0.43
   1   0   6    7.54    0.54
   1   0   6    6.02    0.69
   1   0   6    6.44    0.63
   1   0   6    7.25    0.68
   1   0   6    5.42    0.51
   1   0   6    7.74    0.70
   1   0   6    7.62    0.53
   1   0   6    6.17    0.74
  -2   0  -6    2.28    0.47
  -2   0  -6    2.53    0.51
  -2   0  -6    2.42    0.32
   2   0   6    2.81    0.42
   2   0   6    2.27    0.45
   2   0   6    2.88    0.55
   2   0   6    2.83    0.54
   2   0   6    2.49    0.42
   2   0   6    2.22    0.48
   2   0   6    2.77    0.40
  -3   0  -6   11.39    1.01
   3   0   6   12.31    0.93
   3   0   6   13.50    0.98
   3   0   6   14.14    0.99
   3   0   6   12.96    0.79
   3   0   6   13.41    0.86
   3   0   6   11.25    1.05
  -4   0  -6    0.73    0.43
  -4   0  -6    0.02    0.25
   4   0   6    1.20    0.43
   4   0   6    1.02    0.38
   4   0   6    0.85    0.41
   4   0   6    0.77    0.39
   4   0   6    1.08    0.42
  -5   0  -6    1.01    0.47
  -5   0  -6    0.89    0.45
   5   0   6    0.89    0.43
   5   0   6    1.42    0.54
   5   0   6    0.57    0.42
   5   0   6    0.63    0.36
   5   0   6    1.29    0.50
  -6   0  -6    0.74    0.46
  -6   0  -6    1.00    0.47
   6   0   6    1.96    0.64
   6   0   6    1.98    0.64
   6   0   6    1.30    0.52
   6   0   6    1.21    0.53
   6   0   6    1.25    0.46
   8  -1  -6    0.93    0.53
   8  -1  -6    0.87    0.48
  -8   1   6    1.04    0.48
   7  -1  -6   -0.50    0.29
   7  -1  -6   -0.53    0.24
  -7   1   6    0.53    0.39
  -7   1   6    0.04    0.29
  -7   1   6    0.04    0.34
   6  -1  -6   -0.02    0.35
   6  -1  -6    0.15    0.37
  -6   1   6    0.14    0.29
  -6   1   6    0.33    0.27
  -6   1   6   -0.03    0.29
  -6   1   6    0.60    0.33
   5  -1  -6   40.55    0.96
   5  -1  -6   39.05    1.61
   5  -1  -6   40.39    1.61
  -5   1   6   41.42    1.38
  -5   1   6   41.44    1.20
  -5   1   6   39.67    1.58
  -5   1   6   43.47    1.54
   4  -1  -6    1.41    0.42
   4  -1  -6    1.84    0.48
   4  -1  -6    1.24    0.23
  -4   1   6    1.12    0.42
  -4   1   6    1.17    0.37
  -4   1   6    1.13    0.29
  -4   1   6    0.90    0.35
  -4   1   6    0.79    0.37
  -4   1   6    1.33    0.45
   3  -1  -6   -0.08    0.13
   3  -1  -6   -0.13    0.23
   3  -1  -6    0.02    0.20
   3  -1  -6   -0.39    0.22
  -3   1   6    0.00    0.22
  -3   1   6   -0.09    0.26
  -3   1   6    0.39    0.30
  -3   1   6   -0.21    0.25
  -3   1   6    0.07    0.24
  -3   1   6   -0.04    0.14
   2  -1  -6    2.24    0.29
   2  -1  -6    2.18    0.46
   2  -1  -6    2.49    0.49
   2  -1  -6    1.94    0.32
  -2   1   6    2.28    0.46
  -2   1   6    2.71    0.44
  -2   1   6    2.76    0.54
  -2   1   6    3.06    0.38
  -2   1   6    1.90    0.29
  -2   1   6    2.13    0.42
  -2   1   6    1.70    0.43
   1  -1  -6    0.61    0.30
   1  -1  -6    1.54    0.24
   1  -1  -6    1.11    0.29
   1  -1  -6    1.24    0.34
  -1   1   6    1.33    0.36
  -1   1   6    0.57    0.32
  -1   1   6    1.28    0.28
  -1   1   6    1.47    0.28
  -1   1   6    1.56    0.40
  -1   1   6    1.56    0.36
   0  -1  -6    5.35    0.56
   0  -1  -6    4.69    0.40
   0   1   6    4.22    0.50
   0   1   6    4.08    0.44
   0   1   6    4.89    0.56
   0   1   6    3.89    0.52
   0   1   6    3.82    0.57
   0   1   6    3.67    0.55
   0   1   6    4.76    0.48
  -1  -1  -6   13.04    0.59
  -1  -1  -6   13.18    0.82
   1   1   6   11.28    0.77
   1   1   6   12.81    0.72
   1   1   6   13.72    0.89
   1   1   6   12.24    0.69
   1   1   6   11.86    0.79
   1   1   6   12.27    0.70
   1   1   6   12.18    0.88
  -2  -1  -6    9.41    0.88
  -2  -1  -6    9.28    0.92
   2   1   6    8.66    0.93
   2   1   6    8.26    0.62
   2   1   6    9.08    0.66
   2   1   6    8.43    0.86
   2   1   6    9.10    0.88
   2   1   6    8.53    0.78
   2   1   6    7.15    0.80
  -3  -1  -6    1.54    0.45
  -3  -1  -6    2.62    0.61
   3   1   6    2.19    0.43
   3   1   6    1.61    0.42
   3   1   6    1.98    0.49
   3   1   6    3.02    0.60
   3   1   6    1.95    0.52
   3   1   6    2.48    0.54
  -4  -1  -6    3.06    0.68
  -4  -1  -6    2.58    0.55
   4   1   6    2.92    0.64
   4   1   6    2.46    0.57
   4   1   6    2.96    0.54
   4   1   6    2.49    0.58
   4   1   6    2.58    0.60
   4   1   6    2.95    0.61
  -5  -1  -6    0.23    0.36
  -5  -1  -6    0.25    0.39
   5   1   6    0.44    0.43
   5   1   6    0.15    0.39
   5   1   6   -0.07    0.39
   5   1   6    0.07    0.32
   5   1   6    0.26    0.39
   8  -2  -6    0.38    0.43
   8  -2  -6    0.34    0.45
  -8   2   6    0.30    0.33
  -8   2   6    0.24    0.37
  -8   2   6   -0.32    0.30
   7  -2  -6    9.68    1.15
   7  -2  -6   11.38    1.25
  -7   2   6   10.26    0.83
  -7   2   6   10.83    1.08
  -7   2   6    9.93    0.81
   6  -2  -6    2.99    0.64
   6  -2  -6    3.68    0.69
  -6   2   6    3.21    0.59
  -6   2   6    3.81    0.52
  -6   2   6    2.44    0.48
   5  -2  -6    0.27    0.33
   5  -2  -6    0.29    0.36
  -5   2   6    0.10    0.22
  -5   2   6   -0.05    0.27
  -5   2   6   -0.09    0.26
   4  -2  -6    5.35    0.74
   4  -2  -6    6.03    0.79
  -4   2   6    4.52    0.60
  -4   2   6    4.59    0.75
  -4   2   6    4.82    0.59
  -4   2   6    5.58    0.56
  -4   2   6    3.80    0.67
   3  -2  -6    0.38    0.32
   3  -2  -6    0.33    0.30
   3  -2  -6    0.13    0.14
  -3   2   6    0.15    0.19
  -3   2   6   -0.03    0.29
  -3   2   6    0.07    0.24
  -3   2   6    0.34    0.35
  -3   2   6    0.50    0.27
   2  -2  -6    2.39    0.37
   2  -2  -6    2.86    0.51
   2  -2  -6    3.81    0.60
   2  -2  -6    3.80    0.46
   2  -2  -6    3.78    0.33
  -2   2   6    3.61    0.39
  -2   2   6    3.66    0.51
  -2   2   6    3.72    0.59
  -2   2   6    3.69    0.56
  -2   2   6    4.07    0.57
  -2   2   6    3.56    0.44
   1  -2  -6    0.04    0.24
   1  -2  -6    0.28    0.15
   1  -2  -6   -0.07    0.27
   1  -2  -6    0.24    0.25
   1  -2  -6   -0.04    0.24
  -1   2   6    0.00    0.24
  -1   2   6    0.12    0.22
  -1   2   6    0.11    0.19
  -1   2   6    0.06    0.22
  -1   2   6    0.08    0.28
  -1   2   6    0.13    0.19
  -1   2   6    0.04    0.26
   0  -2  -6    9.71    0.76
   0  -2  -6   10.04    0.72
   0  -2  -6   10.67    0.52
   0  -2  -6   10.32    0.78
   0  -2  -6    9.94    0.75
   0   2   6   10.02    0.76
   0   2   6   10.91    0.82
   0   2   6   11.74    0.81
   0   2   6   10.50    0.73
   0   2   6   10.68    0.62
   0   2   6   11.81    0.73
   0   2   6   11.26    0.73
  -1  -2  -6   -0.11    0.24
  -1  -2  -6   -0.05    0.30
  -1  -2  -6    0.20    0.30
   1   2   6    0.45    0.29
   1   2   6    0.20    0.28
   1   2   6    0.40    0.31
   1   2   6    0.43    0.27
   1   2   6    0.13    0.24
   1   2   6    0.02    0.22
   1   2   6    0.04    0.29
  -2  -2  -6    0.33    0.34
  -2  -2  -6    0.26    0.30
   2   2   6    0.70    0.42
   2   2   6    0.72    0.34
   2   2   6    0.55    0.35
   2   2   6    0.75    0.36
   2   2   6    0.60    0.28
   2   2   6   -0.09    0.28
  -3  -2  -6    0.53    0.34
  -3  -2  -6    0.16    0.31
   3   2   6    0.01    0.34
   3   2   6    0.31    0.31
   3   2   6    0.08    0.34
   3   2   6    0.02    0.32
   3   2   6    0.13    0.36
   3   2   6    0.04    0.28
  -4  -2  -6   -0.16    0.39
  -4  -2  -6    0.40    0.37
   4   2   6   -0.35    0.33
   4   2   6    0.21    0.34
   4   2   6    0.39    0.44
   4   2   6   -0.24    0.38
   4   2   6    0.33    0.32
   8  -3  -6    1.29    0.54
   8  -3  -6    2.00    0.64
  -8   3   6    2.21    0.54
  -8   3   6    2.63    0.66
  -8   3   6    1.94    0.55
   7  -3  -6   -0.61    0.29
   7  -3  -6   -0.06    0.34
  -7   3   6   -0.06    0.27
  -7   3   6    0.31    0.30
  -7   3   6   -0.38    0.33
   6  -3  -6    1.18    0.50
   6  -3  -6    0.86    0.46
  -6   3   6    1.30    0.45
  -6   3   6    0.55    0.35
  -6   3   6    1.53    0.41
   5  -3  -6    0.86    0.42
   5  -3  -6    1.38    0.50
  -5   3   6    0.71    0.32
  -5   3   6    0.12    0.32
  -5   3   6   -0.10    0.27
   4  -3  -6    0.03    0.32
   4  -3  -6   -0.04    0.29
  -4   3   6    0.27    0.36
  -4   3   6   -0.10    0.21
  -4   3   6    0.33    0.37
  -4   3   6    0.33    0.32
  -4   3   6   -0.11    0.26
   3  -3  -6    2.93    0.58
   3  -3  -6    1.50    0.46
  -3   3   6    2.47    0.53
  -3   3   6    2.93    0.59
  -3   3   6    2.89    0.46
  -3   3   6    2.46    0.48
  -3   3   6    2.26    0.44
   2  -3  -6    3.03    0.57
   2  -3  -6    2.42    0.52
  -2   3   6    3.21    0.60
  -2   3   6    2.08    0.51
  -2   3   6    2.53    0.45
  -2   3   6    2.29    0.47
  -2   3   6    2.28    0.46
   1  -3  -6    0.07    0.26
   1  -3  -6   -0.20    0.23
   1  -3  -6    0.20    0.30
   1  -3  -6   -0.42    0.24
   1  -3  -6   -0.07    0.13
   1  -3  -6    0.05    0.29
  -1   3   6   -0.06    0.24
  -1   3   6    0.17    0.26
  -1   3   6   -0.01    0.21
  -1   3   6   -0.15    0.29
  -1   3   6    0.18    0.20
  -1   3   6   -0.11    0.28
  -1   3   6    0.53    0.34
   0  -3  -6    0.36    0.34
   0  -3  -6    1.04    0.35
   0  -3  -6    1.45    0.42
   0  -3  -6    0.89    0.24
   0  -3  -6    0.64    0.37
   0  -3  -6    1.28    0.45
   0   3   6    1.22    0.41
   0   3   6    1.33    0.41
   0   3   6    0.54    0.33
   0   3   6    1.42    0.44
   0   3   6    0.84    0.39
   0   3   6    0.42    0.31
   0   3   6    0.67    0.29
  -1  -3  -6    0.07    0.26
  -1  -3  -6    0.06    0.30
  -1  -3  -6    0.31    0.35
   1   3   6    0.41    0.31
   1   3   6   -0.09    0.23
   1   3   6    0.08    0.30
   1   3   6   -0.04    0.27
   1   3   6   -0.10    0.26
   1   3   6    0.20    0.31
  -2  -3  -6    0.09    0.28
  -2  -3  -6    0.36    0.39
   2   3   6   -0.24    0.27
   2   3   6    0.33    0.35
   2   3   6    0.07    0.33
   2   3   6    0.42    0.29
  -3  -3  -6    0.97    0.48
  -3  -3  -6   -0.14    0.29
   3   3   6   -0.49    0.30
   3   3   6    0.15    0.41
   3   3   6    0.81    0.46
   3   3   6    0.06    0.31
   4   3   6   -0.02    0.28
   8  -4  -6    0.15    0.41
   8  -4  -6   -0.12    0.33
   8  -4  -6    0.35    0.46
  -8   4   6    0.01    0.32
  -8   4   6    0.15    0.30
  -8   4   6    0.27    0.42
   7  -4  -6    0.59    0.44
   7  -4  -6    0.01    0.44
   7  -4  -6    0.47    0.47
  -7   4   6    0.42    0.37
  -7   4   6    0.55    0.35
   6  -4  -6    0.33    0.39
   6  -4  -6    1.21    0.50
   6  -4  -6   -0.16    0.36
  -6   4   6    0.84    0.40
  -6   4   6    0.87    0.34
   5  -4  -6    0.09    0.39
   5  -4  -6    0.10    0.36
   5  -4  -6   -0.09    0.37
  -5   4   6    0.06    0.25
  -5   4   6   -0.33    0.25
   4  -4  -6    0.65    0.41
   4  -4  -6    0.02    0.36
   4  -4  -6    0.03    0.35
  -4   4   6    0.06    0.32
  -4   4   6   -0.07    0.26
  -4   4   6   -0.21    0.23
   3  -4  -6    2.40    0.61
   3  -4  -6    1.77    0.51
   3  -4  -6    1.48    0.44
  -3   4   6    1.44    0.46
  -3   4   6    2.47    0.55
  -3   4   6    1.89    0.42
  -3   4   6    1.28    0.48
   2  -4  -6    0.73    0.39
   2  -4  -6    1.87    0.57
   2  -4  -6    0.90    0.36
  -2   4   6    0.62    0.33
  -2   4   6    0.68    0.39
  -2   4   6    0.15    0.31
  -2   4   6    1.07    0.41
   1  -4  -6    0.57    0.45
   1  -4  -6    0.73    0.38
  -1   4   6    0.36    0.29
  -1   4   6    0.48    0.31
   0  -4  -6   -0.15    0.32
   0  -4  -6    0.26    0.29
   0   4   6   -0.20    0.30
   0   4   6   -0.33    0.28
   0   4   6    0.34    0.31
  -1  -4  -6    0.51    0.38
   1   4   6    0.26    0.34
   1   4   6    0.06    0.24
   1   4   6    0.08    0.31
  -2  -4  -6    0.84    0.44
   2   4   6    0.22    0.33
   2   4   6    0.37    0.38
   2   4   6   -0.35    0.33
   8  -5  -6   -0.80    0.34
   8  -5  -6    0.42    0.41
   8  -5  -6   -0.04    0.48
  -8   5   6    0.19    0.33
  -8   5   6    0.12    0.38
   7  -5  -6    2.45    0.69
   7  -5  -6    1.02    0.53
   7  -5  -6    0.94    0.59
  -7   5   6    1.43    0.44
  -7   5   6    1.26    0.50
   6  -5  -6    1.82    0.60
   6  -5  -6    1.41    0.55
   6  -5  -6    1.03    0.50
  -6   5   6    1.30    0.45
  -6   5   6    1.05    0.42
   5  -5  -6    2.36    0.63
   5  -5  -6    1.12    0.54
   5  -5  -6    2.34    0.63
  -5   5   6    2.48    0.52
  -5   5   6    1.91    0.49
   4  -5  -6    0.01    0.40
   4  -5  -6   -0.51    0.29
   4  -5  -6    0.18    0.37
  -4   5   6    0.00    0.27
  -4   5   6    0.23    0.28
   3  -5  -6    0.51    0.40
   3  -5  -6   -0.04    0.43
  -3   5   6    0.27    0.33
  -3   5   6    0.31    0.36
   2  -5  -6    0.78    0.42
  -2   5   6    0.70    0.37
  -2   5   6    0.19    0.33
   1  -5  -6    0.44    0.45
  -1   5   6    0.75    0.41
  -1   5   6    1.00    0.46
   0  -5  -6    1.53    0.60
   0  -5  -6    1.98    0.54
   0   5   6    0.58    0.41
  -1  -5  -6    0.84    0.47
   1   5   6    1.60    0.57
   7  -6  -6    0.24    0.50
   7  -6  -6   -0.25    0.42
   7  -6  -6    0.66    0.57
  -7   6   6    0.32    0.39
  -7   6   6    0.35    0.37
   6  -6  -6   -0.29    0.41
   6  -6  -6    0.07    0.43
  -6   6   6    0.04    0.36
  -6   6   6   -0.05    0.34
   5  -6  -6    2.56    0.68
   5  -6  -6    2.74    0.68
  -5   6   6    2.73    0.58
  -5   6   6    2.11    0.55
   4  -6  -6    2.18    0.59
  -4   6   6    0.94    0.43
  -4   6   6    1.12    0.46
   3  -6  -6    0.94    0.50
  -3   6   6    1.09    0.45
  -3   6   6    0.43    0.37
   2  -6  -6   -0.35    0.36
  -2   6   6    0.28    0.36
  -2   6   6    0.85    0.47
   1  -6  -6    0.64    0.53
  -1   6   6    0.94    0.48
  -1   6   6   -0.13    0.36
   0   9  -7   -0.10    0.32
   0   9  -7   -0.36    0.37
   0   9  -7    0.20    0.33
   0  -9   7   -0.09    0.41
   0  -9   7   -0.05    0.40
  -1   9  -7    0.53    0.47
  -1   9  -7    1.05    0.47
  -1   9  -7    0.33    0.30
   1  -9   7    0.60    0.55
  -2   9  -7    0.14    0.44
  -2   9  -7   -0.06    0.24
  -2   9  -7   -0.04    0.29
   2  -9   7    0.51    0.60
  -3   9  -7    0.18    0.27
  -3   9  -7    0.71    0.48
  -3   9  -7    0.60    0.37
   3  -9   7   -0.10    0.54
  -4   9  -7    1.44    0.41
  -4   9  -7    0.52    0.38
  -4   9  -7    0.69    0.47
   4  -9   7   -0.50    0.50
  -5   9  -7   -0.31    0.40
  -5   9  -7    0.07    0.28
  -5   9  -7    0.32    0.34
   5  -9   7    0.44    0.52
  -6   9  -7    0.24    0.38
  -6   9  -7    0.34    0.51
   6  -9   7    0.21    0.38
   2   8  -7   -0.11    0.41
   2   8  -7   -0.42    0.26
   2   8  -7    0.43    0.36
  -2  -8   7    1.24    0.60
  -2  -8   7   -0.25    0.42
   1   8  -7    4.37    0.71
   1   8  -7    3.48    0.75
   1   8  -7    5.33    0.69
  -1  -8   7    5.25    0.92
  -1  -8   7    3.33    0.84
   0   8  -7    3.97    0.60
   0   8  -7    3.91    0.75
   0   8  -7    3.72    0.65
   0  -8   7    2.29    0.63
   0  -8   7    4.19    0.92
  -1   8  -7    1.22    0.51
  -1   8  -7    0.26    0.23
  -1   8  -7    0.42    0.36
   1  -8   7    0.77    0.48
  -2   8  -7    0.76    0.47
  -2   8  -7   -0.14    0.25
  -2   8  -7    0.18    0.23
   2  -8   7    0.80    0.52
  -3   8  -7    0.37    0.44
  -3   8  -7    0.01    0.30
  -3   8  -7    0.21    0.22
   3  -8   7    0.43    0.46
  -4   8  -7    0.44    0.31
  -4   8  -7    0.88    0.38
  -4   8  -7   -0.17    0.36
   4  -8   7   -0.28    0.36
   4  -8   7    0.39    0.38
  -5   8  -7    0.54    0.27
  -5   8  -7    0.02    0.31
  -5   8  -7    0.53    0.45
   5  -8   7    0.69    0.46
   5  -8   7    0.89    0.49
   5  -8   7    0.71    0.43
  -6   8  -7    0.18    0.30
  -6   8  -7    0.25    0.46
  -6   8  -7    0.46    0.29
   6  -8   7    0.13    0.35
   6  -8   7   -0.30    0.32
  -7   8  -7    0.88    0.61
  -7   8  -7   -0.22    0.21
   7  -8   7   -0.28    0.42
   7  -8   7    0.15    0.40
   7  -8   7    0.29    0.38
   3   7  -7    4.73    0.70
   3   7  -7    6.62    1.00
   3   7  -7    3.93    0.68
  -3  -7   7    5.01    0.95
  -3  -7   7    2.71    0.70
  -3  -7   7    4.91    0.80
   2   7  -7    3.57    0.69
   2   7  -7    4.08    0.60
   2   7  -7    2.56    0.58
  -2  -7   7    2.37    0.68
  -2  -7   7    2.60    0.68
  -2  -7   7    3.51    0.66
   1   7  -7    0.91    0.32
   1   7  -7    0.31    0.39
   1   7  -7    1.26    0.48
  -1  -7   7    0.67    0.51
  -1  -7   7    1.14    0.42
  -1  -7   7    0.10    0.41
   0   7  -7    0.25    0.25
   0   7  -7    0.57    0.42
   0   7  -7    1.14    0.45
   0  -7   7    0.03    0.37
   0  -7   7    0.40    0.32
   0  -7   7    0.32    0.46
  -1   7  -7   -0.05    0.36
  -1   7  -7   -0.14    0.23
  -1   7  -7    0.25    0.32
   1  -7   7    0.10    0.42
   1  -7   7    0.07    0.27
  -2   7  -7    2.36    0.52
  -2   7  -7    2.95    0.65
  -2   7  -7    2.33    0.41
   2  -7   7    2.95    0.64
   2  -7   7    2.82    0.54
   2  -7   7    2.29    0.51
   2  -7   7    2.18    0.49
  -3   7  -7    4.92    0.73
  -3   7  -7    5.16    0.57
  -3   7  -7    4.54    0.77
   3  -7   7    6.23    0.72
   3  -7   7    4.73    0.76
   3  -7   7    5.54    0.75
   3  -7   7    4.99    0.74
  -4   7  -7    0.05    0.25
  -4   7  -7   -0.11    0.38
  -4   7  -7   -0.18    0.19
  -4   7  -7   -0.18    0.27
   4  -7   7   -0.14    0.34
   4  -7   7   -0.31    0.26
   4  -7   7   -0.26    0.28
   4  -7   7   -0.12    0.26
  -5   7  -7   -0.05    0.28
  -5   7  -7    0.95    0.54
  -5   7  -7    0.72    0.41
  -5   7  -7    0.34    0.25
   5  -7   7    0.00    0.29
   5  -7   7    0.74    0.37
   5  -7   7    0.30    0.38
   5  -7   7    0.38    0.38
   5  -7   7    0.21    0.33
  -6   7  -7    0.07    0.48
  -6   7  -7    1.01    0.44
  -6   7  -7    0.04    0.28
  -6   7  -7    0.18    0.24
   6  -7   7    0.29    0.35
   6  -7   7    0.01    0.38
   6  -7   7    0.29    0.31
   6  -7   7   -0.55    0.33
  -7   7  -7    0.47    0.47
  -7   7  -7    1.27    0.35
  -7   7  -7    1.12    0.49
   7  -7   7    1.20    0.42
   7  -7   7    0.13    0.40
   7  -7   7    0.74    0.50
   7  -7   7    0.41    0.49
   4   6  -7    1.23    0.48
   4   6  -7    0.82    0.46
   4   6  -7    0.18    0.27
  -4  -6   7    0.46    0.51
  -4  -6   7    0.80    0.45
  -4  -6   7    0.73    0.43
   3   6  -7    0.12    0.27
   3   6  -7    0.05    0.33
   3   6  -7    0.65    0.43
  -3  -6   7    0.84    0.50
  -3  -6   7    0.33    0.33
  -3  -6   7    0.98    0.46
   2   6  -7    0.40    0.26
   2   6  -7    0.09    0.34
   2   6  -7    0.54    0.38
  -2  -6   7    0.07    0.28
  -2  -6   7    0.47    0.43
  -2  -6   7    0.72    0.45
   1   6  -7   -0.10    0.20
   1   6  -7    0.62    0.39
   1   6  -7    0.53    0.37
  -1  -6   7    0.24    0.33
  -1  -6   7    0.19    0.44
  -1  -6   7    0.40    0.44
  -1  -6   7   -0.14    0.25
   0   6  -7   21.54    1.02
   0   6  -7   20.62    1.15
   0   6  -7   21.45    0.95
   0   6  -7   19.90    1.16
   0   6  -7   20.65    1.08
   0  -6   7   23.12    1.36
   0  -6   7   20.79    1.12
   0  -6   7   23.03    1.10
   0  -6   7   20.38    1.03
  -1   6  -7    0.85    0.44
  -1   6  -7    0.95    0.35
  -1   6  -7    0.48    0.41
  -1   6  -7    0.66    0.30
   1  -6   7    0.25    0.31
   1  -6   7    1.12    0.37
   1  -6   7    0.76    0.43
   1  -6   7    0.96    0.38
  -2   6  -7    1.70    0.57
  -2   6  -7    1.66    0.47
  -2   6  -7    1.48    0.33
   2  -6   7    2.22    0.49
   2  -6   7    1.98    0.49
   2  -6   7    2.01    0.49
   2  -6   7    2.17    0.55
  -3   6  -7    0.29    0.33
  -3   6  -7    0.26    0.42
  -3   6  -7    0.50    0.26
   3  -6   7    1.03    0.41
   3  -6   7    0.10    0.30
   3  -6   7    0.09    0.29
   3  -6   7    0.46    0.38
  -4   6  -7    1.37    0.41
  -4   6  -7    0.99    0.31
  -4   6  -7    1.19    0.39
  -4   6  -7    1.30    0.49
   4  -6   7    1.35    0.42
   4  -6   7    1.23    0.39
   4  -6   7    1.07    0.38
   4  -6   7    0.89    0.43
   4  -6   7    1.14    0.47
  -5   6  -7    0.29    0.45
  -5   6  -7    0.25    0.27
  -5   6  -7    0.49    0.36
  -5   6  -7    0.22    0.22
   5  -6   7   -0.41    0.24
   5  -6   7   -0.20    0.23
   5  -6   7   -0.13    0.31
   5  -6   7   -0.47    0.26
  -6   6  -7    2.50    0.59
  -6   6  -7    1.99    0.62
  -6   6  -7    2.93    0.47
   6  -6   7    2.12    0.50
   6  -6   7    1.74    0.58
   6  -6   7    2.36    0.63
   6  -6   7    2.16    0.57
  -7   6  -7    2.51    0.66
  -7   6  -7    2.12    0.44
  -7   6  -7    1.44    0.55
   7  -6   7    2.05    0.59
   7  -6   7    2.38    0.56
   7  -6   7    2.04    0.68
   7  -6   7    2.31    0.63
   5   5  -7    0.50    0.33
   5   5  -7   -0.32    0.34
  -5  -5   7   -0.14    0.33
  -5  -5   7    0.00    0.39
  -5  -5   7   -0.13    0.42
   4   5  -7   -0.22    0.30
   4   5  -7    0.61    0.31
   4   5  -7   -0.04    0.31
  -4  -5   7   -0.57    0.27
  -4  -5   7    0.06    0.43
  -4  -5   7   -0.11    0.30
   3   5  -7   -0.05    0.31
   3   5  -7   -0.14    0.23
   3   5  -7    0.12    0.34
   3   5  -7    0.27    0.24
  -3  -5   7   -0.24    0.33
  -3  -5   7    0.14    0.38
  -3  -5   7    0.68    0.36
   2   5  -7   23.82    0.98
   2   5  -7   24.37    1.25
   2   5  -7   21.59    1.13
   2   5  -7   22.89    1.11
   2   5  -7   23.54    1.20
  -2  -5   7   24.40    1.16
  -2  -5   7   24.09    1.31
  -2  -5   7   23.60    1.19
  -2  -5   7   23.12    1.33
  -2  -5   7   23.19    1.22
   1   5  -7    8.00    0.69
   1   5  -7    8.64    0.88
   1   5  -7    8.41    0.78
   1   5  -7    9.58    0.90
   1   5  -7    7.96    0.83
  -1  -5   7    9.09    0.87
  -1  -5   7    7.48    0.86
  -1  -5   7    9.67    0.90
  -1  -5   7    9.43    0.92
   0   5  -7    1.32    0.33
   0   5  -7    1.96    0.47
   0   5  -7    2.65    0.55
   0   5  -7    2.43    0.52
   0  -5   7    2.46    0.47
   0  -5   7    1.14    0.44
   0  -5   7    2.14    0.45
   0  -5   7    1.65    0.45
  -1   5  -7   -0.34    0.31
  -1   5  -7    0.62    0.37
  -1   5  -7    0.34    0.24
   1  -5   7    0.42    0.32
   1  -5   7    0.53    0.32
   1  -5   7    0.69    0.35
   1  -5   7    0.47    0.40
  -2   5  -7    2.04    0.50
  -2   5  -7    1.52    0.36
  -2   5  -7    2.02    0.49
   2  -5   7    1.68    0.45
   2  -5   7    2.75    0.54
   2  -5   7    2.00    0.50
   2  -5   7    1.83    0.46
  -3   5  -7    4.77    0.65
  -3   5  -7    3.12    0.61
  -3   5  -7    3.50    0.44
   3  -5   7    3.82    0.55
   3  -5   7    3.57    0.66
   3  -5   7    4.26    0.65
   3  -5   7    3.67    0.61
   3  -5   7    4.03    0.70
  -4   5  -7    0.93    0.45
  -4   5  -7    1.62    0.34
  -4   5  -7    0.81    0.35
  -4   5  -7    0.72    0.36
   4  -5   7    1.65    0.49
   4  -5   7    1.27    0.35
   4  -5   7    1.34    0.41
   4  -5   7    0.71    0.37
   4  -5   7    0.54    0.37
  -5   5  -7    7.18    0.87
  -5   5  -7    5.60    0.77
  -5   5  -7    7.37    0.73
  -5   5  -7    7.10    0.65
   5  -5   7    6.48    0.92
   5  -5   7    6.83    0.92
   5  -5   7    7.55    0.86
   5  -5   7    6.83    0.73
  -6   5  -7    0.24    0.32
  -6   5  -7    0.24    0.25
  -6   5  -7   -0.06    0.32
   6  -5   7   -0.17    0.33
   6  -5   7    0.03    0.31
   6  -5   7   -0.03    0.37
   6  -5   7   -0.03    0.27
  -7   5  -7    0.30    0.44
  -7   5  -7    0.01    0.24
  -7   5  -7   -0.08    0.35
   7  -5   7   -0.52    0.31
   7  -5   7    0.38    0.49
   7  -5   7    0.31    0.29
   7  -5   7    0.06    0.31
   6   4  -7   -0.15    0.23
   6   4  -7    0.38    0.53
   6   4  -7    0.53    0.42
  -6  -4   7   -0.33    0.32
  -6  -4   7    0.18    0.37
   5   4  -7   -0.02    0.34
   5   4  -7    0.45    0.36
   5   4  -7    0.28    0.37
   5   4  -7    0.18    0.27
  -5  -4   7   -0.24    0.32
  -5  -4   7    0.04    0.33
  -5  -4   7    0.23    0.38
   4   4  -7    1.50    0.47
   4   4  -7    2.94    0.63
   4   4  -7    1.50    0.45
   4   4  -7    2.07    0.53
   4   4  -7    2.70    0.47
  -4  -4   7    2.10    0.58
  -4  -4   7    1.88    0.52
  -4  -4   7    1.96    0.54
   3   4  -7   11.36    0.88
   3   4  -7   11.42    0.70
   3   4  -7   11.72    0.90
   3   4  -7   10.26    0.96
   3   4  -7   11.26    0.89
  -3  -4   7   12.19    1.00
  -3  -4   7   12.12    0.94
  -3  -4   7    9.22    0.89
  -3  -4   7    8.84    0.93
  -3  -4   7   12.98    0.92
   2   4  -7   -0.01    0.18
   2   4  -7   -0.16    0.29
   2   4  -7    0.38    0.31
   2   4  -7   -0.41    0.26
   2   4  -7    0.06    0.35
  -2  -4   7   -0.15    0.31
  -2  -4   7   -0.33    0.25
  -2  -4   7    0.34    0.29
  -2  -4   7    0.01    0.26
   1   4  -7    0.04    0.27
   1   4  -7    0.08    0.26
   1   4  -7    0.10    0.20
   1   4  -7    0.27    0.31
   1   4  -7   -0.24    0.29
  -1  -4   7    0.21    0.28
  -1  -4   7   -0.12    0.25
  -1  -4   7   -0.29    0.22
  -1  -4   7    0.03    0.30
   0   4  -7    1.90    0.50
   0   4  -7    1.79    0.44
   0   4  -7    1.45    0.41
   0  -4   7    0.80    0.40
   0  -4   7    0.63    0.32
   0  -4   7    1.91    0.46
   0  -4   7    1.69    0.43
  -1   4  -7    1.48    0.40
  -1   4  -7    1.23    0.42
  -1   4  -7    1.29    0.30
   1  -4   7    1.57    0.41
   1  -4   7    1.96    0.45
   1  -4   7    1.93    0.45
   1  -4   7    1.40    0.39
  -2   4  -7    0.07    0.26
  -2   4  -7    0.39    0.39
  -2   4  -7   -0.17    0.15
   2  -4   7    0.24    0.28
   2  -4   7   -0.15    0.27
   2  -4   7   -0.17    0.24
   2  -4   7    0.28    0.27
   2  -4   7    0.36    0.25
  -3   4  -7    5.01    0.68
  -3   4  -7    6.07    0.67
  -3   4  -7    6.91    0.51
   3  -4   7    6.64    0.78
   3  -4   7    6.47    0.67
   3  -4   7    7.18    0.74
   3  -4   7    6.53    0.75
   3  -4   7    5.73    0.78
  -4   4  -7    0.45    0.32
  -4   4  -7    0.60    0.27
  -4   4  -7    0.34    0.40
  -4   4  -7    0.79    0.33
   4  -4   7    0.97    0.37
   4  -4   7    0.56    0.35
   4  -4   7    0.86    0.43
   4  -4   7    0.44    0.34
  -5   4  -7    1.38    0.47
  -5   4  -7    1.70    0.35
  -5   4  -7    1.61    0.46
   5  -4   7    1.78    0.52
   5  -4   7    1.45    0.44
   5  -4   7    1.21    0.45
   5  -4   7    0.96    0.44
  -6   4  -7    1.65    0.50
  -6   4  -7    0.84    0.44
  -6   4  -7    1.19    0.35
   6  -4   7    1.46    0.52
   6  -4   7    0.72    0.43
   6  -4   7    1.29    0.45
   6  -4   7    1.26    0.47
  -7   4  -7   -0.52    0.36
  -7   4  -7   -0.18    0.32
  -7   4  -7    0.28    0.49
  -7   4  -7    0.09    0.24
   7  -4   7   -0.09    0.38
   7  -4   7   -0.57    0.32
   7  -4   7   -0.59    0.32
   7  -4   7   -0.08    0.28
   7  -4   7    0.01    0.42
   7   3  -7    0.09    0.30
   7   3  -7    0.10    0.48
   7   3  -7   -0.01    0.25
  -7  -3   7    0.62    0.47
   6   3  -7    0.67    0.41
   6   3  -7    0.58    0.29
   6   3  -7    0.13    0.45
   6   3  -7    1.10    0.52
  -6  -3   7    0.24    0.40
  -6  -3   7    0.55    0.40
   5   3  -7    0.22    0.24
   5   3  -7   -0.12    0.34
   5   3  -7    0.00    0.30
   5   3  -7   -0.34    0.24
   5   3  -7    0.07    0.34
  -5  -3   7   -0.02    0.30
  -5  -3   7   -0.01    0.29
   4   3  -7    0.54    0.38
   4   3  -7    0.63    0.33
   4   3  -7    0.74    0.26
   4   3  -7    0.58    0.39
   4   3  -7    0.75    0.35
  -4  -3   7    1.08    0.40
  -4  -3   7    0.52    0.38
  -4  -3   7    0.76    0.41
  -4  -3   7    0.50    0.35
   3   3  -7    2.45    0.47
   3   3  -7    1.87    0.45
   3   3  -7    3.38    0.64
   3   3  -7    3.24    0.57
   3   3  -7    2.63    0.41
  -3  -3   7    2.72    0.61
  -3  -3   7    2.46    0.52
  -3  -3   7    2.35    0.52
  -3  -3   7    2.60    0.60
   2   3  -7    2.16    0.51
   2   3  -7    2.55    0.47
   2   3  -7    3.03    0.56
   2   3  -7    3.96    0.49
   2   3  -7    2.52    0.50
  -2  -3   7    3.31    0.58
  -2  -3   7    3.12    0.60
  -2  -3   7    3.06    0.57
  -2  -3   7    4.38    0.70
   1   3  -7    0.46    0.33
   1   3  -7    0.22    0.26
   1   3  -7    0.39    0.27
   1   3  -7    0.13    0.21
   1   3  -7    0.47    0.36
  -1  -3   7   -0.24    0.26
  -1  -3   7    0.23    0.27
  -1  -3   7    0.24    0.27
  -1  -3   7    0.03    0.26
   0   3  -7    5.10    0.65
   0   3  -7    5.00    0.48
   0   3  -7    4.91    0.63
   0   3  -7    3.04    0.48
   0  -3   7    3.60    0.53
   0  -3   7    5.21    0.68
   0  -3   7    3.49    0.57
   0  -3   7    4.01    0.60
  -1   3  -7    0.32    0.31
  -1   3  -7    0.53    0.19
  -1   3  -7    0.22    0.37
   1  -3   7    0.09    0.22
   1  -3   7    0.60    0.31
   1  -3   7    0.18    0.26
   1  -3   7    0.53    0.31
   1  -3   7   -0.10    0.24
  -2   3  -7    0.14    0.31
  -2   3  -7    0.17    0.19
  -2   3  -7    0.25    0.30
   2  -3   7    0.40    0.27
   2  -3   7    0.46    0.28
   2  -3   7    0.91    0.37
   2  -3   7    0.06    0.26
   2  -3   7    0.38    0.29
  -3   3  -7    2.67    0.47
  -3   3  -7    2.65    0.37
  -3   3  -7    2.40    0.51
  -3   3  -7    2.63    0.54
   3  -3   7    1.84    0.50
   3  -3   7    2.26    0.41
   3  -3   7    2.47    0.43
   3  -3   7    1.89    0.47
   3  -3   7    2.34    0.52
  -4   3  -7    1.46    0.49
  -4   3  -7    1.02    0.40
  -4   3  -7    1.02    0.28
   4  -3   7    0.82    0.34
   4  -3   7    1.33    0.49
   4  -3   7    1.03    0.43
   4  -3   7    0.80    0.42
  -5   3  -7    0.20    0.33
  -5   3  -7    0.19    0.28
  -5   3  -7   -0.97    0.28
  -5   3  -7    0.13    0.19
   5  -3   7    0.30    0.37
   5  -3   7    0.12    0.26
   5  -3   7    0.34    0.36
   5  -3   7    0.00    0.22
   5  -3   7    0.40    0.38
  -6   3  -7   -0.01    0.37
  -6   3  -7   -0.05    0.31
  -6   3  -7    0.16    0.40
  -6   3  -7   -0.23    0.17
   6  -3   7    0.55    0.38
   6  -3   7    0.95    0.46
   6  -3   7   -0.56    0.30
   6  -3   7   -0.28    0.19
   6  -3   7   -0.21    0.30
  -7   3  -7    0.15    0.48
  -7   3  -7    0.41    0.28
  -7   3  -7    0.54    0.43
  -7   3  -7   -0.18    0.36
   7  -3   7   -0.25    0.43
   7  -3   7   -0.41    0.34
   7  -3   7   -0.43    0.27
   7  -3   7   -0.40    0.29
   7  -3   7    0.89    0.48
   7   2  -7    0.39    0.28
   7   2  -7    0.58    0.53
   7   2  -7    1.09    0.55
  -7  -2   7    0.07    0.38
  -7  -2   7    0.47    0.45
   6   2  -7    0.22    0.39
   6   2  -7   -0.24    0.34
   6   2  -7    0.29    0.33
   6   2  -7    0.22    0.29
   6   2  -7    0.70    0.28
  -6  -2   7   -0.64    0.29
  -6  -2   7    0.07    0.34
   5   2  -7    5.14    0.55
   5   2  -7    4.50    0.64
   5   2  -7    4.08    0.67
   5   2  -7    4.86    0.63
   5   2  -7    4.52    0.76
  -5  -2   7    4.96    0.67
  -5  -2   7    2.74    0.58
  -5  -2   7    6.19    0.85
   4   2  -7    0.04    0.29
   4   2  -7   -0.07    0.27
   4   2  -7   -0.08    0.19
   4   2  -7   -0.15    0.33
   4   2  -7   -0.42    0.23
  -4  -2   7   -0.46    0.28
  -4  -2   7   -0.16    0.26
  -4  -2   7   -0.15    0.26
  -4  -2   7    0.08    0.33
   3   2  -7    0.28    0.31
   3   2  -7    0.02    0.19
   3   2  -7    0.35    0.36
   3   2  -7    0.31    0.27
   3   2  -7    0.17    0.29
  -3  -2   7    0.49    0.31
  -3  -2   7    0.07    0.36
  -3  -2   7   -0.01    0.30
  -3  -2   7    0.37    0.33
  -3  -2   7    0.10    0.34
   2   2  -7    7.80    0.84
   2   2  -7    6.39    0.70
   2   2  -7    7.97    0.53
   2   2  -7    8.98    0.77
   2   2  -7    9.06    0.88
  -2  -2   7    6.49    0.76
  -2  -2   7    6.86    0.77
  -2  -2   7    9.03    0.93
  -2  -2   7    9.28    0.91
  -2  -2   7    8.88    0.79
   1   2  -7    4.88    0.66
   1   2  -7    3.98    0.41
   1   2  -7    5.63    0.64
   1   2  -7    4.37    0.61
   1   2  -7    5.69    0.64
  -1  -2   7    4.73    0.66
  -1  -2   7    3.79    0.56
  -1  -2   7    3.19    0.57
  -1  -2   7    3.78    0.57
  -1  -2   7    4.51    0.57
   0   2  -7    1.09    0.37
   0   2  -7    0.50    0.28
   0   2  -7    1.09    0.27
   0   2  -7    0.63    0.33
   0  -2   7    0.52    0.30
   0  -2   7    0.91    0.35
   0  -2   7    0.56    0.27
   0  -2   7    0.65    0.31
   0  -2   7    1.01    0.34
   0  -2   7    0.66    0.31
  -1   2  -7    2.00    0.41
  -1   2  -7    2.42    0.34
  -1   2  -7    2.33    0.47
   1  -2   7    1.57    0.41
   1  -2   7    1.57    0.38
   1  -2   7    1.76    0.42
   1  -2   7    2.65    0.53
   1  -2   7    2.71    0.44
   1  -2   7    1.95    0.42
  -2   2  -7    0.21    0.19
  -2   2  -7    0.20    0.26
  -2   2  -7    0.08    0.29
   2  -2   7    0.25    0.28
   2  -2   7    0.36    0.32
   2  -2   7    0.22    0.27
   2  -2   7    0.10    0.23
   2  -2   7   -0.05    0.22
  -3   2  -7   -0.06    0.29
  -3   2  -7   -0.11    0.25
  -3   2  -7    0.06    0.18
  -3   2  -7    0.04    0.25
   3  -2   7   -0.25    0.31
   3  -2   7   -0.23    0.30
   3  -2   7    0.49    0.28
   3  -2   7   -0.13    0.27
   3  -2   7    0.02    0.32
  -4   2  -7    0.24    0.34
  -4   2  -7    0.09    0.21
  -4   2  -7   -0.04    0.30
  -4   2  -7    0.10    0.33
   4  -2   7    0.12    0.26
   4  -2   7    0.07    0.29
   4  -2   7    0.69    0.41
   4  -2   7    0.40    0.38
   4  -2   7    0.20    0.33
  -5   2  -7    1.26    0.46
  -5   2  -7    1.34    0.46
  -5   2  -7    1.21    0.43
  -5   2  -7    0.61    0.25
   5  -2   7    0.26    0.38
   5  -2   7    1.25    0.46
   5  -2   7    0.84    0.41
   5  -2   7    1.74    0.56
   5  -2   7    1.69    0.43
  -6   2  -7    0.00    0.21
  -6   2  -7   -0.22    0.26
  -6   2  -7   -0.09    0.40
  -6   2  -7    0.39    0.43
   6  -2   7    0.04    0.33
   6  -2   7    0.22    0.38
   6  -2   7   -0.14    0.27
   6  -2   7   -0.19    0.32
   6  -2   7   -0.04    0.36
   7   1  -7    0.05    0.48
   7   1  -7   -0.05    0.40
   7   1  -7    0.57    0.25
  -7  -1   7    0.11    0.32
  -7  -1   7    1.08    0.51
   6   1  -7    0.07    0.37
   6   1  -7    0.11    0.29
   6   1  -7   -0.20    0.39
   6   1  -7   -0.31    0.17
  -6  -1   7    0.06    0.36
  -6  -1   7    0.27    0.32
  -6  -1   7   -0.01    0.30
   5   1  -7    1.59    0.38
   5   1  -7    1.45    0.52
   5   1  -7    1.80    0.40
   5   1  -7    2.43    0.41
   5   1  -7    1.43    0.52
  -5  -1   7    1.22    0.47
  -5  -1   7    1.12    0.43
  -5  -1   7    1.51    0.42
   4   1  -7    0.10    0.26
   4   1  -7    0.61    0.42
   4   1  -7    0.63    0.24
   4   1  -7   -0.01    0.33
  -4  -1   7   -0.04    0.28
  -4  -1   7    0.56    0.36
  -4  -1   7   -0.20    0.32
  -4  -1   7   -0.05    0.31
  -4  -1   7    0.41    0.35
   3   1  -7    2.93    0.38
   3   1  -7    1.91    0.46
   3   1  -7    3.24    0.58
   3   1  -7    2.87    0.46
  -3  -1   7    3.16    0.58
  -3  -1   7    2.84    0.49
  -3  -1   7    2.14    0.51
  -3  -1   7    1.95    0.47
  -3  -1   7    2.14    0.47
   2   1  -7    0.45    0.33
   2   1  -7    0.25    0.20
   2   1  -7    0.14    0.28
   2   1  -7    0.24    0.32
  -2  -1   7    0.52    0.31
  -2  -1   7    0.45    0.31
  -2  -1   7    0.88    0.35
  -2  -1   7    0.59    0.35
  -2  -1   7    0.41    0.31
   1   1  -7   10.92    0.56
   1   1  -7   11.09    0.82
   1   1  -7   12.63    0.87
   1   1  -7   10.50    0.70
  -1  -1   7   10.93    0.83
  -1  -1   7   11.07    0.85
  -1  -1   7   10.56    0.85
  -1  -1   7   10.94    0.73
  -1  -1   7   11.84    0.80
  -1  -1   7   11.15    0.67
   0   1  -7    0.96    0.25
   0   1  -7    1.03    0.34
   0   1  -7    0.87    0.34
   0  -1   7    1.38    0.40
   0  -1   7    1.10    0.28
   0  -1   7    0.59    0.32
   0  -1   7    0.47    0.31
   0  -1   7    1.14    0.38
   0  -1   7    1.44    0.44
  -1   1  -7    0.34    0.34
  -1   1  -7    0.05    0.17
  -1   1  -7    0.16    0.23
   1  -1   7   -0.02    0.29
   1  -1   7    0.21    0.22
   1  -1   7    0.63    0.30
   1  -1   7    0.46    0.29
   1  -1   7   -0.13    0.26
   1  -1   7    0.15    0.24
  -2   1  -7    0.49    0.21
  -2   1  -7    0.58    0.29
  -2   1  -7    0.06    0.33
   2  -1   7    0.56    0.32
   2  -1   7    0.38    0.34
   2  -1   7    0.62    0.29
   2  -1   7    0.26    0.28
   2  -1   7    0.17    0.28
   2  -1   7    0.39    0.31
   2  -1   7    0.28    0.29
  -3   1  -7    2.68    0.40
  -3   1  -7    2.28    0.52
  -3   1  -7    2.16    0.52
   3  -1   7    2.76    0.60
   3  -1   7    1.52    0.51
   3  -1   7    3.14    0.59
   3  -1   7    2.68    0.47
   3  -1   7    2.87    0.62
  -4   1  -7    1.33    0.48
  -4   1  -7    0.69    0.27
  -4   1  -7    0.89    0.38
   4  -1   7    1.22    0.47
   4  -1   7    1.56    0.43
   4  -1   7    1.07    0.46
   4  -1   7    1.11    0.44
   4  -1   7    1.09    0.44
  -5   1  -7    1.72    0.54
  -5   1  -7    1.06    0.31
  -5   1  -7    1.17    0.50
   5  -1   7    1.52    0.54
   5  -1   7    0.32    0.42
   5  -1   7    0.71    0.37
   5  -1   7    1.31    0.49
   5  -1   7    1.17    0.48
  -6   1  -7   -0.15    0.29
  -6   1  -7    0.18    0.41
  -6   1  -7    0.26    0.42
   6  -1   7    0.30    0.36
   6  -1   7   -0.34    0.26
   6  -1   7    0.12    0.41
   6  -1   7    0.79    0.46
   6  -1   7    0.01    0.35
   8   0  -7   -0.61    0.31
   8   0  -7   -0.11    0.43
  -8   0   7   -0.16    0.37
  -8   0   7    0.15    0.35
   7   0  -7    0.10    0.42
   7   0  -7    0.23    0.44
  -7   0   7    0.34    0.42
  -7   0   7   -0.04    0.36
  -7   0   7    0.61    0.36
   6   0  -7    1.80    0.56
   6   0  -7    1.52    0.53
   6   0  -7    2.86    0.42
  -6   0   7    2.52    0.58
  -6   0   7    1.37    0.40
  -6   0   7    4.54    0.77
   5   0  -7    1.18    0.44
   5   0  -7    1.14    0.51
   5   0  -7    0.63    0.24
  -5   0   7    0.84    0.37
  -5   0   7    1.23    0.45
  -5   0   7    1.28    0.48
  -5   0   7    0.10    0.35
   4   0  -7   -0.19    0.26
   4   0  -7    0.31    0.38
   4   0  -7   -0.59    0.19
   4   0  -7   -0.16    0.16
  -4   0   7    0.10    0.27
  -4   0   7    0.66    0.44
  -4   0   7   -0.02    0.31
  -4   0   7    0.37    0.39
  -4   0   7   -0.30    0.30
   3   0  -7    3.83    0.65
   3   0  -7    4.95    0.45
   3   0  -7    4.62    0.71
   3   0  -7    4.69    0.53
  -3   0   7    4.38    0.63
  -3   0   7    4.28    0.67
  -3   0   7    3.24    0.53
  -3   0   7    5.35    0.78
  -3   0   7    4.59    0.72
   2   0  -7   -0.01    0.26
   2   0  -7    0.18    0.26
   2   0  -7   -0.07    0.24
   2   0  -7    0.21    0.18
  -2   0   7    0.29    0.31
  -2   0   7   -0.27    0.25
  -2   0   7    0.27    0.29
  -2   0   7    0.01    0.27
  -2   0   7   -0.20    0.25
   1   0  -7    0.79    0.38
   1   0  -7    0.95    0.34
   1   0  -7    1.27    0.40
   1   0  -7    0.46    0.20
  -1   0   7    1.28    0.43
  -1   0   7    0.80    0.35
  -1   0   7    1.01    0.39
  -1   0   7    0.99    0.41
  -1   0   7    0.89    0.32
  -1   0   7    0.94    0.27
   0   0  -7    0.68    0.38
   0   0  -7    0.26    0.20
   0   0  -7    0.34    0.28
   0   0   7    0.50    0.30
   0   0   7    0.69    0.27
   0   0   7    1.06    0.42
   0   0   7    0.85    0.36
   0   0   7    0.43    0.30
   0   0   7    0.89    0.33
  -1   0  -7   -0.02    0.17
  -1   0  -7    0.12    0.29
   1   0   7    0.22    0.28
   1   0   7    0.05    0.26
   1   0   7    0.12    0.29
   1   0   7    0.06    0.29
   1   0   7    0.25    0.25
   1   0   7   -0.06    0.29
   1   0   7    0.55    0.35
  -2   0  -7    4.03    0.63
  -2   0  -7    5.31    0.49
  -2   0  -7    5.06    0.67
   2   0   7    4.35    0.68
   2   0   7    5.68    0.61
   2   0   7    5.34    0.78
   2   0   7    5.29    0.59
   2   0   7    4.69    0.59
   2   0   7    5.60    0.80
   2   0   7    4.10    0.65
  -3   0  -7    9.52    1.00
  -3   0  -7    9.86    1.01
  -3   0  -7   10.34    0.63
   3   0   7   12.88    1.18
   3   0   7    7.72    0.76
   3   0   7    8.82    1.02
   3   0   7    8.93    1.00
   3   0   7   11.32    1.03
  -4   0  -7    0.22    0.32
  -4   0  -7    0.09    0.36
  -4   0  -7    0.01    0.29
   4   0   7   -0.16    0.39
   4   0   7    0.26    0.38
   4   0   7    0.53    0.38
   4   0   7    0.16    0.28
   4   0   7   -0.04    0.33
  -5   0  -7   -0.02    0.35
  -5   0  -7   -0.09    0.33
   5   0   7   -0.22    0.36
   5   0   7   -0.16    0.36
   5   0   7    0.50    0.32
   5   0   7   -0.18    0.35
   5   0   7    0.12    0.36
   8  -1  -7    1.27    0.57
   8  -1  -7    1.03    0.61
  -8   1   7    1.78    0.50
  -8   1   7    1.93    0.60
   7  -1  -7    2.07    0.61
   7  -1  -7    0.75    0.45
  -7   1   7    0.95    0.46
  -7   1   7    1.87    0.64
  -7   1   7    1.88    0.48
   6  -1  -7    0.02    0.31
   6  -1  -7    0.10    0.39
  -6   1   7    0.20    0.29
  -6   1   7   -0.27    0.22
  -6   1   7    0.18    0.33
   5  -1  -7   -0.18    0.36
   5  -1  -7   -0.16    0.30
  -5   1   7    0.13    0.35
  -5   1   7    0.44    0.38
  -5   1   7    0.14    0.32
  -5   1   7   -0.24    0.32
   4  -1  -7   -0.21    0.16
   4  -1  -7   -0.12    0.27
   4  -1  -7    1.23    0.45
  -4   1   7   -0.27    0.29
  -4   1   7   -0.09    0.25
  -4   1   7   -0.24    0.27
  -4   1   7    0.27    0.37
  -4   1   7    0.15    0.28
   3  -1  -7    0.65    0.36
   3  -1  -7    1.28    0.26
   3  -1  -7    0.90    0.40
  -3   1   7    0.91    0.35
  -3   1   7    1.36    0.44
  -3   1   7    0.99    0.39
  -3   1   7    1.08    0.42
  -3   1   7    0.71    0.40
   2  -1  -7    2.76    0.59
   2  -1  -7    1.23    0.26
   2  -1  -7    1.60    0.48
   2  -1  -7    2.28    0.39
  -2   1   7    1.55    0.39
  -2   1   7    2.26    0.55
  -2   1   7    1.45    0.49
  -2   1   7    2.13    0.46
  -2   1   7    2.71    0.40
  -2   1   7    2.75    0.59
   1  -1  -7    0.93    0.40
   1  -1  -7    0.14    0.28
   1  -1  -7    0.57    0.21
   1  -1  -7    0.74    0.40
  -1   1   7   -0.13    0.24
  -1   1   7    0.90    0.34
  -1   1   7    0.66    0.36
  -1   1   7    0.57    0.24
  -1   1   7    0.64    0.37
   0  -1  -7    5.25    0.47
   0  -1  -7    4.83    0.69
   0  -1  -7    5.58    0.64
   0   1   7    5.26    0.71
   0   1   7    5.50    0.64
   0   1   7    4.39    0.66
   0   1   7    4.12    0.54
   0   1   7    3.72    0.60
   0   1   7    4.59    0.52
   0   1   7    6.83    0.64
  -1  -1  -7    8.32    0.55
  -1  -1  -7   10.61    1.01
  -1  -1  -7    8.04    0.83
   1   1   7    9.17    0.67
   1   1   7    8.40    0.67
   1   1   7    8.28    0.82
   1   1   7    8.66    0.92
   1   1   7    9.87    1.00
   1   1   7    8.95    0.70
   1   1   7   12.06    1.12
  -2  -1  -7    0.12    0.37
  -2  -1  -7   -0.25    0.21
  -2  -1  -7    0.09    0.31
  -2  -1  -7    0.31    0.21
   2   1   7    0.52    0.34
   2   1   7    0.10    0.25
   2   1   7   -0.16    0.28
   2   1   7   -0.28    0.27
   2   1   7    0.80    0.35
   2   1   7   -0.14    0.25
  -3  -1  -7    0.48    0.43
  -3  -1  -7    0.36    0.35
   3   1   7   -0.06    0.31
   3   1   7   -0.42    0.31
   3   1   7   -0.08    0.33
   3   1   7   -0.25    0.26
   3   1   7    0.09    0.27
   3   1   7   -0.09    0.38
  -4  -1  -7    0.06    0.31
  -4  -1  -7    0.22    0.38
   4   1   7    0.26    0.35
   4   1   7    0.44    0.45
   4   1   7    0.28    0.45
   4   1   7    0.69    0.48
   4   1   7    0.45    0.42
   8  -2  -7    0.26    0.42
   8  -2  -7    0.01    0.44
  -8   2   7   -0.49    0.37
  -8   2   7    0.22    0.32
   7  -2  -7   -0.07    0.35
   7  -2  -7   -0.03    0.41
  -7   2   7    0.21    0.32
  -7   2   7   -0.38    0.34
   6  -2  -7    1.74    0.56
   6  -2  -7    1.56    0.56
  -6   2   7    1.74    0.50
  -6   2   7    1.33    0.45
   5  -2  -7    0.63    0.38
   5  -2  -7    0.47    0.39
  -5   2   7    0.09    0.34
  -5   2   7    0.70    0.43
  -5   2   7    0.11    0.33
   4  -2  -7    1.33    0.46
   4  -2  -7    2.31    0.60
  -4   2   7    1.30    0.48
  -4   2   7    1.88    0.55
  -4   2   7    2.34    0.52
  -4   2   7    2.24    0.53
   3  -2  -7    0.45    0.35
   3  -2  -7    0.90    0.47
  -3   2   7    0.63    0.34
  -3   2   7    0.79    0.36
  -3   2   7    0.74    0.43
  -3   2   7    1.81    0.54
   2  -2  -7    1.16    0.44
   2  -2  -7    0.43    0.33
   2  -2  -7    0.57    0.20
  -2   2   7    0.58    0.36
  -2   2   7    0.04    0.34
  -2   2   7    0.52    0.25
  -2   2   7    0.49    0.36
  -2   2   7    0.22    0.30
   1  -2  -7   -0.58    0.24
   1  -2  -7    0.11    0.17
   1  -2  -7   -0.07    0.24
   1  -2  -7   -0.58    0.21
   1  -2  -7   -0.48    0.22
  -1   2   7    0.36    0.27
  -1   2   7   -0.10    0.28
  -1   2   7    0.44    0.24
  -1   2   7   -0.11    0.26
  -1   2   7    0.39    0.33
  -1   2   7   -0.30    0.29
  -1   2   7    0.33    0.23
   0  -2  -7    0.56    0.39
   0  -2  -7    1.07    0.40
   0  -2  -7    1.51    0.30
   0  -2  -7    1.17    0.46
   0  -2  -7    1.27    0.45
   0   2   7    0.70    0.39
   0   2   7    1.22    0.40
   0   2   7    1.48    0.36
   0   2   7    0.75    0.34
   0   2   7    0.82    0.37
   0   2   7    0.72    0.40
   0   2   7    1.16    0.34
  -1  -2  -7    0.96    0.41
  -1  -2  -7    0.46    0.33
  -1  -2  -7    0.54    0.35
  -1  -2  -7    0.82    0.24
  -1  -2  -7    1.94    0.54
   1   2   7    2.21    0.57
   1   2   7    1.18    0.36
   1   2   7    1.33    0.45
   1   2   7    0.78    0.37
   1   2   7    0.90    0.36
   1   2   7    1.11    0.43
   1   2   7    1.21    0.39
  -2  -2  -7    0.49    0.37
  -2  -2  -7    0.27    0.31
   2   2   7    0.48    0.39
   2   2   7    0.17    0.33
   2   2   7    1.16    0.43
   2   2   7    1.12    0.37
   2   2   7    1.08    0.47
   2   2   7    0.65    0.37
  -3  -2  -7    1.36    0.49
  -3  -2  -7    0.38    0.39
   3   2   7    0.06    0.29
   3   2   7    0.71    0.42
   3   2   7   -0.04    0.37
   3   2   7    0.62    0.46
   3   2   7    0.66    0.45
  -4  -2  -7    0.59    0.46
  -4  -2  -7    1.59    0.61
   4   2   7    0.57    0.53
   4   2   7    0.44    0.45
   4   2   7    1.04    0.49
   4   2   7    0.36    0.48
   8  -3  -7    0.53    0.52
   8  -3  -7    0.54    0.42
  -8   3   7    0.40    0.40
  -8   3   7    0.92    0.52
   7  -3  -7    0.16    0.42
   7  -3  -7    0.26    0.45
  -7   3   7    0.23    0.36
  -7   3   7    0.10    0.39
   6  -3  -7   -0.14    0.29
   6  -3  -7    0.15    0.39
  -6   3   7   -0.01    0.33
  -6   3   7    0.74    0.37
   5  -3  -7    3.45    0.72
   5  -3  -7    2.20    0.65
  -5   3   7    2.62    0.57
  -5   3   7    3.33    0.59
   4  -3  -7    0.39    0.36
   4  -3  -7   -0.44    0.28
  -4   3   7   -0.18    0.32
  -4   3   7   -0.02    0.23
  -4   3   7    0.07    0.31
  -4   3   7    0.14    0.33
  -4   3   7    0.25    0.35
   3  -3  -7    1.73    0.56
   3  -3  -7    1.02    0.42
  -3   3   7    1.39    0.37
  -3   3   7    0.78    0.37
  -3   3   7    1.30    0.43
  -3   3   7    0.87    0.45
  -3   3   7    1.51    0.45
   2  -3  -7    0.63    0.41
   2  -3  -7    0.99    0.41
  -2   3   7    1.07    0.40
  -2   3   7    2.43    0.54
  -2   3   7    1.22    0.41
  -2   3   7    1.42    0.39
  -2   3   7    1.16    0.48
   1  -3  -7    3.93    0.67
   1  -3  -7    3.36    0.67
   1  -3  -7    3.55    0.66
  -1   3   7    4.24    0.70
  -1   3   7    3.97    0.59
  -1   3   7    2.30    0.50
  -1   3   7    2.77    0.61
  -1   3   7    2.76    0.54
   0  -3  -7   -0.08    0.18
   0  -3  -7   -0.13    0.33
   0  -3  -7   -0.35    0.31
   0  -3  -7    0.15    0.32
   0  -3  -7    0.14    0.32
   0  -3  -7    0.17    0.28
   0  -3  -7    0.01    0.24
   0   3   7   -0.12    0.29
   0   3   7   -0.03    0.30
   0   3   7   -0.55    0.27
   0   3   7    1.33    0.47
   0   3   7    0.04    0.32
   0   3   7    0.32    0.23
   0   3   7   -0.11    0.25
  -1  -3  -7    0.44    0.22
  -1  -3  -7   -0.08    0.27
  -1  -3  -7   -0.14    0.30
   1   3   7    0.10    0.34
   1   3   7   -0.47    0.24
   1   3   7    0.04    0.35
   1   3   7    0.39    0.30
  -2  -3  -7    0.74    0.47
  -2  -3  -7    0.32    0.35
   2   3   7    1.01    0.46
   2   3   7    0.08    0.38
   2   3   7    0.03    0.27
   2   3   7    0.43    0.40
   7  -4  -7    0.81    0.49
   7  -4  -7    0.53    0.45
  -7   4   7   -0.03    0.31
   6  -4  -7   -0.03    0.38
   6  -4  -7   -0.13    0.44
  -6   4   7    0.25    0.34
   5  -4  -7    0.56    0.45
   5  -4  -7    1.16    0.57
   5  -4  -7    0.03    0.37
  -5   4   7    0.54    0.34
  -5   4   7   -0.04    0.34
   4  -4  -7    0.56    0.44
   4  -4  -7    0.50    0.46
   4  -4  -7    0.77    0.46
  -4   4   7    1.36    0.48
  -4   4   7    0.43    0.41
  -4   4   7    0.19    0.31
  -4   4   7    0.22    0.28
   3  -4  -7    1.00    0.45
   3  -4  -7    1.44    0.58
   3  -4  -7    1.23    0.51
  -3   4   7    0.48    0.41
  -3   4   7    0.06    0.34
  -3   4   7    0.43    0.39
  -3   4   7    0.51    0.31
   2  -4  -7   -0.71    0.33
   2  -4  -7   -0.26    0.38
   2  -4  -7   -0.06    0.33
  -2   4   7    0.22    0.34
  -2   4   7    0.05    0.33
  -2   4   7    0.26    0.33
   1  -4  -7    0.08    0.43
  -1   4   7    0.51    0.38
  -1   4   7    0.09    0.30
   0  -4  -7    0.63    0.47
   0   4   7    0.26    0.35
   0   4   7    0.77    0.39
  -1  -4  -7    0.26    0.36
   1   4   7    0.19    0.39
   1   4   7    0.18    0.40
   7  -5  -7    2.54    0.75
   7  -5  -7    0.72    0.63
   7  -5  -7    0.63    0.55
  -7   5   7    1.19    0.53
   6  -5  -7   -0.33    0.45
   6  -5  -7   -0.38    0.53
   6  -5  -7    0.38    0.51
  -6   5   7    0.31    0.33
  -6   5   7    0.00    0.37
   5  -5  -7    2.38    0.72
   5  -5  -7    2.47    0.70
   5  -5  -7    2.08    0.59
  -5   5   7    1.35    0.45
  -5   5   7    1.64    0.54
   4  -5  -7    2.21    0.65
   4  -5  -7    1.54    0.54
  -4   5   7    1.14    0.44
  -4   5   7    1.13    0.42
  -4   5   7    0.85    0.54
   3  -5  -7   -0.34    0.34
  -3   5   7    0.20    0.35
  -3   5   7    0.22    0.35
   2  -5  -7    1.06    0.54
  -2   5   7    1.01    0.43
  -2   5   7    0.92    0.47
   1  -5  -7    0.30    0.46
  -1   5   7    0.18    0.36
  -1   5   7    0.62    0.43
   0  -5  -7   -0.15    0.50
   0   5   7    0.21    0.46
   5  -6  -7    0.15    0.47
   4  -6  -7    0.51    0.48
  -4   6   7    0.36    0.41
  -4   6   7   -0.05    0.36
   3  -6  -7   -0.14    0.45
  -1   9  -8    0.01    0.31
  -1   9  -8    0.57    0.38
  -1   9  -8    0.75    0.52
   1  -9   8    0.70    0.60
  -2   9  -8    0.03    0.32
  -2   9  -8   -0.25    0.28
  -2   9  -8    0.23    0.46
   2  -9   8    0.38    0.53
  -3   9  -8   -0.05    0.32
  -3   9  -8    0.13    0.45
  -3   9  -8    0.30    0.28
   3  -9   8   -0.25    0.52
  -4   9  -8    0.94    0.52
  -4   9  -8    0.95    0.38
  -4   9  -8    0.65    0.39
   4  -9   8    1.68    0.68
  -5   9  -8    0.40    0.55
  -5   9  -8    0.52    0.40
   5  -9   8    0.67    0.47
   5  -9   8    0.92    0.56
   1   8  -8   -0.02    0.41
   1   8  -8    0.33    0.32
   1   8  -8    0.07    0.36
  -1  -8   8    0.50    0.48
  -1  -8   8   -1.11    0.38
   0   8  -8    0.11    0.42
   0   8  -8    0.12    0.37
   0   8  -8   -0.22    0.24
   0  -8   8   -0.11    0.41
  -1   8  -8   -0.73    0.25
  -1   8  -8    1.14    0.49
  -1   8  -8    0.15    0.29
   1  -8   8   -0.12    0.39
  -2   8  -8    1.44    0.52
  -2   8  -8    1.57    0.62
  -2   8  -8    1.24    0.38
   2  -8   8    0.86    0.57
  -3   8  -8    0.97    0.57
  -3   8  -8    0.64    0.32
  -3   8  -8    0.38    0.39
   3  -8   8    2.30    0.68
   3  -8   8    1.37    0.48
  -4   8  -8    3.54    0.78
  -4   8  -8    3.07    0.54
  -4   8  -8    3.79    0.68
   4  -8   8    3.57    0.71
   4  -8   8    3.45    0.74
   4  -8   8    3.22    0.74
  -5   8  -8   -0.04    0.29
  -5   8  -8    0.41    0.27
  -5   8  -8   -1.09    0.36
   5  -8   8   -0.41    0.40
   5  -8   8    0.54    0.46
   5  -8   8    0.14    0.45
  -6   8  -8    0.36    0.30
  -6   8  -8    0.16    0.33
  -6   8  -8    0.78    0.56
   6  -8   8   -0.06    0.37
   6  -8   8    0.32    0.40
   6  -8   8    0.21    0.45
   6  -8   8    0.28    0.49
   3   7  -8    0.39    0.40
   3   7  -8    0.68    0.39
   3   7  -8   -0.69    0.40
  -3  -7   8    0.33    0.44
  -3  -7   8    0.52    0.42
  -3  -7   8    0.00    0.55
   2   7  -8   -0.02    0.34
   2   7  -8   -0.55    0.22
   2   7  -8   -0.10    0.40
  -2  -7   8   -0.45    0.38
  -2  -7   8    0.01    0.32
  -2  -7   8    0.31    0.47
   1   7  -8    1.10    0.44
   1   7  -8    2.67    0.67
   1   7  -8    1.90    0.42
  -1  -7   8    0.81    0.55
  -1  -7   8    3.45    0.64
   0   7  -8    2.78    0.48
   0   7  -8    3.35    0.69
   0   7  -8    1.87    0.51
   0  -7   8    1.41    0.45
   0  -7   8    2.27    0.61
  -1   7  -8    0.12    0.41
  -1   7  -8    1.20    0.40
  -1   7  -8    1.17    0.45
   1  -7   8    1.63    0.48
   1  -7   8    1.25    0.54
   1  -7   8    1.41    0.45
   1  -7   8    2.53    0.56
  -2   7  -8    7.20    0.84
  -2   7  -8    8.44    1.01
  -2   7  -8    8.90    0.77
   2  -7   8    8.87    1.06
   2  -7   8    9.85    0.99
   2  -7   8    9.14    0.94
   2  -7   8    9.74    0.96
  -3   7  -8    0.36    0.36
  -3   7  -8    1.14    0.51
  -3   7  -8   -0.19    0.23
   3  -7   8    0.38    0.36
   3  -7   8    0.48    0.44
   3  -7   8    0.95    0.42
   3  -7   8    0.99    0.46
  -4   7  -8    0.05    0.29
  -4   7  -8    0.01    0.34
  -4   7  -8   -0.21    0.39
  -4   7  -8    0.20    0.26
   4  -7   8   -0.14    0.29
   4  -7   8    0.25    0.39
   4  -7   8   -0.13    0.34
   4  -7   8    0.02    0.36
  -5   7  -8    2.97    0.71
  -5   7  -8    1.51    0.55
  -5   7  -8    2.09    0.52
  -5   7  -8    1.87    0.38
   5  -7   8    0.94    0.48
   5  -7   8    2.55    0.56
   5  -7   8    1.50    0.51
   5  -7   8    2.03    0.60
  -6   7  -8    0.31    0.44
  -6   7  -8   -0.24    0.50
  -6   7  -8    0.04    0.25
   6  -7   8    0.59    0.41
   6  -7   8    0.72    0.49
   6  -7   8   -0.18    0.35
   6  -7   8   -0.13    0.29
   4   6  -8   -0.13    0.39
   4   6  -8    0.12    0.37
   4   6  -8   -0.25    0.23
  -4  -6   8    0.05    0.35
  -4  -6   8    0.48    0.53
  -4  -6   8    0.08    0.41
   3   6  -8    3.44    0.56
   3   6  -8    2.15    0.58
   3   6  -8    3.38    0.73
  -3  -6   8    2.07    0.70
  -3  -6   8    2.63    0.65
  -3  -6   8    1.62    0.53
   2   6  -8    2.44    0.44
   2   6  -8    2.74    0.62
   2   6  -8    3.24    0.64
  -2  -6   8    2.25    0.56
  -2  -6   8    3.87    0.83
  -2  -6   8    2.34    0.61
   1   6  -8    0.05    0.36
   1   6  -8   -0.09    0.19
   1   6  -8   -0.02    0.30
   1   6  -8    0.59    0.46
  -1  -6   8    0.29    0.37
  -1  -6   8    0.65    0.36
  -1  -6   8    0.24    0.38
  -1  -6   8    1.03    0.42
   0   6  -8    0.81    0.32
   0   6  -8    1.28    0.42
   0   6  -8    0.36    0.31
   0   6  -8    0.64    0.41
   0   6  -8    0.07    0.36
   0  -6   8    0.28    0.33
   0  -6   8    0.46    0.32
   0  -6   8    0.64    0.34
   0  -6   8    0.69    0.43
  -1   6  -8    9.08    0.91
  -1   6  -8    8.48    0.91
  -1   6  -8    6.30    0.63
  -1   6  -8    6.82    0.86
   1  -6   8    7.86    0.86
   1  -6   8    7.62    0.88
   1  -6   8    8.09    0.97
   1  -6   8    7.35    0.85
  -2   6  -8    0.06    0.37
  -2   6  -8    0.55    0.37
  -2   6  -8    0.22    0.25
   2  -6   8    0.80    0.39
   2  -6   8    0.81    0.39
   2  -6   8    0.56    0.41
   2  -6   8    0.54    0.33
  -3   6  -8    0.96    0.31
  -3   6  -8    1.30    0.45
  -3   6  -8    1.40    0.54
   3  -6   8    0.70    0.42
   3  -6   8    0.83    0.44
   3  -6   8    0.88    0.44
   3  -6   8    0.56    0.35
  -4   6  -8   -0.03    0.21
  -4   6  -8    0.35    0.34
  -4   6  -8    0.61    0.36
  -4   6  -8    0.51    0.44
   4  -6   8   -0.05    0.32
   4  -6   8    0.04    0.27
   4  -6   8    0.06    0.33
   4  -6   8   -0.09    0.31
   4  -6   8    0.37    0.36
  -5   6  -8    0.39    0.27
  -5   6  -8    0.29    0.37
  -5   6  -8    0.40    0.35
  -5   6  -8    1.54    0.60
   5  -6   8    0.04    0.36
   5  -6   8    0.47    0.37
   5  -6   8    0.20    0.36
   5  -6   8    0.38    0.39
  -6   6  -8    0.23    0.25
  -6   6  -8    0.75    0.46
  -6   6  -8    1.24    0.65
   6  -6   8    0.08    0.34
   6  -6   8   -0.27    0.30
   6  -6   8    0.31    0.42
   6  -6   8   -0.05    0.41
   5   5  -8    0.97    0.47
   5   5  -8    2.01    0.57
   5   5  -8    0.76    0.42
  -5  -5   8    0.80    0.50
  -5  -5   8    0.08    0.43
   4   5  -8    0.63    0.46
   4   5  -8    1.23    0.46
   4   5  -8    0.83    0.38
   4   5  -8    0.97    0.42
  -4  -5   8    0.84    0.48
  -4  -5   8    0.35    0.39
  -4  -5   8    0.29    0.50
   3   5  -8    0.43    0.38
   3   5  -8    0.43    0.37
   3   5  -8   -0.47    0.24
   3   5  -8    0.26    0.27
   3   5  -8   -0.01    0.35
  -3  -5   8   -0.26    0.26
  -3  -5   8   -0.04    0.34
  -3  -5   8   -0.09    0.31
  -3  -5   8    0.75    0.40
  -3  -5   8   -0.35    0.33
   2   5  -8    1.29    0.43
   2   5  -8    0.49    0.38
   2   5  -8   -0.29    0.27
   2   5  -8    0.50    0.26
   2   5  -8    0.89    0.44
  -2  -5   8    0.69    0.37
  -2  -5   8    0.60    0.37
  -2  -5   8    0.78    0.45
  -2  -5   8    0.37    0.41
   1   5  -8   12.49    0.89
   1   5  -8   11.73    0.94
   1   5  -8   12.29    0.77
   1   5  -8   11.31    1.04
   1   5  -8   12.98    0.97
  -1  -5   8   11.35    1.03
  -1  -5   8   12.69    1.17
  -1  -5   8   12.13    0.96
  -1  -5   8   11.65    0.93
   0   5  -8    0.21    0.34
   0   5  -8    0.06    0.37
   0   5  -8    0.13    0.26
   0   5  -8   -0.16    0.29
   0  -5   8   -0.13    0.33
   0  -5   8    0.44    0.34
   0  -5   8    0.02    0.27
   0  -5   8   -0.17    0.26
  -1   5  -8    0.80    0.37
  -1   5  -8    0.28    0.40
  -1   5  -8    0.37    0.36
  -1   5  -8    0.49    0.26
   1  -5   8    0.36    0.34
   1  -5   8    0.49    0.41
   1  -5   8    0.36    0.34
   1  -5   8    1.08    0.43
  -2   5  -8    1.21    0.51
  -2   5  -8    0.95    0.31
  -2   5  -8    0.09    0.30
   2  -5   8    0.96    0.41
   2  -5   8    0.68    0.39
   2  -5   8    0.64    0.38
   2  -5   8    1.03    0.41
  -3   5  -8    0.17    0.29
  -3   5  -8    0.03    0.19
  -3   5  -8   -0.29    0.39
   3  -5   8    0.83    0.41
   3  -5   8    0.19    0.30
   3  -5   8   -0.03    0.30
   3  -5   8    0.24    0.27
   3  -5   8   -0.10    0.29
  -4   5  -8    0.59    0.48
  -4   5  -8    1.55    0.45
  -4   5  -8    1.44    0.47
  -4   5  -8    1.82    0.37
   4  -5   8    2.16    0.59
   4  -5   8    0.72    0.43
   4  -5   8    1.30    0.47
   4  -5   8    0.88    0.35
  -5   5  -8    0.39    0.53
  -5   5  -8   -0.21    0.22
  -5   5  -8   -0.01    0.35
   5  -5   8    0.02    0.38
   5  -5   8   -0.17    0.32
   5  -5   8    0.13    0.31
   5  -5   8   -0.08    0.35
  -6   5  -8    0.71    0.39
  -6   5  -8    0.18    0.28
  -6   5  -8   -0.09    0.44
   6  -5   8   -0.32    0.24
   6  -5   8   -0.08    0.40
   6  -5   8   -0.16    0.34
   6  -5   8    0.03    0.33
   5   4  -8    0.04    0.35
   5   4  -8    0.59    0.45
   5   4  -8    0.26    0.37
   5   4  -8    0.20    0.31
   5   4  -8   -0.34    0.33
  -5  -4   8    0.31    0.33
  -5  -4   8    0.06    0.35
   4   4  -8   -0.03    0.38
   4   4  -8   -0.05    0.20
   4   4  -8    0.24    0.34
   4   4  -8   -0.33    0.29
   4   4  -8    0.14    0.33
  -4  -4   8   -0.45    0.34
  -4  -4   8   -0.11    0.37
  -4  -4   8   -0.20    0.28
  -4  -4   8   -0.46    0.23
   3   4  -8    3.71    0.62
   3   4  -8    3.42    0.49
   3   4  -8    3.87    0.61
   3   4  -8    3.70    0.69
   3   4  -8    3.12    0.60
  -3  -4   8    3.27    0.64
  -3  -4   8    3.33    0.63
  -3  -4   8    3.59    0.67
  -3  -4   8    4.35    0.76
   2   4  -8    0.92    0.40
   2   4  -8    1.48    0.46
   2   4  -8    1.31    0.44
   2   4  -8    1.31    0.35
   2   4  -8   -0.08    0.36
  -2  -4   8    1.14    0.46
  -2  -4   8    0.67    0.39
  -2  -4   8    0.51    0.38
  -2  -4   8    1.10    0.48
   1   4  -8    1.53    0.52
   1   4  -8    2.18    0.53
   1   4  -8    1.44    0.35
   1   4  -8    1.34    0.47
   1   4  -8    1.98    0.47
  -1  -4   8    1.56    0.45
  -1  -4   8    1.77    0.57
  -1  -4   8    1.68    0.49
  -1  -4   8    1.34    0.47
   0   4  -8    0.92    0.30
   0   4  -8    0.62    0.38
   0   4  -8    1.05    0.49
   0   4  -8    0.78    0.40
   0  -4   8    0.47    0.41
   0  -4   8    1.00    0.44
   0  -4   8    0.75    0.39
   0  -4   8    0.11    0.30
  -1   4  -8    3.59    0.65
  -1   4  -8    2.30    0.41
  -1   4  -8    2.41    0.54
   1  -4   8    2.80    0.60
   1  -4   8    2.84    0.56
   1  -4   8    2.24    0.54
   1  -4   8    2.60    0.55
  -2   4  -8    2.63    0.58
  -2   4  -8    2.80    0.45
  -2   4  -8    3.15    0.58
   2  -4   8    1.91    0.48
   2  -4   8    1.74    0.50
   2  -4   8    2.30    0.57
   2  -4   8    2.32    0.47
   2  -4   8    2.52    0.51
  -3   4  -8    3.58    0.59
  -3   4  -8    2.99    0.61
  -3   4  -8    3.13    0.44
   3  -4   8    2.57    0.53
   3  -4   8    2.80    0.52
   3  -4   8    3.03    0.64
   3  -4   8    3.26    0.52
   3  -4   8    3.85    0.72
  -4   4  -8    0.04    0.22
  -4   4  -8   -0.32    0.39
  -4   4  -8   -0.04    0.29
  -4   4  -8    0.03    0.33
   4  -4   8    0.25    0.36
   4  -4   8   -0.26    0.27
   4  -4   8   -0.38    0.18
   4  -4   8   -0.08    0.30
  -5   4  -8    0.29    0.28
  -5   4  -8   -0.27    0.27
  -5   4  -8    0.40    0.41
   5  -4   8   -0.18    0.28
   5  -4   8    0.54    0.44
   5  -4   8    1.15    0.49
   5  -4   8   -0.09    0.26
  -6   4  -8    0.07    0.37
  -6   4  -8   -0.06    0.22
  -6   4  -8   -0.32    0.30
   6  -4   8    0.11    0.40
   6  -4   8   -0.38    0.34
   6  -4   8    0.67    0.49
   6  -4   8    0.32    0.34
   6   3  -8    0.23    0.44
   6   3  -8    0.09    0.42
   6   3  -8    1.09    0.38
   6   3  -8    1.89    0.52
   6   3  -8    0.72    0.42
  -6  -3   8    1.16    0.49
  -6  -3   8    0.78    0.47
   5   3  -8   -0.23    0.21
   5   3  -8   -0.12    0.32
   5   3  -8   -0.38    0.26
   5   3  -8   -0.09    0.34
   5   3  -8    0.26    0.28
  -5  -3   8    0.23    0.35
  -5  -3   8   -0.28    0.30
   4   3  -8   -0.15    0.21
   4   3  -8   -0.16    0.29
   4   3  -8   -0.51    0.28
   4   3  -8    0.21    0.37
   4   3  -8    0.44    0.36
  -4  -3   8   -0.20    0.32
  -4  -3   8    0.72    0.39
  -4  -3   8   -0.10    0.29
   3   3  -8   -0.65    0.25
   3   3  -8   -0.45    0.28
   3   3  -8   -0.34    0.32
   3   3  -8    0.15    0.36
   3   3  -8    0.06    0.22
  -3  -3   8    0.23    0.39
  -3  -3   8    0.18    0.32
  -3  -3   8   -0.16    0.28
  -3  -3   8    0.18    0.36
   2   3  -8    0.08    0.35
   2   3  -8    0.67    0.38
   2   3  -8   -0.50    0.28
   2   3  -8   -0.01    0.31
   2   3  -8    0.01    0.22
  -2  -3   8    0.49    0.41
  -2  -3   8    0.39    0.36
  -2  -3   8    0.44    0.40
  -2  -3   8    0.04    0.33
   1   3  -8    1.98    0.48
   1   3  -8    1.80    0.50
   1   3  -8    2.24    0.48
   1   3  -8    1.79    0.35
   1   3  -8    2.80    0.60
  -1  -3   8    1.56    0.53
  -1  -3   8    1.54    0.45
  -1  -3   8    1.28    0.40
  -1  -3   8    2.45    0.59
   0   3  -8    0.64    0.42
   0   3  -8    0.38    0.36
   0   3  -8    0.13    0.24
   0   3  -8   -0.02    0.31
   0  -3   8    0.42    0.37
   0  -3   8    0.86    0.40
   0  -3   8    0.39    0.36
   0  -3   8    0.11    0.31
  -1   3  -8    4.99    0.51
  -1   3  -8    4.17    0.68
  -1   3  -8    5.53    0.67
   1  -3   8    5.85    0.73
   1  -3   8    4.72    0.74
   1  -3   8    4.23    0.61
   1  -3   8    4.79    0.73
   1  -3   8    5.02    0.73
  -2   3  -8   -0.01    0.35
  -2   3  -8    1.04    0.29
  -2   3  -8    0.52    0.37
   2  -3   8    0.65    0.35
   2  -3   8    0.42    0.34
   2  -3   8    0.88    0.44
   2  -3   8    1.20    0.39
   2  -3   8    0.40    0.31
  -3   3  -8   -0.20    0.21
  -3   3  -8    0.44    0.35
  -3   3  -8   -0.42    0.22
  -3   3  -8   -0.25    0.31
   3  -3   8   -0.12    0.30
   3  -3   8    0.15    0.29
   3  -3   8   -0.02    0.28
   3  -3   8   -0.07    0.32
  -4   3  -8   -0.01    0.28
  -4   3  -8    0.05    0.22
  -4   3  -8   -0.23    0.32
   4  -3   8    0.45    0.35
   4  -3   8    0.25    0.36
   4  -3   8   -0.36    0.26
   4  -3   8   -0.14    0.24
  -5   3  -8   -0.22    0.33
  -5   3  -8   -0.19    0.17
  -5   3  -8    0.02    0.28
   5  -3   8    0.22    0.41
   5  -3   8    0.14    0.41
   5  -3   8   -0.13    0.35
   5  -3   8   -0.17    0.24
   5  -3   8    0.24    0.31
  -6   3  -8    0.38    0.47
  -6   3  -8   -0.29    0.22
  -6   3  -8    0.18    0.36
   6  -3   8   -0.04    0.29
   6  -3   8    0.04    0.39
   6  -3   8   -0.39    0.28
   6  -3   8    0.05    0.45
   6  -3   8   -0.11    0.42
   7   2  -8    0.68    0.32
   7   2  -8    0.09    0.49
   7   2  -8   -0.08    0.39
  -7  -2   8    0.16    0.42
  -7  -2   8    0.41    0.46
   6   2  -8    0.84    0.48
   6   2  -8    0.96    0.35
   6   2  -8    0.64    0.39
   6   2  -8    1.03    0.58
  -6  -2   8    0.08    0.36
  -6  -2   8    0.82    0.43
  -6  -2   8    0.80    0.49
   5   2  -8    0.05    0.29
   5   2  -8    0.20    0.33
   5   2  -8   -0.19    0.34
   5   2  -8   -0.51    0.27
   5   2  -8    0.11    0.23
  -5  -2   8   -0.02    0.30
  -5  -2   8    0.10    0.32
  -5  -2   8    0.55    0.44
  -5  -2   8    0.20    0.35
   4   2  -8    0.93    0.48
   4   2  -8    1.06    0.38
   4   2  -8    1.22    0.31
   4   2  -8    1.19    0.48
   4   2  -8    1.24    0.41
  -4  -2   8    1.00    0.47
  -4  -2   8    1.27    0.47
  -4  -2   8    0.91    0.44
  -4  -2   8    0.79    0.35
  -4  -2   8    0.53    0.40
   3   2  -8    2.38    0.53
   3   2  -8    2.50    0.41
   3   2  -8    2.93    0.63
   3   2  -8    2.37    0.50
   3   2  -8    2.40    0.52
  -3  -2   8    1.77    0.49
  -3  -2   8    2.68    0.62
  -3  -2   8    2.37    0.52
  -3  -2   8    2.61    0.59
  -3  -2   8    2.19    0.53
   2   2  -8    0.46    0.23
   2   2  -8    0.24    0.32
   2   2  -8    0.11    0.32
   2   2  -8   -0.21    0.33
   2   2  -8    0.52    0.37
  -2  -2   8    0.68    0.39
  -2  -2   8    0.22    0.33
  -2  -2   8   -0.17    0.26
  -2  -2   8    0.68    0.40
  -2  -2   8    0.19    0.38
   1   2  -8    0.33    0.20
   1   2  -8   -0.11    0.29
   1   2  -8    0.21    0.29
   1   2  -8    0.15    0.32
   1   2  -8    0.49    0.36
  -1  -2   8    0.48    0.35
  -1  -2   8    0.72    0.39
  -1  -2   8    0.28    0.33
  -1  -2   8    0.67    0.39
  -1  -2   8    0.56    0.34
   0   2  -8    1.18    0.28
   0   2  -8    1.66    0.45
   0   2  -8    0.60    0.33
   0   2  -8    0.93    0.40
   0  -2   8    1.47    0.44
   0  -2   8    1.49    0.45
   0  -2   8    1.68    0.40
   0  -2   8    1.62    0.47
   0  -2   8    0.78    0.38
   0  -2   8    1.14    0.45
  -1   2  -8    1.85    0.53
  -1   2  -8    2.79    0.52
  -1   2  -8    2.73    0.39
   1  -2   8    3.41    0.56
   1  -2   8    3.24    0.59
   1  -2   8    2.79    0.59
   1  -2   8    2.84    0.56
   1  -2   8    2.42    0.55
   1  -2   8    1.86    0.43
  -2   2  -8    0.58    0.38
  -2   2  -8    0.68    0.32
  -2   2  -8    0.70    0.29
   2  -2   8    1.73    0.45
   2  -2   8    0.75    0.42
   2  -2   8    0.47    0.33
   2  -2   8    0.98    0.37
   2  -2   8    1.57    0.53
  -3   2  -8    0.49    0.24
  -3   2  -8    0.30    0.31
  -3   2  -8    0.39    0.29
  -3   2  -8    0.12    0.35
   3  -2   8    0.04    0.32
   3  -2   8   -0.23    0.27
   3  -2   8    0.05    0.24
   3  -2   8    0.11    0.33
  -4   2  -8   -0.19    0.25
  -4   2  -8   -0.37    0.37
  -4   2  -8   -0.15    0.21
   4  -2   8   -0.32    0.32
   4  -2   8    0.28    0.33
   4  -2   8    0.15    0.32
   4  -2   8    0.02    0.33
   4  -2   8   -0.36    0.28
  -5   2  -8    0.04    0.37
  -5   2  -8    0.25    0.32
  -5   2  -8    0.00    0.23
   5  -2   8   -0.19    0.28
   5  -2   8    0.22    0.33
   5  -2   8    0.25    0.42
   5  -2   8    0.12    0.38
   5  -2   8    0.28    0.44
   7   1  -8    0.35    0.38
   7   1  -8    0.55    0.50
   7   1  -8    0.70    0.51
  -7  -1   8    1.06    0.44
  -7  -1   8    0.93    0.45
  -7  -1   8    0.06    0.39
   6   1  -8    0.23    0.40
   6   1  -8    0.02    0.35
   6   1  -8   -0.22    0.18
   6   1  -8    0.22    0.29
  -6  -1   8    0.21    0.37
  -6  -1   8    0.16    0.33
  -6  -1   8   -0.13    0.28
   5   1  -8    3.67    0.70
   5   1  -8    3.59    0.73
   5   1  -8    5.39    0.57
   5   1  -8    5.71    0.74
  -5  -1   8    4.45    0.76
  -5  -1   8    5.38    0.80
  -5  -1   8    5.40    0.70
  -5  -1   8    4.00    0.74
   4   1  -8    0.48    0.37
   4   1  -8   -0.03    0.18
   4   1  -8    0.35    0.30
   4   1  -8    0.48    0.34
  -4  -1   8    0.80    0.41
  -4  -1   8    0.42    0.42
  -4  -1   8    0.87    0.43
  -4  -1   8    0.17    0.29
  -4  -1   8    0.05    0.32
   3   1  -8    0.56    0.34
   3   1  -8    0.47    0.36
   3   1  -8   -0.40    0.27
   3   1  -8    0.27    0.23
  -3  -1   8    0.47    0.40
  -3  -1   8   -0.17    0.34
  -3  -1   8    0.21    0.36
  -3  -1   8    0.08    0.28
  -3  -1   8   -0.43    0.28
   2   1  -8    0.32    0.34
   2   1  -8    0.38    0.24
   2   1  -8    0.93    0.39
   2   1  -8   -0.12    0.30
  -2  -1   8    0.54    0.32
  -2  -1   8    0.28    0.31
  -2  -1   8    0.35    0.35
  -2  -1   8    0.50    0.37
  -2  -1   8    0.04    0.33
   1   1  -8   11.59    1.07
   1   1  -8   13.03    1.19
   1   1  -8   13.23    0.87
   1   1  -8   11.97    0.64
  -1  -1   8   13.06    0.92
  -1  -1   8   11.99    0.97
  -1  -1   8   12.26    0.77
  -1  -1   8   11.98    0.87
  -1  -1   8   12.74    1.20
  -1  -1   8   12.40    0.96
   0   1  -8    0.07    0.24
   0   1  -8   -0.03    0.20
   0   1  -8    0.68    0.37
   0   1  -8    0.15    0.30
   0  -1   8    0.35    0.33
   0  -1   8    0.17    0.33
   0  -1   8    0.14    0.32
   0  -1   8    0.44    0.26
   0  -1   8    0.31    0.33
   0  -1   8    0.31    0.34
  -1   1  -8    0.30    0.30
  -1   1  -8    0.27    0.38
  -1   1  -8    0.45    0.24
   1  -1   8    0.47    0.38
   1  -1   8    0.38    0.36
   1  -1   8    0.42    0.31
   1  -1   8    0.78    0.40
   1  -1   8   -0.13    0.22
   1  -1   8    0.04    0.31
  -2   1  -8    0.94    0.29
  -2   1  -8    1.28    0.37
  -2   1  -8    1.25    0.45
   2  -1   8    1.50    0.48
   2  -1   8    1.52    0.56
   2  -1   8    1.03    0.41
   2  -1   8    1.82    0.45
   2  -1   8    0.88    0.39
   2  -1   8    1.18    0.39
  -3   1  -8    0.95    0.31
  -3   1  -8    0.59    0.42
  -3   1  -8    0.01    0.24
   3  -1   8    0.85    0.39
   3  -1   8    0.11    0.35
   3  -1   8    0.58    0.38
   3  -1   8    0.85    0.45
   3  -1   8    0.49    0.36
  -4   1  -8   -0.09    0.32
  -4   1  -8    0.04    0.21
  -4   1  -8    0.56    0.44
   4  -1   8    0.86    0.40
   4  -1   8    0.53    0.47
   4  -1   8    0.28    0.45
   4  -1   8    0.18    0.42
   4  -1   8    0.03    0.35
  -5   1  -8    0.76    0.31
  -5   1  -8    0.25    0.41
  -5   1  -8    0.99    0.57
  -5   1  -8    0.73    0.53
   5  -1   8    0.56    0.41
   5  -1   8    0.59    0.44
   5  -1   8    0.44    0.50
   5  -1   8    0.50    0.38
   5  -1   8    1.24    0.56
   7   0  -8    0.34    0.41
   7   0  -8    0.26    0.49
  -7   0   8    0.46    0.42
  -7   0   8    0.44    0.36
  -7   0   8    0.82    0.48
   6   0  -8   -0.06    0.38
   6   0  -8    0.14    0.39
  -6   0   8   -0.22    0.32
  -6   0   8    0.04    0.31
  -6   0   8    0.08    0.39
   5   0  -8    1.20    0.48
   5   0  -8    1.97    0.55
  -5   0   8    0.69    0.45
  -5   0   8    1.15    0.46
  -5   0   8    0.51    0.38
  -5   0   8    1.29    0.43
   4   0  -8    1.33    0.47
   4   0  -8    3.31    0.42
   4   0  -8    2.56    0.64
  -4   0   8    1.63    0.48
  -4   0   8    2.70    0.61
  -4   0   8    1.26    0.58
  -4   0   8    2.62    0.55
  -4   0   8    2.70    0.54
   3   0  -8   15.52    0.86
   3   0  -8   16.05    1.14
   3   0  -8   15.25    1.08
   3   0  -8   16.23    0.72
  -3   0   8   16.59    1.15
  -3   0   8   14.83    0.99
  -3   0   8   13.70    1.27
  -3   0   8   15.71    0.96
  -3   0   8   14.51    1.08
   2   0  -8    5.74    0.81
   2   0  -8    5.11    0.61
   2   0  -8    5.17    0.71
   2   0  -8    5.58    0.52
  -2   0   8    5.94    0.72
  -2   0   8    4.19    0.68
  -2   0   8    4.05    0.58
  -2   0   8    4.40    0.72
  -2   0   8    5.00    0.79
   1   0  -8    2.76    0.39
   1   0  -8    3.04    0.66
   1   0  -8    2.84    0.53
   1   0  -8    2.10    0.48
  -1   0   8    2.07    0.47
  -1   0   8    2.44    0.56
  -1   0   8    1.93    0.50
  -1   0   8    2.54    0.59
  -1   0   8    3.32    0.68
  -1   0   8    2.79    0.44
   0   0  -8    2.65    0.39
   0   0  -8    4.30    0.63
   0   0  -8    2.87    0.56
   0   0   8    3.84    0.66
   0   0   8    2.38    0.47
   0   0   8    3.08    0.61
   0   0   8    3.28    0.51
   0   0   8    2.73    0.57
   0   0   8    3.88    0.67
  -1   0  -8    2.60    0.40
  -1   0  -8    3.92    0.62
   1   0   8    3.44    0.57
   1   0   8    3.62    0.67
   1   0   8    4.40    0.68
   1   0   8    3.03    0.59
   1   0   8    4.58    0.75
   1   0   8    3.77    0.57
  -2   0  -8    0.59    0.34
  -2   0  -8    0.28    0.23
  -2   0  -8    0.40    0.28
  -2   0  -8    0.28    0.36
   2   0   8    0.60    0.37
   2   0   8    0.87    0.46
   2   0   8    0.71    0.33
   2   0   8    0.82    0.45
   2   0   8    0.69    0.42
  -3   0  -8    0.82    0.38
  -3   0  -8    0.30    0.25
  -3   0  -8   -0.12    0.36
  -3   0  -8    0.00    0.39
   3   0   8   -0.23    0.31
   3   0   8    0.24    0.39
   3   0   8    0.51    0.35
   3   0   8    0.03    0.28
   3   0   8    0.56    0.42
  -4   0  -8    0.60    0.38
  -4   0  -8   -0.29    0.32
  -4   0  -8    0.36    0.29
  -4   0  -8    0.28    0.43
   4   0   8   -0.10    0.40
   4   0   8    0.78    0.45
   4   0   8    0.24    0.39
   4   0   8    0.08    0.46
   4   0   8    0.24    0.37
   7  -1  -8   -0.05    0.37
   7  -1  -8    0.05    0.44
  -7   1   8    0.39    0.44
  -7   1   8    0.32    0.36
   6  -1  -8    2.25    0.65
   6  -1  -8    4.56    0.83
  -6   1   8    1.16    0.43
  -6   1   8    3.03    0.62
  -6   1   8    2.77    0.70
   5  -1  -8    3.82    0.72
   5  -1  -8    6.54    0.96
  -5   1   8    4.20    0.64
  -5   1   8    4.63    0.79
  -5   1   8    4.27    0.78
  -5   1   8    6.26    0.86
   4  -1  -8   11.35    1.15
   4  -1  -8   12.97    1.05
  -4   1   8    9.93    1.10
  -4   1   8   12.48    0.92
  -4   1   8   11.04    1.03
  -4   1   8   13.10    1.07
  -4   1   8   12.06    1.18
   3  -1  -8    1.07    0.48
   3  -1  -8    0.05    0.18
   3  -1  -8    0.17    0.36
  -3   1   8    0.53    0.42
  -3   1   8   -0.52    0.27
  -3   1   8    0.73    0.43
  -3   1   8    0.04    0.31
  -3   1   8    0.38    0.35
   2  -1  -8    2.53    0.56
   2  -1  -8    2.18    0.58
   2  -1  -8    2.31    0.35
  -2   1   8    1.41    0.51
  -2   1   8    2.72    0.57
  -2   1   8    1.84    0.45
  -2   1   8    1.10    0.35
  -2   1   8    2.53    0.60
   1  -1  -8    4.14    0.61
   1  -1  -8    6.32    0.88
   1  -1  -8    3.41    0.62
   1  -1  -8    4.16    0.44
  -1   1   8    3.76    0.55
  -1   1   8    4.78    0.78
  -1   1   8    4.63    0.54
  -1   1   8    4.22    0.67
  -1   1   8    3.48    0.65
   0  -1  -8    2.15    0.56
   0  -1  -8    2.48    0.50
   0  -1  -8    3.69    0.66
   0  -1  -8    2.99    0.39
   0   1   8    1.59    0.49
   0   1   8    3.14    0.60
   0   1   8    2.02    0.41
   0   1   8    3.93    0.66
   0   1   8    2.06    0.45
  -1  -1  -8    0.56    0.37
  -1  -1  -8    0.11    0.32
  -1  -1  -8    0.18    0.20
  -1  -1  -8    0.47    0.38
   1   1   8    0.27    0.30
   1   1   8    0.11    0.33
   1   1   8    0.23    0.32
   1   1   8    0.33    0.37
   1   1   8    0.38    0.33
   1   1   8    0.17    0.26
  -2  -1  -8    1.44    0.47
  -2  -1  -8    1.44    0.34
  -2  -1  -8    2.30    0.60
  -2  -1  -8    0.46    0.35
   2   1   8    0.55    0.42
   2   1   8    0.78    0.44
   2   1   8    1.73    0.45
   2   1   8    1.33    0.53
   2   1   8    0.35    0.42
  -3  -1  -8    2.70    0.69
  -3  -1  -8    2.86    0.63
  -3  -1  -8    4.09    0.53
  -3  -1  -8    4.27    0.74
   3   1   8    5.03    0.91
   3   1   8    3.49    0.69
   3   1   8    4.49    0.73
   3   1   8    3.62    0.74
   3   1   8    3.65    0.69
   7  -2  -8    1.36    0.55
   7  -2  -8    0.80    0.52
  -7   2   8    1.67    0.56
  -7   2   8   -0.12    0.33
   6  -2  -8    3.88    0.85
   6  -2  -8    1.54    0.55
  -6   2   8    2.71    0.65
  -6   2   8    4.27    0.67
   5  -2  -8    1.63    0.56
   5  -2  -8    1.82    0.54
  -5   2   8    2.41    0.65
  -5   2   8    3.19    0.64
  -5   2   8    3.26    0.64
   4  -2  -8    0.68    0.46
   4  -2  -8   -0.24    0.27
  -4   2   8   -0.03    0.30
  -4   2   8   -0.05    0.32
  -4   2   8    0.34    0.41
  -4   2   8    0.03    0.29
   3  -2  -8    0.45    0.39
   3  -2  -8   -0.04    0.33
  -3   2   8    0.22    0.36
  -3   2   8    0.08    0.32
  -3   2   8    1.18    0.39
  -3   2   8   -0.15    0.29
   2  -2  -8    1.90    0.55
   2  -2  -8    4.64    0.77
  -2   2   8    2.53    0.58
  -2   2   8    1.86    0.57
  -2   2   8    3.15    0.65
  -2   2   8    3.06    0.60
   1  -2  -8   -0.13    0.33
   1  -2  -8    0.29    0.34
   1  -2  -8   -0.06    0.16
  -1   2   8    0.55    0.33
  -1   2   8   -0.16    0.35
  -1   2   8   -0.22    0.20
  -1   2   8    0.05    0.33
  -1   2   8    0.06    0.35
   0  -2  -8    0.32    0.35
   0  -2  -8    0.10    0.17
   0  -2  -8    0.09    0.33
   0  -2  -8    0.22    0.38
   0  -2  -8    0.62    0.37
   0   2   8    0.31    0.35
   0   2   8   -0.09    0.34
   0   2   8    0.39    0.29
   0   2   8    0.43    0.28
   0   2   8    0.88    0.41
   0   2   8    0.58    0.37
  -1  -2  -8    4.84    0.79
  -1  -2  -8    3.19    0.65
  -1  -2  -8    4.18    0.50
  -1  -2  -8    3.97    0.70
  -1  -2  -8    3.11    0.66
   1   2   8    4.04    0.60
   1   2   8    2.78    0.58
   1   2   8    3.01    0.67
   1   2   8    4.20    0.72
   1   2   8    3.73    0.66
  -2  -2  -8    0.60    0.25
  -2  -2  -8    0.45    0.35
  -2  -2  -8   -0.02    0.41
  -2  -2  -8    0.24    0.39
   2   2   8    0.20    0.39
   2   2   8    0.08    0.29
   2   2   8    0.11    0.35
   2   2   8   -0.22    0.37
   2   2   8    0.14    0.41
   7  -3  -8    2.14    0.72
   7  -3  -8    1.20    0.55
  -7   3   8    3.05    0.70
  -7   3   8    2.40    0.63
   6  -3  -8    0.35    0.53
   6  -3  -8    0.37    0.42
  -6   3   8   -0.10    0.32
  -6   3   8   -0.37    0.30
   5  -3  -8   -0.27    0.37
   5  -3  -8    0.31    0.42
  -5   3   8    0.31    0.38
  -5   3   8    0.25    0.38
  -5   3   8    0.79    0.48
   4  -3  -8    0.29    0.49
   4  -3  -8    0.31    0.38
  -4   3   8    0.05    0.38
  -4   3   8    0.54    0.38
  -4   3   8    0.60    0.45
  -4   3   8    0.58    0.41
   3  -3  -8   -0.03    0.37
   3  -3  -8    0.22    0.44
  -3   3   8   -0.37    0.26
  -3   3   8   -0.24    0.30
  -3   3   8    0.03    0.39
  -3   3   8    0.37    0.44
   2  -3  -8    1.30    0.56
   2  -3  -8   -0.03    0.38
  -2   3   8   -0.18    0.37
  -2   3   8    0.92    0.44
  -2   3   8    0.65    0.39
  -2   3   8    0.14    0.36
   1  -3  -8    1.18    0.53
   1  -3  -8    1.14    0.52
   1  -3  -8    1.00    0.51
  -1   3   8    1.18    0.45
  -1   3   8    0.46    0.45
  -1   3   8    1.11    0.52
   0  -3  -8   -0.04    0.43
   0  -3  -8   -0.16    0.32
   0  -3  -8    0.02    0.30
   0  -3  -8    0.73    0.49
   0   3   8    0.25    0.34
   0   3   8    0.87    0.46
   0   3   8    0.29    0.42
  -1  -3  -8    0.75    0.49
  -1  -3  -8    0.59    0.25
  -1  -3  -8    0.39    0.41
   1   3   8    0.42    0.33
   1   3   8    0.18    0.40
   6  -4  -8    0.25    0.47
   6  -4  -8   -0.53    0.44
  -6   4   8    0.09    0.36
   5  -4  -8    0.42    0.55
   5  -4  -8    0.08    0.38
   5  -4  -8    0.53    0.47
  -5   4   8    0.16    0.33
   4  -4  -8    0.23    0.47
   4  -4  -8   -0.68    0.37
   4  -4  -8   -0.42    0.40
  -4   4   8    0.05    0.35
  -4   4   8    0.20    0.42
  -4   4   8    0.02    0.41
   3  -4  -8    0.31    0.47
   3  -4  -8    0.34    0.45
   3  -4  -8    0.12    0.45
  -3   4   8   -0.07    0.39
  -3   4   8   -0.15    0.27
  -3   4   8   -0.58    0.34
   2  -4  -8    0.60    0.52
   2  -4  -8   -0.50    0.39
  -2   4   8    0.20    0.40
  -2   4   8   -0.38    0.32
   1  -4  -8    0.24    0.49
  -1   4   8    0.12    0.35
   0  -4  -8    0.28    0.53
   4  -5  -8    0.69    0.51
   4  -5  -8    2.34    0.74
  -4   5   8    0.97    0.56
  -4   5   8    2.40    0.63
   3  -5  -8   -0.72    0.42
  -3   5   8    0.13    0.36
   0   8  -9   -0.08    0.35
   0   8  -9    0.44    0.53
   0   8  -9    0.23    0.31
   0  -8   9    0.77    0.57
  -1   8  -9   -0.01    0.53
  -1   8  -9    0.41    0.31
  -1   8  -9    0.40    0.42
   1  -8   9    0.94    0.56
  -2   8  -9    0.99    0.57
  -2   8  -9    0.15    0.34
  -2   8  -9   -0.29    0.29
   2  -8   9    0.18    0.47
   2  -8   9   -0.36    0.31
  -3   8  -9    0.22    0.49
  -3   8  -9   -0.21    0.35
  -3   8  -9    0.53    0.37
   3  -8   9   -0.30    0.36
   3  -8   9    0.56    0.40
   3  -8   9    0.30    0.52
   3  -8   9    1.51    0.54
  -4   8  -9    1.99    0.53
  -4   8  -9    2.31    0.65
  -4   8  -9    2.95    0.51
  -4   8  -9    2.40    0.75
   4  -8   9    2.82    0.71
   4  -8   9    3.47    0.81
   4  -8   9    2.36    0.61
   4  -8   9    2.02    0.62
   2   7  -9    0.36    0.42
   2   7  -9    0.14    0.45
   2   7  -9    0.04    0.28
  -2  -7   9   -0.30    0.35
  -2  -7   9    0.20    0.43
   1   7  -9   -0.09    0.37
   1   7  -9   -0.14    0.38
   1   7  -9   -0.31    0.25
  -1  -7   9   -0.10    0.30
  -1  -7   9    0.60    0.46
   0   7  -9    0.13    0.43
   0   7  -9   -0.01    0.39
   0   7  -9    0.23    0.29
   0  -7   9   -0.35    0.34
   0  -7   9   -0.05    0.30
  -1   7  -9    2.96    0.64
  -1   7  -9    1.92    0.58
  -1   7  -9    2.02    0.48
  -1   7  -9    2.22    0.64
   1  -7   9    2.24    0.62
   1  -7   9    2.22    0.57
   1  -7   9    1.16    0.55
   1  -7   9    2.21    0.57
  -2   7  -9    4.09    0.57
  -2   7  -9    4.46    0.76
  -2   7  -9    4.53    0.73
  -2   7  -9    4.31    0.78
   2  -7   9    5.29    0.86
   2  -7   9    7.04    0.95
   2  -7   9    4.74    0.79
   2  -7   9    6.52    0.87
  -3   7  -9   -0.35    0.24
  -3   7  -9    0.09    0.36
  -3   7  -9    0.01    0.45
   3  -7   9    0.11    0.37
   3  -7   9   -0.13    0.37
   3  -7   9    0.53    0.44
   3  -7   9   -0.17    0.33
  -4   7  -9    0.24    0.59
  -4   7  -9    0.40    0.32
  -4   7  -9    0.10    0.34
  -4   7  -9   -0.25    0.31
   4  -7   9    0.01    0.40
   4  -7   9    0.46    0.45
   4  -7   9   -0.03    0.35
   4  -7   9    0.06    0.37
  -5   7  -9   -0.28    0.52
  -5   7  -9    0.18    0.39
  -5   7  -9    0.08    0.36
  -5   7  -9   -0.02    0.30
   5  -7   9   -0.45    0.31
   5  -7   9    0.23    0.45
   5  -7   9   -0.24    0.30
   5  -7   9    0.35    0.43
   3   6  -9    0.62    0.33
   3   6  -9    0.97    0.45
   3   6  -9    0.12    0.38
  -3  -6   9    0.48    0.42
  -3  -6   9    1.17    0.50
   2   6  -9    1.24    0.51
   2   6  -9    1.00    0.43
   2   6  -9    0.64    0.45
   2   6  -9    1.32    0.38
  -2  -6   9    1.13    0.51
  -2  -6   9    0.58    0.47
  -2  -6   9    0.75    0.50
   1   6  -9    1.05    0.52
   1   6  -9    1.49    0.51
   1   6  -9    1.43    0.47
   1   6  -9    1.15    0.47
   1   6  -9    0.71    0.32
  -1  -6   9    1.16    0.46
  -1  -6   9    0.37    0.37
  -1  -6   9    1.33    0.51
  -1  -6   9    0.95    0.54
   0   6  -9    0.23    0.39
   0   6  -9    0.06    0.33
   0   6  -9    0.76    0.35
   0   6  -9    0.88    0.47
   0   6  -9    0.86    0.44
   0  -6   9    0.37    0.36
   0  -6   9    0.07    0.41
   0  -6   9    0.42    0.39
   0  -6   9    0.17    0.40
  -1   6  -9    1.98    0.52
  -1   6  -9    1.57    0.57
  -1   6  -9    1.29    0.38
  -1   6  -9    0.58    0.40
   1  -6   9    0.86    0.46
   1  -6   9    1.49    0.50
   1  -6   9    1.97    0.55
   1  -6   9    1.55    0.51
  -2   6  -9    0.66    0.30
  -2   6  -9    0.26    0.34
  -2   6  -9    0.46    0.48
   2  -6   9    0.35    0.35
   2  -6   9    0.32    0.41
   2  -6   9    0.28    0.40
   2  -6   9    0.62    0.41
  -3   6  -9    0.65    0.40
  -3   6  -9    0.71    0.32
  -3   6  -9   -0.43    0.42
   3  -6   9   -0.18    0.31
   3  -6   9    0.04    0.35
   3  -6   9    0.35    0.31
   3  -6   9   -0.03    0.35
  -4   6  -9   -0.19    0.43
  -4   6  -9   -0.14    0.28
  -4   6  -9   -0.32    0.30
  -4   6  -9    0.04    0.26
   4  -6   9    0.07    0.35
   4  -6   9    0.46    0.35
   4  -6   9    0.02    0.34
   4  -6   9    0.54    0.41
  -5   6  -9    0.72    0.35
  -5   6  -9    1.26    0.54
  -5   6  -9    0.86    0.41
  -5   6  -9    1.22    0.65
   5  -6   9    0.68    0.42
   5  -6   9    0.49    0.48
   5  -6   9    0.24    0.47
   5  -6   9    1.69    0.53
   4   5  -9    1.83    0.57
   4   5  -9    1.12    0.54
   4   5  -9    1.22    0.51
   4   5  -9    1.84    0.48
  -4  -5   9    1.39    0.56
  -4  -5   9    1.40    0.58
   3   5  -9   -0.17    0.29
   3   5  -9   -0.14    0.37
   3   5  -9    0.29    0.42
   3   5  -9   -0.32    0.36
   3   5  -9   -0.09    0.22
  -3  -5   9    0.02    0.36
  -3  -5   9   -0.30    0.31
  -3  -5   9    0.64    0.45
  -3  -5   9    0.45    0.38
   2   5  -9   -0.37    0.32
   2   5  -9    0.30    0.38
   2   5  -9    0.03    0.33
   2   5  -9   -0.86    0.34
   2   5  -9    0.02    0.21
  -2  -5   9    0.13    0.40
  -2  -5   9    0.14    0.35
  -2  -5   9   -0.02    0.41
  -2  -5   9    0.19    0.35
   1   5  -9    5.25    0.78
   1   5  -9    7.13    0.90
   1   5  -9    6.91    0.71
   1   5  -9    5.69    0.79
   1   5  -9    7.12    0.86
  -1  -5   9    5.38    0.75
  -1  -5   9    7.63    0.95
  -1  -5   9    5.46    0.86
  -1  -5   9    5.41    0.81
   0   5  -9   10.01    1.06
   0   5  -9   11.55    0.73
   0   5  -9    8.87    0.92
   0   5  -9   12.87    1.16
   0   5  -9   11.94    0.92
   0  -5   9   10.15    0.97
   0  -5   9    9.71    1.08
   0  -5   9   11.75    1.12
   0  -5   9   10.08    1.11
  -1   5  -9    0.07    0.31
  -1   5  -9    0.94    0.40
  -1   5  -9    0.67    0.32
  -1   5  -9    0.68    0.41
   1  -5   9    0.54    0.37
   1  -5   9   -0.10    0.30
   1  -5   9    0.03    0.32
   1  -5   9    0.24    0.33
  -2   5  -9   -0.21    0.38
  -2   5  -9    0.23    0.26
  -2   5  -9    0.29    0.32
   2  -5   9   -0.29    0.28
   2  -5   9    0.05    0.34
   2  -5   9    0.89    0.42
   2  -5   9   -0.06    0.30
  -3   5  -9    1.16    0.33
  -3   5  -9    0.97    0.48
  -3   5  -9    0.81    0.41
   3  -5   9    0.40    0.34
   3  -5   9    0.77    0.35
   3  -5   9    0.37    0.40
   3  -5   9    0.83    0.41
   3  -5   9    1.27    0.52
  -4   5  -9    0.35    0.29
  -4   5  -9    1.66    0.56
  -4   5  -9    1.22    0.47
  -4   5  -9    0.69    0.36
   4  -5   9    2.52    0.67
   4  -5   9    1.16    0.48
   4  -5   9    0.43    0.46
   4  -5   9    0.91    0.40
  -5   5  -9    0.87    0.48
  -5   5  -9    1.30    0.39
  -5   5  -9    1.53    0.61
   5  -5   9    1.66    0.59
   5  -5   9    1.16    0.51
   5  -5   9    1.60    0.61
   5  -5   9    1.56    0.51
   5   4  -9    0.24    0.48
   5   4  -9    0.93    0.47
   5   4  -9    0.51    0.39
   5   4  -9    0.61    0.37
   5   4  -9    0.18    0.45
  -5  -4   9    0.75    0.42
  -5  -4   9    1.23    0.53
   4   4  -9    0.20    0.35
   4   4  -9    0.39    0.30
   4   4  -9   -0.35    0.31
   4   4  -9    0.01    0.30
   4   4  -9    0.77    0.45
  -4  -4   9   -0.15    0.33
  -4  -4   9    0.57    0.44
  -4  -4   9   -0.23    0.36
   3   4  -9    1.56    0.39
   3   4  -9    2.14    0.54
   3   4  -9    2.28    0.57
   3   4  -9    2.33    0.58
   3   4  -9    1.58    0.55
  -3  -4   9    1.93    0.61
  -3  -4   9    1.52    0.54
  -3  -4   9    2.70    0.62
  -3  -4   9    1.75    0.55
   2   4  -9   14.57    0.83
   2   4  -9   16.01    1.05
   2   4  -9   13.06    0.99
   2   4  -9   15.84    1.13
   2   4  -9   14.46    1.06
  -2  -4   9   14.41    1.14
  -2  -4   9   15.48    1.18
  -2  -4   9   15.99    1.21
  -2  -4   9   15.76    1.09
   1   4  -9    0.87    0.34
   1   4  -9    1.29    0.44
   1   4  -9    0.24    0.39
   1   4  -9    1.03    0.45
   1   4  -9    1.31    0.48
  -1  -4   9    1.21    0.47
  -1  -4   9    0.78    0.46
  -1  -4   9    1.15    0.41
  -1  -4   9    0.93    0.42
   0   4  -9    0.67    0.38
   0   4  -9    0.60    0.29
   0   4  -9    1.24    0.47
   0   4  -9    0.26    0.44
   0  -4   9    0.67    0.45
   0  -4   9    0.82    0.40
   0  -4   9    0.00    0.28
   0  -4   9    0.39    0.33
  -1   4  -9    0.07    0.38
  -1   4  -9    0.69    0.35
  -1   4  -9   -0.05    0.21
   1  -4   9    0.45    0.37
   1  -4   9    0.75    0.40
   1  -4   9    0.15    0.30
   1  -4   9   -0.12    0.32
  -2   4  -9    1.24    0.43
  -2   4  -9   -0.01    0.35
  -2   4  -9    0.68    0.27
   2  -4   9    0.71    0.39
   2  -4   9    1.06    0.38
   2  -4   9    0.82    0.46
   2  -4   9   -0.09    0.29
   2  -4   9    0.73    0.39
  -3   4  -9    0.81    0.39
  -3   4  -9    0.12    0.38
  -3   4  -9    0.43    0.25
   3  -4   9    0.32    0.42
   3  -4   9    0.59    0.32
   3  -4   9    0.62    0.43
   3  -4   9    0.42    0.33
  -4   4  -9    0.60    0.30
  -4   4  -9    0.58    0.43
  -4   4  -9    0.27    0.44
   4  -4   9    0.75    0.46
   4  -4   9    0.72    0.36
   4  -4   9    0.29    0.39
   4  -4   9    0.80    0.47
  -5   4  -9    0.43    0.31
  -5   4  -9    0.41    0.53
  -5   4  -9    0.27    0.39
   5  -4   9    1.70    0.54
   5  -4   9   -0.02    0.40
   5  -4   9    0.64    0.47
   5  -4   9    0.45    0.36
   5   3  -9    0.10    0.28
   5   3  -9   -0.22    0.30
   5   3  -9    0.10    0.39
   5   3  -9    0.34    0.44
   5   3  -9   -0.16    0.33
  -5  -3   9    0.38    0.41
  -5  -3   9    0.55    0.50
  -5  -3   9    0.56    0.46
   4   3  -9    1.64    0.38
   4   3  -9    1.56    0.45
   4   3  -9    0.75    0.48
   4   3  -9    0.56    0.44
   4   3  -9    1.80    0.50
  -4  -3   9    0.59    0.52
  -4  -3   9    1.55    0.50
  -4  -3   9    1.51    0.56
  -4  -3   9    1.41    0.61
   3   3  -9    0.91    0.44
   3   3  -9    1.37    0.49
   3   3  -9    0.77    0.31
   3   3  -9    1.16    0.48
   3   3  -9    0.53    0.35
  -3  -3   9    0.68    0.41
  -3  -3   9    0.21    0.40
  -3  -3   9    0.62    0.48
  -3  -3   9    0.41    0.37
   2   3  -9    1.30    0.45
   2   3  -9    1.51    0.37
   2   3  -9    0.94    0.41
   2   3  -9    1.52    0.46
   2   3  -9    1.22    0.51
  -2  -3   9    2.19    0.58
  -2  -3   9    1.45    0.44
  -2  -3   9    1.82    0.56
  -2  -3   9    1.96    0.56
   1   3  -9    2.19    0.55
   1   3  -9    2.08    0.49
   1   3  -9    1.91    0.48
   1   3  -9    1.91    0.39
   1   3  -9    3.74    0.72
  -1  -3   9    2.69    0.61
  -1  -3   9    3.24    0.70
  -1  -3   9    0.68    0.41
  -1  -3   9    1.41    0.43
   0   3  -9   -0.19    0.34
   0   3  -9   -0.23    0.28
   0   3  -9   -0.03    0.21
   0   3  -9    0.11    0.36
   0  -3   9    0.46    0.31
   0  -3   9   -0.05    0.33
   0  -3   9    0.21    0.31
   0  -3   9    0.38    0.36
  -1   3  -9    0.77    0.42
  -1   3  -9    0.55    0.26
  -1   3  -9    0.34    0.32
   1  -3   9    0.56    0.34
   1  -3   9    0.48    0.36
   1  -3   9    0.13    0.34
   1  -3   9    0.16    0.27
   1  -3   9    0.75    0.31
  -2   3  -9    0.07    0.31
  -2   3  -9   -0.10    0.33
  -2   3  -9    0.20    0.22
   2  -3   9    0.54    0.39
   2  -3   9    0.27    0.25
   2  -3   9   -0.26    0.25
   2  -3   9    0.15    0.29
   2  -3   9    0.24    0.32
  -3   3  -9   -0.12    0.28
  -3   3  -9    0.27    0.33
  -3   3  -9    0.29    0.23
  -3   3  -9    1.04    0.52
   3  -3   9    0.43    0.35
   3  -3   9   -0.15    0.37
   3  -3   9    0.11    0.27
   3  -3   9   -0.30    0.33
  -4   3  -9    0.51    0.38
  -4   3  -9    0.63    0.53
  -4   3  -9    0.91    0.31
   4  -3   9    0.50    0.36
   4  -3   9    0.43    0.42
   4  -3   9    0.99    0.44
   4  -3   9    0.33    0.45
  -5   3  -9    0.27    0.25
  -5   3  -9    0.41    0.34
  -5   3  -9   -0.17    0.42
   5  -3   9   -0.07    0.28
   5  -3   9    0.33    0.42
   5  -3   9    0.55    0.52
   5  -3   9   -0.03    0.33
   6   2  -9    0.61    0.39
   6   2  -9    1.19    0.54
   6   2  -9    0.47    0.47
   6   2  -9    0.35    0.31
  -6  -2   9    1.43    0.58
  -6  -2   9    0.61    0.44
  -6  -2   9    0.10    0.41
   5   2  -9    0.04    0.34
   5   2  -9   -0.10    0.40
   5   2  -9   -0.48    0.33
   5   2  -9    0.24    0.27
  -5  -2   9    0.43    0.41
  -5  -2   9   -0.43    0.28
  -5  -2   9    0.05    0.36
  -5  -2   9    0.15    0.43
   4   2  -9    2.28    0.56
   4   2  -9    2.09    0.57
   4   2  -9    1.88    0.48
   4   2  -9    1.45    0.37
   4   2  -9    2.27    0.52
  -4  -2   9    2.29    0.53
  -4  -2   9    2.06    0.58
  -4  -2   9    1.35    0.53
  -4  -2   9    2.69    0.64
  -4  -2   9    1.38    0.48
   3   2  -9   -0.29    0.31
   3   2  -9    0.20    0.33
   3   2  -9    0.13    0.31
   3   2  -9    0.03    0.32
   3   2  -9    0.21    0.23
  -3  -2   9    0.09    0.35
  -3  -2   9    0.06    0.35
  -3  -2   9    0.28    0.37
  -3  -2   9    0.11    0.37
  -3  -2   9   -0.45    0.24
   2   2  -9   -0.04    0.20
   2   2  -9   -0.18    0.23
   2   2  -9   -0.43    0.32
   2   2  -9   -0.36    0.22
   2   2  -9    0.06    0.31
  -2  -2   9   -0.03    0.33
  -2  -2   9    0.17    0.27
  -2  -2   9    0.35    0.40
  -2  -2   9   -0.23    0.26
  -2  -2   9   -0.16    0.32
   1   2  -9    1.05    0.43
   1   2  -9    1.48    0.47
   1   2  -9    1.69    0.52
   1   2  -9    1.91    0.37
   1   2  -9    1.27    0.48
  -1  -2   9    1.64    0.49
  -1  -2   9    2.08    0.57
  -1  -2   9    1.61    0.48
  -1  -2   9    2.23    0.54
  -1  -2   9    1.42    0.51
   0   2  -9    0.15    0.31
   0   2  -9    0.59    0.27
   0   2  -9    0.22    0.34
   0   2  -9    0.11    0.37
   0  -2   9    0.23    0.34
   0  -2   9    0.48    0.37
   0  -2   9    0.35    0.32
   0  -2   9    0.47    0.31
   0  -2   9    0.55    0.40
   0  -2   9    0.02    0.32
  -1   2  -9   -0.08    0.18
  -1   2  -9    0.32    0.31
  -1   2  -9    0.04    0.35
   1  -2   9    0.61    0.34
   1  -2   9    0.28    0.33
   1  -2   9    0.18    0.30
   1  -2   9   -0.06    0.27
   1  -2   9   -0.31    0.28
   1  -2   9    0.20    0.34
  -2   2  -9    0.09    0.36
  -2   2  -9   -0.11    0.19
  -2   2  -9    0.13    0.27
   2  -2   9    0.19    0.32
   2  -2   9    0.41    0.37
   2  -2   9    0.18    0.29
   2  -2   9    0.04    0.31
   2  -2   9   -0.33    0.27
  -3   2  -9    0.03    0.40
  -3   2  -9   -0.22    0.19
  -3   2  -9    0.41    0.37
   3  -2   9    0.99    0.49
   3  -2   9    0.04    0.38
   3  -2   9    0.14    0.31
   3  -2   9   -0.06    0.36
  -4   2  -9    0.29    0.26
  -4   2  -9   -0.24    0.23
  -4   2  -9   -0.75    0.38
   4  -2   9   -0.64    0.26
   4  -2   9   -0.61    0.34
   4  -2   9    0.04    0.36
   4  -2   9    0.77    0.50
   6   1  -9   -0.16    0.25
   6   1  -9   -0.24    0.36
   6   1  -9   -0.06    0.41
  -6  -1   9    0.18    0.45
  -6  -1   9   -0.36    0.29
  -6  -1   9   -0.22    0.28
   5   1  -9    1.33    0.36
   5   1  -9    1.79    0.46
   5   1  -9    0.84    0.48
   5   1  -9    1.30    0.58
  -5  -1   9    1.13    0.51
  -5  -1   9    0.87    0.45
  -5  -1   9    1.14    0.54
  -5  -1   9    0.59    0.39
   4   1  -9    0.88    0.48
   4   1  -9    2.38    0.60
   4   1  -9    2.47    0.40
  -4  -1   9    1.93    0.62
  -4  -1   9    1.22    0.48
  -4  -1   9    1.90    0.48
  -4  -1   9    1.47    0.49
  -4  -1   9    1.56    0.59
   3   1  -9    0.84    0.36
   3   1  -9    0.28    0.37
   3   1  -9    0.24    0.23
   3   1  -9    0.56    0.39
  -3  -1   9    0.52    0.35
  -3  -1   9    0.07    0.38
  -3  -1   9   -0.12    0.29
  -3  -1   9    0.62    0.38
  -3  -1   9    0.21    0.41
   2   1  -9    1.64    0.50
   2   1  -9   -0.04    0.31
   2   1  -9    0.36    0.36
   2   1  -9    0.53    0.27
  -2  -1   9    1.79    0.57
  -2  -1   9    0.65    0.39
  -2  -1   9    1.10    0.39
  -2  -1   9    0.72    0.42
  -2  -1   9    0.34    0.33
   1   1  -9    0.46    0.36
   1   1  -9   -0.15    0.27
   1   1  -9    0.55    0.27
   1   1  -9    1.37    0.45
  -1  -1   9    0.96    0.47
  -1  -1   9    0.51    0.38
  -1  -1   9    0.58    0.29
  -1  -1   9    0.38    0.41
  -1  -1   9    0.74    0.40
  -1  -1   9    0.65    0.38
   0   1  -9   -0.33    0.31
   0   1  -9   -0.28    0.31
   0   1  -9    0.00    0.24
   0   1  -9    0.20    0.22
   0   1  -9   -0.15    0.23
   0  -1   9    0.48    0.37
   0  -1   9    0.27    0.33
   0  -1   9    0.18    0.31
   0  -1   9    0.14    0.27
   0  -1   9   -0.10    0.32
   0  -1   9   -0.20    0.25
  -1   1  -9    0.95    0.49
  -1   1  -9    0.46    0.26
  -1   1  -9    0.78    0.36
   1  -1   9    0.92    0.38
   1  -1   9    0.02    0.29
   1  -1   9    0.79    0.42
   1  -1   9    1.37    0.43
   1  -1   9    0.18    0.34
   1  -1   9    0.34    0.41
  -2   1  -9    0.00    0.26
  -2   1  -9   -0.08    0.19
  -2   1  -9    0.00    0.36
  -2   1  -9    0.05    0.31
   2  -1   9    0.25    0.35
   2  -1   9    0.27    0.43
   2  -1   9    0.36    0.39
   2  -1   9   -0.02    0.34
   2  -1   9   -0.40    0.20
  -3   1  -9    0.62    0.31
  -3   1  -9    0.14    0.36
  -3   1  -9    1.27    0.53
   3  -1   9    1.39    0.47
   3  -1   9    0.13    0.41
   3  -1   9   -0.11    0.30
   3  -1   9    1.23    0.57
   3  -1   9    0.73    0.44
  -4   1  -9    2.32    0.66
  -4   1  -9    1.36    0.54
  -4   1  -9    1.97    0.42
   4  -1   9    2.16    0.69
   4  -1   9    2.23    0.64
   4  -1   9    2.00    0.68
   4  -1   9    1.54    0.51
   4  -1   9    1.34    0.60
   6   0  -9    2.17    0.64
   6   0  -9    1.77    0.62
  -6   0   9    1.35    0.57
  -6   0   9    0.86    0.49
  -6   0   9    1.73    0.51
   5   0  -9    0.17    0.39
   5   0  -9    0.12    0.45
  -5   0   9   -0.32    0.28
  -5   0   9   -0.21    0.30
  -5   0   9    0.06    0.35
  -5   0   9    0.02    0.40
   4   0  -9   -0.32    0.31
   4   0  -9    0.05    0.30
  -4   0   9   -0.04    0.36
  -4   0   9    0.23    0.40
  -4   0   9    0.33    0.39
  -4   0   9   -0.36    0.26
  -4   0   9   -0.21    0.35
   3   0  -9    2.86    0.71
   3   0  -9    1.44    0.48
   3   0  -9    1.91    0.36
  -3   0   9    2.60    0.63
  -3   0   9    1.31    0.50
  -3   0   9    2.81    0.70
  -3   0   9    2.28    0.52
  -3   0   9    2.03    0.53
   2   0  -9    3.38    0.72
   2   0  -9    1.63    0.35
   2   0  -9    1.71    0.47
   2   0  -9    1.92    0.53
  -2   0   9    1.81    0.49
  -2   0   9    3.05    0.68
  -2   0   9    2.16    0.62
  -2   0   9    1.94    0.56
  -2   0   9    1.63    0.45
   1   0  -9    2.73    0.62
   1   0  -9    3.00    0.40
   1   0  -9    3.56    0.57
   1   0  -9    2.67    0.58
  -1   0   9    3.51    0.53
  -1   0   9    3.80    0.61
  -1   0   9    2.94    0.65
  -1   0   9    2.86    0.64
  -1   0   9    2.74    0.69
  -1   0   9    3.63    0.71
   0   0  -9   -0.02    0.20
   0   0  -9   -0.01    0.34
   0   0  -9   -0.03    0.28
   0   0  -9   -0.44    0.26
   0   0   9    0.20    0.35
   0   0   9   -0.29    0.32
   0   0   9    0.09    0.33
   0   0   9   -0.44    0.26
   0   0   9   -0.48    0.29
   0   0   9    0.16    0.26
  -1   0  -9    1.13    0.49
  -1   0  -9    1.25    0.33
   1   0   9    1.29    0.46
   1   0   9    0.73    0.47
   1   0   9    0.55    0.47
   1   0   9    0.48    0.41
   1   0   9    0.69    0.37
  -2   0  -9    1.04    0.45
  -2   0  -9    1.13    0.32
  -2   0  -9    1.43    0.57
   2   0   9    0.65    0.47
   2   0   9    1.40    0.55
   2   0   9    1.28    0.54
   2   0   9    0.87    0.40
   2   0   9    1.77    0.63
  -3   0  -9    0.11    0.24
  -3   0  -9   -0.56    0.41
  -3   0  -9    0.07    0.35
  -3   0  -9   -0.61    0.42
   3   0   9    0.22    0.40
   3   0   9   -0.52    0.32
   3   0   9    0.05    0.31
   3   0   9   -0.17    0.34
   3   0   9   -0.36    0.37
   6  -1  -9   -0.06    0.34
   6  -1  -9    0.68    0.45
  -6   1   9    0.40    0.41
  -6   1   9    0.00    0.35
   5  -1  -9    0.45    0.40
   5  -1  -9    0.49    0.48
  -5   1   9    1.38    0.54
  -5   1   9    0.63    0.41
  -5   1   9    0.86    0.41
   4  -1  -9    2.97    0.67
   4  -1  -9    3.64    0.74
  -4   1   9    4.52    0.69
  -4   1   9    2.80    0.67
  -4   1   9    2.80    0.68
  -4   1   9    2.79    0.63
   3  -1  -9    2.62    0.60
   3  -1  -9    2.88    0.65
  -3   1   9    2.34    0.58
  -3   1   9    3.59    0.72
  -3   1   9    3.42    0.63
  -3   1   9    2.96    0.68
   2  -1  -9    0.09    0.36
   2  -1  -9   -0.14    0.20
   2  -1  -9   -0.19    0.29
  -2   1   9   -0.13    0.34
  -2   1   9    0.43    0.41
  -2   1   9   -0.04    0.30
  -2   1   9   -0.12    0.32
   1  -1  -9    0.11    0.40
   1  -1  -9    0.25    0.34
   1  -1  -9    0.25    0.23
  -1   1   9    0.60    0.48
  -1   1   9    0.44    0.39
  -1   1   9    0.29    0.29
  -1   1   9    0.30    0.38
  -1   1   9    0.59    0.37
   0  -1  -9   -0.03    0.21
   0  -1  -9    0.90    0.47
   0  -1  -9    0.50    0.49
   0  -1  -9    0.85    0.43
   0   1   9    0.21    0.36
   0   1   9    0.49    0.38
   0   1   9    0.45    0.33
   0   1   9   -0.32    0.32
   0   1   9    0.08    0.32
  -1  -1  -9    0.28    0.44
  -1  -1  -9    0.18    0.21
  -1  -1  -9   -0.05    0.41
  -1  -1  -9    0.22    0.37
  -1  -1  -9    0.02    0.36
   1   1   9   -0.02    0.31
   1   1   9    0.34    0.36
   1   1   9   -0.69    0.28
   1   1   9    0.77    0.43
   1   1   9   -0.08    0.40
   1   1   9   -0.03    0.39
  -2  -1  -9    0.82    0.51
  -2  -1  -9    0.53    0.44
  -2  -1  -9    0.12    0.34
  -2  -1  -9   -0.08    0.23
   2   1   9    0.49    0.41
   2   1   9    0.54    0.46
   2   1   9   -0.42    0.30
   2   1   9    0.41    0.43
   2   1   9    1.08    0.54
   6  -2  -9    0.86    0.52
   6  -2  -9    1.87    0.61
  -6   2   9    1.53    0.54
  -6   2   9    0.88    0.48
   5  -2  -9    0.39    0.47
   5  -2  -9   -0.31    0.37
  -5   2   9    0.84    0.44
  -5   2   9   -0.08    0.32
  -5   2   9    0.50    0.46
   4  -2  -9   -0.95    0.31
   4  -2  -9   -0.63    0.29
  -4   2   9    0.02    0.47
  -4   2   9    0.30    0.39
  -4   2   9   -0.34    0.33
  -4   2   9    0.80    0.47
   3  -2  -9    0.40    0.46
   3  -2  -9    0.86    0.49
  -3   2   9   -0.35    0.35
  -3   2   9   -0.34    0.35
  -3   2   9    0.25    0.35
  -3   2   9    0.64    0.42
   2  -2  -9    0.68    0.49
   2  -2  -9    1.12    0.61
  -2   2   9    0.56    0.40
  -2   2   9    0.14    0.44
  -2   2   9    0.20    0.40
  -2   2   9    0.43    0.43
   1  -2  -9   -0.27    0.34
   1  -2  -9   -0.39    0.45
  -1   2   9   -0.01    0.40
  -1   2   9    0.11    0.41
  -1   2   9   -0.40    0.31
  -1   2   9    0.31    0.36
   0  -2  -9    0.20    0.24
   0  -2  -9    0.04    0.40
   0  -2  -9    0.83    0.55
   0   2   9    0.02    0.31
   0   2   9    0.10    0.39
   0   2   9    0.45    0.36
   0   2   9    1.02    0.54
   0   2   9    0.55    0.54
  -1  -2  -9    0.54    0.51
  -1  -2  -9    0.92    0.52
  -1  -2  -9    0.18    0.42
  -1  -2  -9    0.51    0.40
  -1  -2  -9    1.03    0.47
  -1  -2  -9    1.12    0.33
   1   2   9    0.09    0.45
   1   2   9    0.68    0.49
   1   2   9    0.70    0.50
   1   2   9    0.58    0.38
   1   2   9    0.28    0.37
   5  -3  -9    0.03    0.45
   5  -3  -9   -0.41    0.44
  -5   3   9    0.14    0.38
  -5   3   9   -0.39    0.38
   4  -3  -9    0.97    0.54
   4  -3  -9    0.69    0.59
  -4   3   9    0.70    0.52
  -4   3   9    0.97    0.56
  -4   3   9    0.72    0.44
   3  -3  -9    0.08    0.43
   3  -3  -9    0.68    0.51
  -3   3   9   -0.09    0.44
  -3   3   9   -0.58    0.28
  -3   3   9   -0.01    0.48
   2  -3  -9    0.09    0.46
   2  -3  -9    1.54    0.66
  -2   3   9    0.38    0.39
  -2   3   9    0.47    0.51
  -2   3   9   -0.11    0.42
   1  -3  -9    0.92    0.57
   1  -3  -9    0.28    0.47
   1  -3  -9    0.42    0.46
  -1   3   9    0.62    0.53
  -1   3   9    0.49    0.52
  -1   3   9    0.89    0.43
   1   7 -10    1.06    0.50
   1   7 -10    1.13    0.40
   1   7 -10    3.20    0.79
  -1  -7  10    0.98    0.47
  -1  -7  10    1.74    0.65
   0   7 -10    0.02    0.35
   0   7 -10    0.73    0.46
   0   7 -10   -0.14    0.47
   0   7 -10    0.77    0.37
   0  -7  10    0.59    0.46
   0  -7  10    0.85    0.58
   0  -7  10    0.44    0.43
   0  -7  10   -0.19    0.32
  -1   7 -10   -0.09    0.40
  -1   7 -10    0.00    0.31
  -1   7 -10    0.23    0.44
  -1   7 -10   -0.45    0.34
   1  -7  10    0.05    0.39
   1  -7  10    0.13    0.36
   1  -7  10    0.03    0.41
   1  -7  10    0.07    0.40
  -2   7 -10    0.82    0.45
  -2   7 -10    0.45    0.49
  -2   7 -10    0.47    0.35
  -2   7 -10    0.61    0.43
   2  -7  10    0.15    0.40
   2  -7  10    0.26    0.36
   2  -7  10    0.26    0.51
   2  -7  10   -0.60    0.28
  -3   7 -10    1.40    0.40
  -3   7 -10    0.99    0.60
  -3   7 -10    1.67    0.57
   3  -7  10    0.90    0.53
   3  -7  10    0.98    0.49
   3  -7  10    1.88    0.59
   3  -7  10    0.84    0.47
   2   6 -10    0.43    0.40
   2   6 -10   -0.19    0.40
   2   6 -10    0.22    0.26
   2   6 -10    0.24    0.46
  -2  -6  10   -0.19    0.39
  -2  -6  10    0.42    0.43
  -2  -6  10    0.04    0.38
  -2  -6  10   -0.05    0.40
   1   6 -10   -0.15    0.46
   1   6 -10   -0.11    0.27
   1   6 -10   -0.05    0.34
   1   6 -10   -0.02    0.30
   1   6 -10    0.71    0.46
  -1  -6  10   -0.01    0.45
  -1  -6  10    0.79    0.49
  -1  -6  10    0.34    0.45
  -1  -6  10    0.28    0.38
   0   6 -10    0.47    0.36
   0   6 -10   -0.17    0.45
   0   6 -10    0.31    0.35
   0   6 -10    0.40    0.36
   0   6 -10    0.54    0.44
   0  -6  10   -0.08    0.35
   0  -6  10   -0.42    0.27
   0  -6  10   -0.35    0.44
   0  -6  10    0.34    0.38
  -1   6 -10    0.13    0.36
  -1   6 -10    0.26    0.31
  -1   6 -10    0.39    0.50
  -1   6 -10    0.19    0.40
   1  -6  10    0.35    0.43
   1  -6  10    0.14    0.49
   1  -6  10    0.17    0.38
   1  -6  10    0.02    0.36
  -2   6 -10    2.96    0.49
  -2   6 -10    2.19    0.60
  -2   6 -10    3.35    0.73
   2  -6  10    2.61    0.69
   2  -6  10    2.47    0.59
   2  -6  10    4.78    0.87
   2  -6  10    3.40    0.72
  -3   6 -10    0.61    0.44
  -3   6 -10    1.15    0.59
  -3   6 -10    0.60    0.31
   3  -6  10    0.79    0.46
   3  -6  10    0.69    0.46
   3  -6  10    0.12    0.39
   3  -6  10    0.90    0.48
  -4   6 -10   -0.03    0.27
  -4   6 -10    0.51    0.51
  -4   6 -10   -0.40    0.32
  -4   6 -10   -0.26    0.33
   4  -6  10   -0.20    0.35
   4  -6  10   -0.29    0.36
   4  -6  10   -0.12    0.38
   4  -6  10    0.53    0.46
   3   5 -10    0.52    0.47
   3   5 -10    0.46    0.41
   3   5 -10    0.10    0.35
   3   5 -10    0.48    0.44
   3   5 -10    0.77    0.36
  -3  -5  10    0.17    0.43
  -3  -5  10    0.87    0.48
  -3  -5  10    0.71    0.52
  -3  -5  10    0.39    0.46
   2   5 -10    1.47    0.50
   2   5 -10    0.84    0.53
   2   5 -10    0.64    0.46
   2   5 -10    1.57    0.39
   2   5 -10    0.96    0.53
  -2  -5  10    1.50    0.60
  -2  -5  10    2.10    0.65
  -2  -5  10    1.14    0.50
  -2  -5  10    1.36    0.48
   1   5 -10    0.18    0.42
   1   5 -10   -0.27    0.29
   1   5 -10    0.52    0.31
   1   5 -10   -0.16    0.30
   1   5 -10    0.29    0.36
  -1  -5  10   -0.60    0.26
  -1  -5  10   -0.50    0.25
  -1  -5  10   -0.44    0.31
  -1  -5  10    0.49    0.46
   0   5 -10    2.04    0.43
   0   5 -10    2.58    0.64
   0   5 -10    3.08    0.66
   0   5 -10    2.35    0.54
   0   5 -10    2.00    0.59
   0  -5  10    2.47    0.66
   0  -5  10    2.88    0.64
   0  -5  10    2.29    0.61
   0  -5  10    4.03    0.79
  -1   5 -10    0.16    0.26
  -1   5 -10    0.81    0.43
  -1   5 -10   -0.02    0.33
  -1   5 -10    0.36    0.44
   1  -5  10    0.36    0.44
   1  -5  10    0.30    0.38
   1  -5  10    0.28    0.34
   1  -5  10    0.60    0.46
  -2   5 -10    2.39    0.65
  -2   5 -10    1.59    0.42
  -2   5 -10    0.79    0.44
   2  -5  10    1.99    0.65
   2  -5  10    1.64    0.57
   2  -5  10    1.21    0.50
   2  -5  10    0.59    0.45
  -3   5 -10    0.25    0.47
  -3   5 -10    0.38    0.30
  -3   5 -10    0.50    0.35
   3  -5  10    0.71    0.47
   3  -5  10    0.23    0.31
   3  -5  10    0.38    0.41
   3  -5  10    0.36    0.33
  -4   5 -10    0.15    0.35
  -4   5 -10    0.75    0.35
  -4   5 -10    0.78    0.46
  -4   5 -10    0.35    0.46
   4  -5  10   -0.62    0.36
   4  -5  10    0.53    0.43
   4  -5  10    0.60    0.46
   4  -5  10   -0.10    0.35
   4   4 -10    2.01    0.63
   4   4 -10    1.25    0.50
   4   4 -10    0.63    0.43
   4   4 -10    1.47    0.47
   4   4 -10    1.48    0.56
  -4  -4  10    0.68    0.49
  -4  -4  10    1.11    0.49
  -4  -4  10    2.95    0.77
  -4  -4  10    1.94    0.66
   3   4 -10    0.91    0.35
   3   4 -10    0.86    0.50
   3   4 -10   -0.29    0.33
   3   4 -10    0.66    0.48
   3   4 -10    0.79    0.44
  -3  -4  10    0.19    0.37
  -3  -4  10    0.45    0.48
  -3  -4  10    0.88    0.48
  -3  -4  10    0.71    0.54
   2   4 -10    0.31    0.46
   2   4 -10    1.22    0.50
   2   4 -10    0.10    0.36
   2   4 -10    0.95    0.48
   2   4 -10    0.23    0.28
  -2  -4  10   -0.21    0.37
  -2  -4  10    0.25    0.37
  -2  -4  10   -0.04    0.41
  -2  -4  10    0.46    0.48
   1   4 -10    0.23    0.25
   1   4 -10    0.26    0.37
   1   4 -10    0.30    0.45
   1   4 -10   -0.39    0.24
   1   4 -10   -0.35    0.28
  -1  -4  10    0.71    0.46
  -1  -4  10    0.27    0.35
  -1  -4  10   -0.12    0.34
  -1  -4  10    0.25    0.33
   0   4 -10    1.84    0.56
   0   4 -10    2.66    0.61
   0   4 -10    2.31    0.58
   0   4 -10    2.14    0.64
   0   4 -10    2.57    0.44
   0  -4  10    1.62    0.54
   0  -4  10    0.96    0.48
   0  -4  10    1.74    0.56
   0  -4  10    1.73    0.56
  -1   4 -10   -0.48    0.19
  -1   4 -10   -0.03    0.41
  -1   4 -10   -0.29    0.28
  -1   4 -10    0.47    0.35
   1  -4  10    0.22    0.39
   1  -4  10   -0.12    0.31
   1  -4  10    0.44    0.43
   1  -4  10   -0.26    0.32
  -2   4 -10    0.14    0.24
  -2   4 -10   -0.55    0.27
  -2   4 -10   -0.03    0.40
   2  -4  10    0.30    0.36
   2  -4  10   -0.01    0.28
   2  -4  10   -0.26    0.35
   2  -4  10   -0.06    0.34
   2  -4  10    0.06    0.35
  -3   4 -10    0.30    0.39
  -3   4 -10    0.39    0.29
  -3   4 -10    0.32    0.52
   3  -4  10    0.71    0.40
   3  -4  10    0.37    0.47
   3  -4  10    1.15    0.46
   3  -4  10    0.61    0.46
  -4   4 -10    0.40    0.31
  -4   4 -10    0.93    0.49
  -4   4 -10    0.31    0.52
   4  -4  10    0.16    0.40
   4  -4  10    0.17    0.47
   4  -4  10    0.10    0.44
   4  -4  10    1.22    0.49
   5   3 -10    1.56    0.62
   5   3 -10    1.34    0.52
   5   3 -10    0.20    0.56
   5   3 -10    1.68    0.45
  -5  -3  10    0.78    0.47
  -5  -3  10    1.27    0.57
   4   3 -10    0.24    0.37
   4   3 -10   -0.15    0.34
   4   3 -10   -0.06    0.35
   4   3 -10    0.14    0.25
   4   3 -10   -0.36    0.40
  -4  -3  10    0.54    0.48
  -4  -3  10    0.12    0.35
  -4  -3  10    0.04    0.42
  -4  -3  10   -0.44    0.35
   3   3 -10    0.21    0.39
   3   3 -10    0.68    0.42
   3   3 -10    0.15    0.44
   3   3 -10   -0.50    0.24
   3   3 -10    0.41    0.29
  -3  -3  10    0.59    0.48
  -3  -3  10   -0.17    0.29
  -3  -3  10   -0.02    0.41
  -3  -3  10   -0.02    0.38
   2   3 -10    0.23    0.40
   2   3 -10   -0.08    0.34
   2   3 -10    0.08    0.38
   2   3 -10    0.90    0.45
   2   3 -10   -0.06    0.25
  -2  -3  10    0.03    0.40
  -2  -3  10   -0.13    0.34
  -2  -3  10    0.31    0.31
  -2  -3  10   -0.08    0.36
   1   3 -10    0.21    0.37
   1   3 -10   -0.08    0.22
   1   3 -10   -0.05    0.38
   1   3 -10   -0.73    0.23
   1   3 -10   -0.44    0.33
  -1  -3  10    0.29    0.42
  -1  -3  10   -0.06    0.34
  -1  -3  10    0.82    0.51
  -1  -3  10   -0.18    0.31
   0   3 -10    0.18    0.31
   0   3 -10   -0.01    0.32
   0   3 -10   -0.13    0.40
   0   3 -10   -0.33    0.20
   0   3 -10    0.35    0.46
   0  -3  10   -0.11    0.31
   0  -3  10    0.62    0.42
   0  -3  10    0.23    0.39
   0  -3  10   -0.03    0.30
  -1   3 -10    0.76    0.48
  -1   3 -10   -0.03    0.23
  -1   3 -10   -0.04    0.27
  -1   3 -10   -0.03    0.32
   1  -3  10    0.03    0.33
   1  -3  10    0.98    0.48
   1  -3  10    0.31    0.41
   1  -3  10    0.21    0.34
   1  -3  10   -0.10    0.26
  -2   3 -10    1.08    0.34
  -2   3 -10    1.58    0.57
  -2   3 -10    0.57    0.36
   2  -3  10    0.70    0.43
   2  -3  10    1.04    0.45
   2  -3  10    0.38    0.42
   2  -3  10    1.01    0.45
   2  -3  10    0.18    0.35
  -3   3 -10    0.82    0.52
  -3   3 -10   -0.16    0.30
  -3   3 -10    0.27    0.29
  -3   3 -10    0.00    0.36
   3  -3  10    0.13    0.34
   3  -3  10   -0.29    0.33
   3  -3  10    0.28    0.43
   3  -3  10    0.67    0.45
  -4   3 -10   -0.38    0.29
  -4   3 -10   -0.49    0.42
  -4   3 -10    0.05    0.28
   4  -3  10    0.21    0.46
   4  -3  10    0.15    0.39
   4  -3  10   -0.21    0.41
   4  -3  10    0.35    0.35
   5   2 -10    0.31    0.39
   5   2 -10    0.24    0.29
   5   2 -10    0.16    0.41
   5   2 -10    0.69    0.42
  -5  -2  10   -0.18    0.41
  -5  -2  10    0.32    0.41
  -5  -2  10    0.08    0.36
  -5  -2  10   -0.16    0.38
   4   2 -10    0.28    0.43
   4   2 -10    0.14    0.30
   4   2 -10    0.14    0.39
   4   2 -10    0.58    0.27
  -4  -2  10    0.37    0.43
  -4  -2  10   -0.08    0.39
  -4  -2  10   -0.01    0.31
  -4  -2  10   -0.15    0.30
  -4  -2  10    0.69    0.56
   3   2 -10   -0.42    0.25
   3   2 -10    0.85    0.44
   3   2 -10    0.93    0.45
   3   2 -10    0.86    0.41
   3   2 -10    0.22    0.29
  -3  -2  10    0.46    0.40
  -3  -2  10    0.52    0.44
  -3  -2  10    0.06    0.35
  -3  -2  10    0.53    0.43
  -3  -2  10   -0.13    0.37
   2   2 -10    0.02    0.23
   2   2 -10    0.35    0.42
   2   2 -10    0.25    0.39
   2   2 -10    0.49    0.43
   2   2 -10   -0.19    0.26
  -2  -2  10   -0.36    0.34
  -2  -2  10   -0.23    0.34
  -2  -2  10    0.63    0.40
  -2  -2  10    0.11    0.32
  -2  -2  10    0.64    0.44
   1   2 -10    0.24    0.36
   1   2 -10    0.15    0.20
   1   2 -10   -0.08    0.34
   1   2 -10   -0.03    0.30
   1   2 -10    0.52    0.44
  -1  -2  10    0.04    0.41
  -1  -2  10   -0.41    0.32
  -1  -2  10   -0.55    0.22
  -1  -2  10   -0.03    0.32
  -1  -2  10   -0.50    0.30
   0   2 -10    0.75    0.30
   0   2 -10    0.81    0.46
   0   2 -10    0.63    0.40
   0   2 -10    0.48    0.38
   0   2 -10    0.20    0.43
   0  -2  10    0.33    0.41
   0  -2  10    0.89    0.48
   0  -2  10    1.18    0.52
   0  -2  10    0.37    0.39
   0  -2  10    0.86    0.38
   0  -2  10    0.20    0.31
  -1   2 -10    0.37    0.34
  -1   2 -10   -0.15    0.42
  -1   2 -10   -0.29    0.34
  -1   2 -10    0.44    0.27
   1  -2  10   -0.09    0.34
   1  -2  10    0.67    0.38
   1  -2  10    0.55    0.46
   1  -2  10    0.25    0.41
   1  -2  10    1.07    0.50
   1  -2  10    0.53    0.40
  -2   2 -10    0.51    0.30
  -2   2 -10    0.86    0.57
  -2   2 -10    1.01    0.40
   2  -2  10    0.83    0.42
   2  -2  10    0.83    0.46
   2  -2  10    0.56    0.40
   2  -2  10    0.31    0.43
  -3   2 -10    0.50    0.30
  -3   2 -10    0.30    0.36
  -3   2 -10    0.02    0.46
   3  -2  10    0.20    0.37
   3  -2  10    0.15    0.40
   3  -2  10    0.08    0.34
   3  -2  10    0.24    0.47
   5   1 -10   -0.47    0.33
   5   1 -10    0.24    0.33
   5   1 -10    0.45    0.44
  -5  -1  10    0.13    0.35
  -5  -1  10    0.47    0.48
  -5  -1  10   -0.51    0.39
  -5  -1  10    0.25    0.35
   4   1 -10    0.24    0.35
   4   1 -10   -0.10    0.42
   4   1 -10    0.67    0.44
   4   1 -10    1.97    0.41
  -4  -1  10    0.52    0.42
  -4  -1  10    0.52    0.46
  -4  -1  10    1.53    0.58
  -4  -1  10    1.05    0.48
  -4  -1  10    1.36    0.60
   3   1 -10    0.87    0.46
   3   1 -10   -0.04    0.26
   3   1 -10    0.27    0.28
   3   1 -10    0.60    0.48
  -3  -1  10    1.01    0.44
  -3  -1  10    0.65    0.49
  -3  -1  10    0.48    0.50
  -3  -1  10    0.45    0.48
  -3  -1  10    0.39    0.31
   2   1 -10    1.28    0.50
   2   1 -10    1.47    0.47
   2   1 -10    0.84    0.44
   2   1 -10    1.72    0.62
   2   1 -10    1.57    0.35
  -2  -1  10    0.45    0.46
  -2  -1  10    1.38    0.56
  -2  -1  10    2.00    0.58
  -2  -1  10    1.93    0.51
  -2  -1  10    1.97    0.62
   1   1 -10   -0.17    0.27
   1   1 -10    0.18    0.25
   1   1 -10    0.01    0.32
   1   1 -10   -0.30    0.29
   1   1 -10   -0.47    0.34
  -1  -1  10    0.01    0.37
  -1  -1  10    0.22    0.45
  -1  -1  10   -0.68    0.31
  -1  -1  10    0.24    0.33
  -1  -1  10   -0.22    0.28
   0   1 -10    2.79    0.57
   0   1 -10    3.91    0.68
   0   1 -10    4.81    0.86
   0   1 -10    4.07    0.74
   0   1 -10    3.70    0.51
   0  -1  10    4.55    0.79
   0  -1  10    3.91    0.63
   0  -1  10    3.45    0.76
   0  -1  10    2.73    0.64
   0  -1  10    4.39    0.70
   0  -1  10    4.27    0.77
  -1   1 -10    0.50    0.44
  -1   1 -10    0.30    0.24
  -1   1 -10   -0.26    0.43
  -1   1 -10    1.13    0.43
   1  -1  10    0.04    0.40
   1  -1  10    0.86    0.45
   1  -1  10   -0.01    0.39
   1  -1  10    1.19    0.55
   1  -1  10    0.21    0.33
   1  -1  10    0.19    0.34
  -2   1 -10    0.03    0.34
  -2   1 -10    0.45    0.45
  -2   1 -10   -0.18    0.20
   2  -1  10    0.33    0.43
   2  -1  10    0.40    0.40
   2  -1  10   -0.20    0.34
   2  -1  10   -0.30    0.38
   5   0 -10    1.34    0.57
   5   0 -10    1.97    0.63
  -5   0  10    0.39    0.53
  -5   0  10    2.31    0.70
  -5   0  10    0.24    0.50
  -5   0  10    1.70    0.54
  -5   0  10    0.55    0.50
   4   0 -10    2.53    0.66
   4   0 -10    2.08    0.68
  -4   0  10    4.19    0.87
  -4   0  10    1.84    0.62
  -4   0  10    3.41    0.73
  -4   0  10    1.49    0.60
  -4   0  10    2.95    0.65
   3   0 -10   -0.16    0.33
   3   0 -10    0.68    0.50
  -3   0  10   -0.22    0.36
  -3   0  10    0.43    0.35
  -3   0  10    0.06    0.42
  -3   0  10   -0.55    0.29
  -3   0  10   -0.45    0.35
   2   0 -10    4.60    0.53
   2   0 -10    5.77    1.00
   2   0 -10    3.84    0.74
  -2   0  10    4.34    0.83
  -2   0  10    4.59    0.73
  -2   0  10    2.85    0.72
  -2   0  10    4.29    0.83
  -2   0  10    3.80    0.68
   1   0 -10    0.26    0.44
   1   0 -10    0.18    0.25
   1   0 -10    0.55    0.38
  -1   0  10   -0.23    0.26
  -1   0  10    0.50    0.43
  -1   0  10    0.18    0.44
  -1   0  10    0.16    0.36
  -1   0  10    0.48    0.52
  -1   0  10   -0.05    0.29
   0   0 -10    0.33    0.41
   0   0 -10    0.58    0.53
   0   0 -10   -0.07    0.22
   0   0 -10    1.20    0.52
   0   0  10    0.22    0.38
   0   0  10   -0.23    0.40
   0   0  10    0.34    0.42
   0   0  10   -0.50    0.31
   0   0  10    0.18    0.33
  -1   0 -10   -0.03    0.26
  -1   0 -10   -0.24    0.31
  -1   0 -10    0.82    0.52
  -1   0 -10   -0.11    0.22
   1   0  10    0.10    0.35
   1   0  10   -0.27    0.31
   1   0  10    0.05    0.35
   1   0  10   -0.45    0.27
   1   0  10   -0.33    0.34
  -2   0 -10    0.16    0.36
   5  -1 -10   -0.32    0.34
   5  -1 -10   -0.46    0.31
  -5   1  10   -0.39    0.37
  -5   1  10   -0.01    0.31
  -5   1  10    0.58    0.48
  -5   1  10   -0.53    0.39
   4  -1 -10    0.57    0.48
   4  -1 -10    2.73    0.77
  -4   1  10    0.74    0.53
  -4   1  10    1.06    0.49
  -4   1  10    0.57    0.55
  -4   1  10    2.19    0.62
   3  -1 -10    2.04    0.64
   3  -1 -10    3.04    0.76
  -3   1  10    1.47    0.68
  -3   1  10    2.49    0.62
  -3   1  10    2.31    0.60
  -3   1  10    1.88    0.66
   2  -1 -10    0.37    0.46
   2  -1 -10    1.29    0.54
  -2   1  10    0.75    0.38
  -2   1  10    0.98    0.55
  -2   1  10    0.59    0.47
  -2   1  10    0.29    0.39
   1  -1 -10   -0.10    0.23
   1  -1 -10    0.42    0.42
   1  -1 -10   -0.32    0.42
  -1   1  10   -0.02    0.43
  -1   1  10    0.07    0.44
  -1   1  10    0.40    0.45
  -1   1  10   -0.17    0.28
   0  -1 -10   -0.26    0.33
   0  -1 -10   -0.02    0.22
   0  -1 -10    0.16    0.52
   0   1  10   -0.82    0.33
   0   1  10    1.00    0.47
   0   1  10   -0.14    0.41
   0   1  10    0.12    0.33
   0   1  10    0.24    0.47
   4  -2 -10    1.91    0.69
   4  -2 -10    2.16    0.77
  -4   2  10    2.13    0.56
  -4   2  10    2.13    0.73
  -4   2  10    2.66    0.67
  -4   2  10    2.88    0.75
   3  -2 -10    0.06    0.49
   3  -2 -10    0.49    0.50
  -3   2  10    0.42    0.38
  -3   2  10   -0.20    0.39
  -3   2  10   -0.48    0.40
  -3   2  10   -0.18    0.27
   2  -2 -10    0.26    0.52
   2  -2 -10   -0.06    0.43
  -2   2  10   -0.36    0.30
  -2   2  10    0.67    0.42
  -2   2  10   -0.05    0.37
  -2   2  10    0.18    0.46
   0   6 -11    0.21    0.47
   0   6 -11    0.17    0.26
   0   6 -11   -0.09    0.38
   0   6 -11    0.05    0.33
   0   6 -11   -0.52    0.33
   0  -6  11   -0.05    0.44
   0  -6  11   -0.32    0.41
   0  -6  11    0.82    0.53
   0  -6  11    0.16    0.37
  -1   6 -11   -0.06    0.51
  -1   6 -11   -0.27    0.35
  -1   6 -11    0.19    0.40
  -1   6 -11   -0.40    0.19
   1  -6  11    0.13    0.38
   1  -6  11    0.42    0.45
   1  -6  11   -0.47    0.32
   1  -6  11    0.19    0.47
   2   5 -11   -0.03    0.39
   2   5 -11   -0.51    0.32
   2   5 -11    0.41    0.41
   2   5 -11    0.42    0.44
  -2  -5  11    0.05    0.32
   1   5 -11    0.69    0.46
   1   5 -11    1.40    0.61
   1   5 -11    0.15    0.32
   1   5 -11    0.60    0.49
   1   5 -11    0.87    0.45
  -1  -5  11    0.95    0.51
  -1  -5  11    1.08    0.57
  -1  -5  11    0.99    0.51
  -1  -5  11    0.96    0.55
   0   5 -11    6.43    0.96
   0   5 -11    7.36    1.01
   0   5 -11    4.91    0.86
   0   5 -11    4.78    0.66
   0   5 -11    5.31    0.86
   0  -5  11    5.09    0.87
   0  -5  11    5.66    0.97
   0  -5  11    5.36    0.93
   0  -5  11    4.77    0.88
  -1   5 -11    0.19    0.40
  -1   5 -11    0.43    0.50
  -1   5 -11    1.60    0.43
  -1   5 -11    1.00    0.58
   1  -5  11    0.75    0.46
   1  -5  11    1.23    0.58
   1  -5  11    1.29    0.56
   1  -5  11    0.57    0.46
  -2   5 -11    0.00    0.37
  -2   5 -11   -0.49    0.37
  -2   5 -11   -0.31    0.20
   2  -5  11    0.22    0.41
   2  -5  11   -0.06    0.38
   2  -5  11    0.32    0.45
   2  -5  11   -0.24    0.32
   2   4 -11    2.07    0.56
   2   4 -11    1.91    0.48
   2   4 -11    2.37    0.62
   2   4 -11    4.14    0.87
   2   4 -11    1.96    0.60
  -2  -4  11    1.72    0.64
  -2  -4  11    1.72    0.71
  -2  -4  11    2.29    0.60
  -2  -4  11    3.18    0.80
   1   4 -11    2.95    0.49
   1   4 -11    3.18    0.66
   1   4 -11    3.40    0.77
   1   4 -11    2.18    0.68
   1   4 -11    2.13    0.61
  -1  -4  11    3.28    0.70
  -1  -4  11    2.92    0.78
  -1  -4  11    3.21    0.81
  -1  -4  11    3.07    0.74
   0   4 -11    0.68    0.45
   0   4 -11   -0.29    0.34
   0   4 -11    0.38    0.48
   0   4 -11   -0.02    0.45
   0   4 -11   -0.26    0.23
   0  -4  11    0.40    0.44
   0  -4  11   -0.11    0.37
   0  -4  11   -0.18    0.33
   0  -4  11    0.17    0.42
  -1   4 -11    0.13    0.27
  -1   4 -11    0.34    0.50
  -1   4 -11    0.20    0.37
  -1   4 -11    0.15    0.39
   1  -4  11    0.31    0.32
   1  -4  11   -0.35    0.38
   1  -4  11    0.41    0.41
   1  -4  11    0.21    0.35
  -2   4 -11    0.17    0.36
  -2   4 -11    0.41    0.48
  -2   4 -11   -0.19    0.23
   2  -4  11    0.17    0.43
   2  -4  11   -0.06    0.40
   2  -4  11    0.32    0.35
   2  -4  11    0.21    0.39
   2  -4  11    0.16    0.38
   3   3 -11    0.31    0.40
   3   3 -11    0.38    0.46
   3   3 -11   -0.23    0.41
   3   3 -11    0.10    0.45
   3   3 -11    0.47    0.34
  -3  -3  11    0.43    0.49
  -3  -3  11    0.88    0.47
  -3  -3  11    1.11    0.55
  -3  -3  11    0.65    0.51
   2   3 -11   -0.38    0.31
   2   3 -11    0.38    0.47
   2   3 -11    0.07    0.28
   2   3 -11    0.47    0.43
   2   3 -11    0.50    0.41
  -2  -3  11   -0.24    0.28
  -2  -3  11    0.19    0.42
  -2  -3  11   -0.14    0.40
  -2  -3  11    0.53    0.46
   1   3 -11    0.22    0.30
   1   3 -11    1.16    0.55
   1   3 -11    0.41    0.41
   1   3 -11   -0.09    0.33
   1   3 -11    1.48    0.61
  -1  -3  11    0.21    0.35
  -1  -3  11    0.14    0.41
  -1  -3  11    0.16    0.38
  -1  -3  11   -0.17    0.41
   0   3 -11    1.41    0.55
   0   3 -11    0.52    0.28
   0   3 -11    0.95    0.44
   0   3 -11    0.57    0.51
   0   3 -11    0.77    0.51
   0  -3  11    0.95    0.54
   0  -3  11    0.34    0.43
   0  -3  11    0.64    0.41
   0  -3  11    0.95    0.53
  -1   3 -11    0.77    0.40
  -1   3 -11    0.10    0.27
  -1   3 -11    0.57    0.52
  -1   3 -11   -0.39    0.43
   1  -3  11    0.41    0.44
   1  -3  11    0.63    0.45
   1  -3  11    0.31    0.42
   1  -3  11    0.03    0.42
   1  -3  11    0.08    0.40
  -2   3 -11    0.23    0.26
  -2   3 -11    0.04    0.33
  -2   3 -11    0.19    0.47
   2  -3  11   -0.49    0.39
   2  -3  11    0.18    0.35
   2  -3  11   -0.26    0.31
   2  -3  11    0.10    0.38
   3   2 -11    0.00    0.32
   3   2 -11    1.49    0.56
   3   2 -11    0.53    0.50
   3   2 -11    0.92    0.37
  -3  -2  11    0.96    0.56
  -3  -2  11    0.51    0.48
  -3  -2  11    0.88    0.44
  -3  -2  11    0.42    0.48
  -3  -2  11    1.13    0.50
   2   2 -11    0.06    0.36
   2   2 -11    0.19    0.39
   2   2 -11   -0.45    0.21
   2   2 -11   -0.68    0.31
   2   2 -11    0.10    0.44
  -2  -2  11   -0.05    0.42
  -2  -2  11    0.01    0.47
  -2  -2  11   -0.12    0.37
  -2  -2  11    0.04    0.35
  -2  -2  11    0.31    0.40
   1   2 -11   -0.09    0.22
   1   2 -11   -0.57    0.30
   1   2 -11    0.09    0.36
   1   2 -11    0.10    0.34
   1   2 -11   -0.27    0.44
  -1  -2  11   -0.32    0.37
  -1  -2  11    0.05    0.39
  -1  -2  11   -0.56    0.32
  -1  -2  11    0.15    0.40
  -1  -2  11    0.03    0.32
   0   2 -11   -0.09    0.23
   0   2 -11    0.24    0.45
   0   2 -11    0.23    0.39
   0   2 -11    0.39    0.37
   0   2 -11    0.12    0.45
   0  -2  11   -0.18    0.41
   0  -2  11    0.14    0.39
   0  -2  11   -0.19    0.36
   0  -2  11    0.51    0.46
   0  -2  11    0.56    0.49
   0  -2  11    0.44    0.42
  -1   2 -11    0.38    0.49
  -1   2 -11    0.13    0.21
  -1   2 -11    0.57    0.38
  -1   2 -11   -0.03    0.38
   1  -2  11   -0.69    0.31
   1  -2  11    0.21    0.45
   1  -2  11    0.21    0.45
   1  -2  11    0.50    0.40
   1  -2  11    0.25    0.37
   3   1 -11   -0.07    0.21
   3   1 -11    0.17    0.41
   3   1 -11   -0.25    0.32
   3   1 -11    0.32    0.46
  -3  -1  11    0.62    0.62
  -3  -1  11   -0.08    0.36
  -3  -1  11    0.77    0.51
  -3  -1  11    0.30    0.46
  -3  -1  11    0.22    0.43
   2   1 -11    0.50    0.46
   2   1 -11    0.63    0.54
   2   1 -11    0.08    0.30
   2   1 -11   -0.10    0.22
  -2  -1  11    0.62    0.46
  -2  -1  11   -0.12    0.47
  -2  -1  11   -0.56    0.35
  -2  -1  11   -0.06    0.31
  -2  -1  11   -0.12    0.42
   1   1 -11    0.36    0.38
   1   1 -11    1.04    0.58
   1   1 -11    0.96    0.33
   1   1 -11    0.38    0.40
  -1  -1  11    0.92    0.42
  -1  -1  11    0.91    0.46
  -1  -1  11    0.91    0.58
  -1  -1  11    0.91    0.59
  -1  -1  11    1.76    0.60
   0   1 -11   -0.11    0.25
   0   1 -11   -0.33    0.45
   0   1 -11    0.22    0.41
   0   1 -11    0.44    0.49
   0   1 -11    0.25    0.36
   0  -1  11    0.78    0.46
   0  -1  11   -0.07    0.37
   0  -1  11   -0.08    0.35
   0  -1  11   -0.09    0.39
   0  -1  11    0.10    0.38
   0  -1  11    0.78    0.50
   2   0 -11   -0.14    0.44
   2   0 -11   -0.50    0.30
  -2   0  11    0.35    0.50
  -2   0  11   -0.51    0.31
  -2   0  11   -0.20    0.46
  -2   0  11    0.09    0.38
   0   0   0    0.00    0.00
;
_shelx_hkl_checksum              46410
#END Tags that were not found in dictionaries
loop_
_space_group_symop_operation_xyz
'x, y, z'
'-x, -y, -z'
loop_
_atom_site_label
_atom_site_type_symbol
_atom_site_fract_x
_atom_site_fract_y
_atom_site_fract_z
_atom_site_U_iso_or_equiv
_atom_site_adp_type
_atom_site_occupancy
_atom_site_site_symmetry_order
_atom_site_calc_flag
_atom_site_refinement_flags_posn
_atom_site_refinement_flags_adp
O1 O 0.0154(2) 0.7476(2) 0.48294(17) 0.0585(5) Uani 1 1 d D .
H1O H 0.084(3) 0.827(3) 0.456(2) 0.070 Uiso 1 1 d D U
H2O H -0.011(3) 0.656(3) 0.415(2) 0.070 Uiso 1 1 d D U
N1 N 0.0860(3) -0.4385(2) 0.7495(2) 0.0610(6) Uani 1 1 d . .
N2 N 0.1011(2) -0.2897(2) 0.74103(19) 0.0530(5) Uani 1 1 d . .
H2N H 0.0870 -0.2748 0.6620 0.064 Uiso 1 1 calc R U
N3 N 0.7708(2) 0.8446(2) 0.59795(19) 0.0533(5) Uani 1 1 d . .
H3N H 0.8466 0.8148 0.5678 0.064 Uiso 1 1 calc R U
N4 N 0.7567(3) 0.9808(2) 0.5864(2) 0.0587(6) Uani 1 1 d . .
C1 C 0.1181(4) -0.4075(4) 0.8871(3) 0.0774(9) Uani 1 1 d . .
H1 H 0.1175 -0.4872 0.9259 0.093 Uiso 1 1 calc R U
C2 C 0.1524(4) -0.2425(3) 0.9658(3) 0.0750(8) Uani 1 1 d . .
H2 H 0.1785 -0.1911 1.0647 0.090 Uiso 1 1 calc R U
C3 C 0.1403(3) -0.1685(3) 0.8690(2) 0.0506(6) Uani 1 1 d . .
C4 C 0.1665(3) 0.0069(3) 0.8846(2) 0.0573(7) Uani 1 1 d . .
H4B H 0.1838 0.0726 0.9847 0.069 Uiso 1 1 calc R U
H4A H 0.0638 -0.0016 0.8342 0.069 Uiso 1 1 calc R U
C5 C 0.3181(3) 0.1027(3) 0.8282(3) 0.0553(6) Uani 1 1 d . .
H5B H 0.4223 0.1258 0.8880 0.066 Uiso 1 1 calc R U
H5A H 0.3095 0.0289 0.7329 0.066 Uiso 1 1 calc R U
C6 C 0.3327(3) 0.2700(3) 0.8224(2) 0.0547(6) Uani 1 1 d . .
H6A H 0.3417 0.3445 0.9175 0.066 Uiso 1 1 calc R U
H6B H 0.2292 0.2476 0.7620 0.066 Uiso 1 1 calc R U
C7 C 0.4852(3) 0.3617(3) 0.7662(2) 0.0539(6) Uani 1 1 d . .
H7B H 0.5888 0.3926 0.8315 0.065 Uiso 1 1 calc R U
H7A H 0.4814 0.2829 0.6751 0.065 Uiso 1 1 calc R U
C8 C 0.4949(3) 0.5216(3) 0.7468(2) 0.0516(6) Uani 1 1 d . .
H8A H 0.3905 0.4919 0.6831 0.062 Uiso 1 1 calc R U
H8B H 0.5024 0.6024 0.8382 0.062 Uiso 1 1 calc R U
C9 C 0.6459(3) 0.6068(3) 0.6869(3) 0.0579(6) Uani 1 1 d . .
H9B H 0.7502 0.6403 0.7526 0.070 Uiso 1 1 calc R U
H9A H 0.6408 0.5241 0.5976 0.070 Uiso 1 1 calc R U
C10 C 0.6543(3) 0.7607(3) 0.6613(2) 0.0498(6) Uani 1 1 d . .
C11 C 0.5593(3) 0.8474(3) 0.6925(3) 0.0665(7) Uani 1 1 d . .
H11 H 0.4674 0.8213 0.7369 0.080 Uiso 1 1 calc R U
C12 C 0.6271(4) 0.9813(3) 0.6449(3) 0.0663(7) Uani 1 1 d . .
H12 H 0.5867 1.0618 0.6529 0.080 Uiso 1 1 calc R U
loop_
_atom_site_aniso_label
_atom_site_aniso_U_11
_atom_site_aniso_U_22
_atom_site_aniso_U_33
_atom_site_aniso_U_23
_atom_site_aniso_U_13
_atom_site_aniso_U_12
O1 0.0722(12) 0.0425(10) 0.0636(11) 0.0228(8) 0.0257(9) 0.0247(9)
N1 0.0702(14) 0.0431(12) 0.0740(14) 0.0271(10) 0.0256(11) 0.0242(10)
N2 0.0602(12) 0.0438(11) 0.0571(12) 0.0245(10) 0.0183(9) 0.0204(10)
N3 0.0541(12) 0.0453(12) 0.0674(12) 0.0251(10) 0.0216(9) 0.0246(10)
N4 0.0727(14) 0.0441(12) 0.0667(13) 0.0263(10) 0.0216(11) 0.0283(11)
C1 0.116(2) 0.0613(18) 0.0762(19) 0.0412(15) 0.0345(17) 0.0461(17)
C2 0.114(2) 0.0573(17) 0.0573(15) 0.0263(14) 0.0230(15) 0.0376(16)
C3 0.0532(14) 0.0413(13) 0.0538(13) 0.0170(11) 0.0181(11) 0.0178(11)
C4 0.0639(16) 0.0441(14) 0.0623(14) 0.0193(12) 0.0233(12) 0.0219(12)
C5 0.0574(15) 0.0426(14) 0.0668(14) 0.0227(12) 0.0200(12) 0.0207(12)
C6 0.0615(15) 0.0430(13) 0.0594(14) 0.0208(11) 0.0152(12) 0.0217(12)
C7 0.0578(15) 0.0411(13) 0.0639(14) 0.0229(11) 0.0158(12) 0.0207(11)
C8 0.0569(14) 0.0414(13) 0.0576(13) 0.0209(11) 0.0167(11) 0.0210(11)
C9 0.0585(15) 0.0456(14) 0.0751(16) 0.0267(12) 0.0203(12) 0.0245(12)
C10 0.0495(14) 0.0409(13) 0.0618(14) 0.0226(11) 0.0188(11) 0.0194(11)
C11 0.0715(17) 0.0579(16) 0.0931(19) 0.0413(15) 0.0417(15) 0.0374(14)
C12 0.0790(19) 0.0556(16) 0.0836(18) 0.0316(14) 0.0321(15) 0.0419(14)
loop_
_atom_type_symbol
_atom_type_description
_atom_type_scat_dispersion_real
_atom_type_scat_dispersion_imag
_atom_type_scat_source
C C 0.0033 0.0016 'International Tables Vol C Tables 4.2.6.8 and 6.1.1.4'
H H 0.0000 0.0000 'International Tables Vol C Tables 4.2.6.8 and 6.1.1.4'
N N 0.0061 0.0033 'International Tables Vol C Tables 4.2.6.8 and 6.1.1.4'
O O 0.0106 0.0060 'International Tables Vol C Tables 4.2.6.8 and 6.1.1.4'
loop_
_geom_angle_atom_site_label_1
_geom_angle_atom_site_label_2
_geom_angle_atom_site_label_3
_geom_angle
H1O O1 H2O 104(2)
C1 N1 N2 104.72(19)
C3 N2 N1 112.37(18)
C3 N2 H2N 123.8
N1 N2 H2N 123.8
C10 N3 N4 112.91(19)
C10 N3 H3N 123.5
N4 N3 H3N 123.5
C12 N4 N3 104.23(19)
N1 C1 C2 111.2(2)
N1 C1 H1 124.4
C2 C1 H1 124.4
C1 C2 C3 106.0(2)
C1 C2 H2 127.0
C3 C2 H2 127.0
N2 C3 C2 105.7(2)
N2 C3 C4 121.4(2)
C2 C3 C4 132.9(2)
C3 C4 C5 113.51(19)
C3 C4 H4B 108.9
C5 C4 H4B 108.9
C3 C4 H4A 108.9
C5 C4 H4A 108.9
H4B C4 H4A 107.7
C6 C5 C4 114.74(19)
C6 C5 H5B 108.6
C4 C5 H5B 108.6
C6 C5 H5A 108.6
C4 C5 H5A 108.6
H5B C5 H5A 107.6
C5 C6 C7 113.17(19)
C5 C6 H6A 108.9
C7 C6 H6A 108.9
C5 C6 H6B 108.9
C7 C6 H6B 108.9
H6A C6 H6B 107.8
C8 C7 C6 114.53(19)
C8 C7 H7B 108.6
C6 C7 H7B 108.6
C8 C7 H7A 108.6
C6 C7 H7A 108.6
H7B C7 H7A 107.6
C9 C8 C7 112.97(18)
C9 C8 H8A 109.0
C7 C8 H8A 109.0
C9 C8 H8B 109.0
C7 C8 H8B 109.0
H8A C8 H8B 107.8
C10 C9 C8 113.98(19)
C10 C9 H9B 108.8
C8 C9 H9B 108.8
C10 C9 H9A 108.8
C8 C9 H9A 108.8
H9B C9 H9A 107.7
N3 C10 C11 105.5(2)
N3 C10 C9 122.5(2)
C11 C10 C9 132.0(2)
C10 C11 C12 106.1(2)
C10 C11 H11 127.0
C12 C11 H11 127.0
N4 C12 C11 111.3(2)
N4 C12 H12 124.3
C11 C12 H12 124.3
loop_
_geom_bond_atom_site_label_1
_geom_bond_atom_site_label_2
_geom_bond_distance
O1 H1O 0.867(17)
O1 H2O 0.839(16)
N1 C1 1.317(3)
N1 N2 1.350(2)
N2 C3 1.332(3)
N2 H2N 0.8600
N3 C10 1.338(3)
N3 N4 1.347(2)
N3 H3N 0.8600
N4 C12 1.319(3)
C1 C2 1.371(4)
C1 H1 0.9300
C2 C3 1.373(3)
C2 H2 0.9300
C3 C4 1.488(3)
C4 C5 1.523(3)
C4 H4B 0.9700
C4 H4A 0.9700
C5 C6 1.510(3)
C5 H5B 0.9700
C5 H5A 0.9700
C6 C7 1.514(3)
C6 H6A 0.9700
C6 H6B 0.9700
C7 C8 1.512(3)
C7 H7B 0.9700
C7 H7A 0.9700
C8 C9 1.511(3)
C8 H8A 0.9700
C8 H8B 0.9700
C9 C10 1.489(3)
C9 H9B 0.9700
C9 H9A 0.9700
C10 C11 1.366(3)
C11 C12 1.379(3)
C11 H11 0.9300
C12 H12 0.9300
loop_
_geom_torsion_atom_site_label_1
_geom_torsion_atom_site_label_2
_geom_torsion_atom_site_label_3
_geom_torsion_atom_site_label_4
_geom_torsion
C1 N1 N2 C3 -0.4(3)
C10 N3 N4 C12 0.1(3)
N2 N1 C1 C2 0.3(3)
N1 C1 C2 C3 0.0(3)
N1 N2 C3 C2 0.4(3)
N1 N2 C3 C4 178.74(19)
C1 C2 C3 N2 -0.2(3)
C1 C2 C3 C4 -178.3(3)
N2 C3 C4 C5 -63.6(3)
C2 C3 C4 C5 114.2(3)
C3 C4 C5 C6 171.40(19)
C4 C5 C6 C7 179.82(19)
C5 C6 C7 C8 174.85(18)
C6 C7 C8 C9 -178.49(19)
C7 C8 C9 C10 177.67(19)
N4 N3 C10 C11 0.0(3)
N4 N3 C10 C9 -179.49(19)
C8 C9 C10 N3 -174.4(2)
C8 C9 C10 C11 6.2(4)
N3 C10 C11 C12 -0.2(3)
C9 C10 C11 C12 179.3(2)
N3 N4 C12 C11 -0.2(3)
C10 C11 C12 N4 0.2(3)
