#------------------------------------------------------------------------------
#$Date: 2016-03-26 22:57:29 +0200 (Sat, 26 Mar 2016) $
#$Revision: 180524 $
#$URL: svn://www.crystallography.net/cod/cif/7/21/93/7219317.cif $
#------------------------------------------------------------------------------
#
# This file is available in the Crystallography Open Database (COD),
# http://www.crystallography.net/
#
# All data on this site have been placed in the public domain by the
# contributors.
#
data_7219317
loop_
_publ_author_name
'Tarasevych, Arkadii V.'
'Sorochinsky, Alexander E.'
'Kukhar, Valery P.'
'Toupet, Lo\"ic'
'Crassous, Jeanne'
'Guillemin, Jean-Claude'
_publ_section_title
;
 Attrition-induced spontaneous chiral amplification of the \g polymorphic
 modification of glycine
;
_journal_issue                   7
_journal_name_full               CrystEngComm
_journal_page_first              1513
_journal_paper_doi               10.1039/C4CE02434F
_journal_volume                  17
_journal_year                    2015
_chemical_formula_sum            'C2 H5 N O2'
_chemical_formula_weight         75.07
_space_group_crystal_system      trigonal
_space_group_IT_number           144
_space_group_name_Hall           'P 31'
_space_group_name_H-M_alt        'P 31'
_symmetry_space_group_name_Hall  'P 31'
_symmetry_space_group_name_H-M   'P 31'
_atom_sites_solution_hydrogens   geom
_audit_block_doi                 10.5517/cc13tg5k
_audit_creation_method           SHELXL-2014/6
_audit_update_record
;
2014-12-03 deposited with the CCDC.
2015-01-06 downloaded from the CCDC.
;
_cell_angle_alpha                90
_cell_angle_beta                 90
_cell_angle_gamma                120
_cell_formula_units_Z            3
_cell_length_a                   7.0045(3)
_cell_length_b                   7.0045(3)
_cell_length_c                   5.4789(3)
_cell_measurement_reflns_used    2229
_cell_measurement_temperature    200(2)
_cell_measurement_theta_max      69.1690
_cell_measurement_theta_min      7.2680
_cell_volume                     232.797(19)
_computing_cell_refinement
;
CrysAlisPro, Agilent Technologies,
Version 1.171.37.34 (release 22-05-2014 CrysAlis171 .NET)
(compiled May 22 2014,16:03:01)
;
_computing_data_collection
;
CrysAlisPro, Agilent Technologies,
Version 1.171.37.34 (release 22-05-2014 CrysAlis171 .NET)
(compiled May 22 2014,16:03:01)
;
_computing_data_reduction
;
CrysAlisPro, Agilent Technologies,
Version 1.171.37.34 (release 22-05-2014 CrysAlis171 .NET)
(compiled May 22 2014,16:03:01)
;
_computing_molecular_graphics    'MERCURY 3.3(CCDC, 2014)'
_computing_publication_material  'WINGX (L.J. Farrugia, 2012)'
_computing_structure_refinement  'SHELXL-2014/6 (Sheldrick, 2014)'
_computing_structure_solution    'SIR-97_(Altomare & al., 1999)'
_diffrn_ambient_temperature      200(2)
_diffrn_detector                 'CCD plate'
_diffrn_detector_area_resol_mean 8.0662
_diffrn_detector_type            EosS2
_diffrn_measured_fraction_theta_full 0.562
_diffrn_measured_fraction_theta_max 1.000
_diffrn_measurement_device       'four-circle diffractometer'
_diffrn_measurement_device_type  'SuperNova, Single source at offset, EosS2'
_diffrn_radiation_monochromator  mirror
_diffrn_radiation_probe          x-ray
_diffrn_radiation_type           'Cu K\a'
_diffrn_radiation_wavelength     1.54184
_diffrn_reflns_av_R_equivalents  0.0336
_diffrn_reflns_av_unetI/netI     0.0193
_diffrn_reflns_Laue_measured_fraction_full 0.562
_diffrn_reflns_Laue_measured_fraction_max 1.000
_diffrn_reflns_limit_h_max       6
_diffrn_reflns_limit_h_min       -6
_diffrn_reflns_limit_k_max       6
_diffrn_reflns_limit_k_min       -6
_diffrn_reflns_limit_l_max       5
_diffrn_reflns_limit_l_min       -5
_diffrn_reflns_number            1728
_diffrn_reflns_point_group_measured_fraction_full 0.543
_diffrn_reflns_point_group_measured_fraction_max 0.965
_diffrn_reflns_theta_full        67.684
_diffrn_reflns_theta_max         49.718
_diffrn_reflns_theta_min         7.301
_diffrn_source                   'sealed X-ray tube'
_diffrn_source_type              'SuperNova (Cu) X-ray Source'
_exptl_absorpt_coefficient_mu    1.242
_exptl_absorpt_correction_T_max  1.00000
_exptl_absorpt_correction_T_min  0.55530
_exptl_absorpt_correction_type   multi-scan
_exptl_absorpt_process_details
;
CrysAlisPro, Agilent Technologies,
Version 1.171.37.34 (release 22-05-2014 CrysAlis171 .NET)
(compiled May 22 2014,16:03:01)
Empirical absorption correction using spherical harmonics,
 implemented in SCALE3 ABSPACK scaling algorithm.
;
_exptl_crystal_colour            colourless
_exptl_crystal_density_diffrn    1.606
_exptl_crystal_description       block
_exptl_crystal_F_000             120
_exptl_crystal_size_max          0.229
_exptl_crystal_size_mid          0.084
_exptl_crystal_size_min          0.068
_refine_diff_density_max         0.087
_refine_diff_density_min         -0.079
_refine_diff_density_rms         0.025
_refine_ls_abs_structure_details
;
 Flack x determined using 144 quotients [(I+)-(I-)]/[(I+)+(I-)]
 (Parsons, Flack and Wagner, Acta Cryst. B69 (2013) 249-259).
;
_refine_ls_abs_structure_Flack   0.1(2)
_refine_ls_extinction_coef       0.085(12)
_refine_ls_extinction_expression Fc^*^=kFc[1+0.001xFc^2^\l^3^/sin(2\q)]^-1/4^
_refine_ls_extinction_method     SHELXL
_refine_ls_goodness_of_fit_ref   1.229
_refine_ls_hydrogen_treatment    constr
_refine_ls_matrix_type           full
_refine_ls_number_parameters     47
_refine_ls_number_reflns         305
_refine_ls_number_restraints     1
_refine_ls_restrained_S_all      1.227
_refine_ls_R_factor_all          0.0184
_refine_ls_R_factor_gt           0.0181
_refine_ls_shift/su_max          0.000
_refine_ls_shift/su_mean         0.000
_refine_ls_structure_factor_coef Fsqd
_refine_ls_weighting_details
'w=1/[\s^2^(Fo^2^)+(0.0318P)^2^+0.0140P] where P=(Fo^2^+2Fc^2^)/3'
_refine_ls_weighting_scheme      calc
_refine_ls_wR_factor_gt          0.0522
_refine_ls_wR_factor_ref         0.0526
_reflns_Friedel_coverage         0.930
_reflns_Friedel_fraction_full    0.523
_reflns_Friedel_fraction_max     0.930
_reflns_number_gt                301
_reflns_number_total             305
_reflns_threshold_expression     'I > 2\s(I)'
_cod_data_source_file            c4ce02434f2.cif
_cod_data_source_block           shelx
_cod_depositor_comments
'Adding full bibliography for 7219316--7219319.cif.'
_cod_original_cell_volume        232.80(2)
_cod_database_code               7219317
#BEGIN Tags that were not found in dictionaries:
_shelx_space_group_comment
;
The symmetry employed for this shelxl refinement is uniquely defined
by the following loop, which should always be used as a source of
symmetry information in preference to the above space-group names.
They are only intended as comments.
;
_shelxl_version_number           2014/6
_shelx_res_file
;
TITL test structure: gly_h_cu_200k
CELL  1.54184   7.0045   7.0045   5.4789   90.000   90.000  120.000
ZERR     3.00   0.0003   0.0003   0.0003    0.000    0.000    0.000
LATT  -1
SYMM  - Y,   X - Y, 1/3 + Z
SYMM  - X + Y, - X, 2/3 + Z
SFAC  C    H    N    O
UNIT  6    15   3    6
MERG   2
OMIT    -4.00 100.00
FMAP   2
PLAN   45
ACTA
BOND   $H
CONF
LIST   4
WPDB  -2
L.S.   18
TEMP   -73.00
WGHT    0.031800    0.014000
EXTI    0.085408
FVAR      28.80567
O1    4   -0.012194    0.766790    0.689909    11.00000    0.02634    0.01736 =
         0.01393    0.00236    0.00118    0.01303
O2    4    0.001412    0.456913    0.657516    11.00000    0.03872    0.02133 =
         0.01644   -0.00215    0.00328    0.01725
N1    3   -0.028866    0.754543    1.178195    11.00000    0.01799    0.01642 =
         0.01142    0.00101   -0.00132    0.00900
AFIX  33
H1A   2   -0.012450    0.746901    1.342041    11.00000   -1.50000
H1B   2    0.063365    0.894491    1.125580    11.00000   -1.50000
H1C   2   -0.170733    0.716756    1.144737    11.00000   -1.50000
AFIX   0
C1    1    0.000347    0.607423    0.778461    11.00000    0.01295    0.01787 =
         0.01508    0.00096    0.00252    0.00573
C2    1    0.024829    0.601758    1.052481    11.00000    0.02280    0.02062 =
         0.01773   -0.00020    0.00019    0.01459
AFIX  23
H2A   2   -0.073916    0.450094    1.112444    11.00000   -1.20000
H2B   2    0.178314    0.641595    1.091803    11.00000   -1.20000
AFIX   0
HKLF    4

REM  test structure: gly_h_cu_200k
REM R1 =  0.0181 for     301 Fo > 4sig(Fo)  and  0.0184 for all     305 data
REM     47 parameters refined using      1 restraints

END

WGHT      0.0325      0.0122

REM Highest difference peak  0.087,  deepest hole -0.079,  1-sigma level  0.025
Q1    1   0.0622  0.5024  1.1533  11.00000  0.05    0.09
Q2    1  -0.2411  0.4354  1.0729  11.00000  0.05    0.07
Q3    1   0.2838  0.9039  0.9544  11.00000  0.05    0.06
Q4    1  -0.2934  0.3952  0.7515  11.00000  0.05    0.06
Q5    1  -0.0448  0.8419  0.5708  11.00000  0.05    0.05
Q6    1  -0.0111  0.8812  0.8295  11.00000  0.05    0.05
Q7    1  -0.0428  0.3752  0.4495  11.00000  0.05    0.05
Q8    1   0.2056  0.5890  1.3228  11.00000  0.05    0.05
Q9    1  -0.0245  0.3412  1.0035  11.00000  0.05    0.05
Q10   1  -0.1236  0.7899  0.8035  11.00000  0.05    0.05
Q11   1   0.0914  0.4677  0.5953  11.00000  0.05    0.04
Q12   1  -0.2039  0.2901  0.6085  11.00000  0.05    0.04
Q13   1  -0.2313  0.2844  0.9977  11.00000  0.05    0.04
Q14   1  -0.2058  0.8696  1.1959  11.00000  0.05    0.04
Q15   1  -0.1538  0.6653  0.5315  11.00000  0.05    0.04
Q16   1  -0.0923  0.8369  1.0441  11.00000  0.05    0.04
Q17   1  -0.0416  0.8951  1.3800  11.00000  0.05    0.04
Q18   1  -0.1176  0.5055  1.3164  11.00000  0.05    0.04
Q19   1   0.2020  0.9106  0.7533  11.00000  0.05    0.03
Q20   1   0.0285  0.3755  0.7646  11.00000  0.05    0.03
Q21   1   0.3347  0.6100  1.0452  11.00000  0.05    0.03
Q22   1   0.1928  0.7818  1.3649  11.00000  0.05    0.03
Q23   1  -0.1477  0.7165  1.3098  11.00000  0.05    0.02
Q24   1  -0.1004  0.5835  0.8660  11.00000  0.05    0.01
;
_shelx_res_checksum              56755
_shelx_hkl_file
;
   0   0  -4 122.238 88.6575  52
   0   0  -3 367837. 10747.4  55
   0   0  -2 40.4134 42.4957   1
   0   0  -2-21.0796 38.1605   3
   0   0  -1 60.4028 40.7710   1
   0   0   1 5.25976 23.1141  51
   0   0   2-34.7592 63.5305  66
   0   0   2 11.6893 67.5630  49
   0   0   3 341717. 10397.0  66
   0   0   3 346899. 10329.1  49
   0   0   4-44.0740 138.854  66
   0   0   5 243.216 174.419  35
   0   0   5-25.5578 122.637  36
   0   0   5 5.77882 119.905  34
   0   0   5 21.2397 160.795  48
   0   0   6 62960.7 2928.58  48
   0   0   6 65827.8 2796.02  36
   0   0   6 66543.0 2805.13  34
  -1   0  -5 3322.03 521.673   5
   0   1  -4 20065.0 1185.94  55
   1  -1  -4 18583.2 1127.46   4
  -1   0  -4 18247.0 1310.11  65
  -1   0  -3 15163.6 824.262  55
   0   1  -3 14666.5 859.852  53
   1  -1  -3 17089.2 993.449  52
   1  -1  -2 855678. 25237.7  52
  -1   0  -2 922692. 25034.7  54
  -1   0  -2 915531. 25328.8   3
   0   1  -2 894962. 25182.4  53
   0   1  -2 905769. 25143.6  51
  -1   0  -2 878342. 25115.6  55
   0   1  -1 152689. 4629.54  53
  -1   0  -1 159539. 4756.70   3
   1  -1  -1 163951. 4637.38   4
  -1   0   0 21368.1 820.681   3
   1  -1   0 19360.2 871.523   2
   0   1   1 265463. 7431.48  67
   1  -1   1 264009. 7431.65  49
   1  -1   1 243932. 7436.22  63
   0   1   1 253603. 7378.96   3
  -1   0   1 253545. 7361.99  50
  -1   0   2 23895.7 1073.34  66
   1  -1   2 23484.4 1110.04  49
   1  -1   2 24243.8 1106.79  66
  -1   0   2 24639.6 996.035  50
   1  -1   2 22714.0 1148.48  63
   0   1   2 23543.8 1122.48  66
   1  -1   3 6309.19 596.853  49
   1  -1   3 6604.34 617.242  66
  -1   0   3 6361.15 599.305  66
   0   1   3 5663.06 597.339  66
   0   1   4 41659.0 2200.07  66
   1  -1   4 45368.9 2245.10  66
  -1   0   4 46142.4 2207.91  66
   0   1   5 29932.5 1908.29  34
   1  -1   5 30949.3 1949.48  34
   1  -1   5 31369.2 1989.56  36
  -1   0   5 33359.4 1780.71  35
  -1   0   5 28402.3 1942.55  36
   1  -1   5 32198.5 1830.74  35
   0   1   5 28665.0 2021.88  48
  -1   0   5 30824.2 2072.95  48
   0   1   6 15725.8 1121.39  34
   1  -1   6 13514.7 1075.95  34
  -1   0   6 12577.5 1050.05  36
   0   1   6 14798.4 1197.11  48
  -1   1  -4 43111.2 1991.02  55
   0  -1  -4 48981.7 2095.74   5
   1   0  -4 46792.5 2095.80  53
  -1   1  -3 6195.50 515.945  55
  -1   1  -3 5366.47 522.125  65
   0  -1  -3 6883.97 622.638  52
   1   0  -3 7437.75 578.592  52
  -1   1  -2 21042.1 1016.09  65
   1   0  -2 26212.6 1023.79  52
  -1   1  -2 23856.9 912.768  53
   0  -1  -2 23003.8 965.670  62
  -1   1  -2 24346.4 1012.21  55
   0  -1  -2 23470.4 877.067  55
   1   0  -2 24892.1 1063.27   2
   0  -1  -2 26412.6 1128.97  52
  -1   1  -1 261785. 7324.15  55
   1   0  -1 242509. 7345.35   2
   0  -1  -1 263445. 7371.80  52
   1   0  -1 258377. 7225.89  52
  -1   1  -1 251682. 7195.28  53
   0  -1  -1 258963. 7512.31   1
  -1   1  -1 261532. 7407.44  51
   0  -1   0 21786.4 766.277   1
  -1   1   0 22040.8 889.799   2
   1   0   0 21047.3 801.396   3
   0  -1   1 156599. 4757.49  63
  -1   1   1 150433. 4701.09  67
   0  -1   1 166260. 4650.72  50
   1   0   1 163687. 4786.43  49
  -1   1   1 153573. 4753.13   1
   0  -1   2 870159. 24885.6  50
   0  -1   2 864076. 24960.3  49
   1   0   2 910841. 25028.0  51
  -1   1   2 880296. 25169.0  66
   0  -1   2 880676. 25117.1  66
  -1   1   2 835786. 24840.7  50
   0  -1   2 873985. 25249.9  63
   1   0   2 915875. 25119.0  66
   1   0   2 915437. 25266.4  49
  -1   1   3 13471.6 941.738  66
   1   0   3 14759.6 1010.72  49
   0  -1   3 13738.7 927.085  66
   1   0   3 14114.4 932.019  66
  -1   1   4 17505.1 1281.75  66
   1   0   4 19412.0 1344.38  49
   0  -1   4 19253.1 1326.34  66
   1   0   4 20437.4 1346.50  66
   0  -1   5 4174.03 671.207  36
   1   0   5 3488.20 603.514  34
  -1   1   5 3509.07 572.120  34
   0  -1   5 4066.19 684.567  48
  -1   1   5 3006.46 620.914  48
   1   0   5 3780.97 624.630  48
   0  -1   5 3607.39 552.301  35
   0  -1   5 3313.40 547.791  34
  -1   1   5 3539.33 605.590  36
  -1   1   6 7720.15 877.898  48
   0  -1   6 9311.61 897.443  36
   1   0   6 7360.47 779.828  34
   1  -2  -4 70777.4 2820.86   4
  -2   1  -4 71789.3 3046.01  65
   1  -2  -3 203005. 6078.76   4
   1   1  -3 178897. 5829.95  57
  -2   1  -3 179154. 5713.29  54
   1  -2  -3 176687. 5824.66  62
  -2   1  -3 191125. 6157.79  65
   1   1  -3 186085. 5928.07  53
   1  -2  -3 188914. 5752.63   5
   1   1  -2 269359. 8135.62  57
  -2   1  -2 285901. 8088.52  54
   1  -2  -2 263708. 8024.37   5
   1  -2  -2 271810. 8156.16  62
  -2   1  -2 285245. 8384.86  65
   1   1  -2 272031. 8183.68  53
   1  -2  -2 287031. 8218.99   4
   1  -2  -1 38368.7 1410.30  62
  -2   1  -1 37304.5 1514.49  65
   1   1  -1 41765.9 1446.08  57
   1  -2  -1 41099.3 1439.57   6
  -2   1  -1 38462.4 1417.90  54
   1  -2  -1 38966.7 1431.07   4
   1   1  -1 38078.7 1501.48  58
   1  -2   0 888693. 26003.1   6
   1  -2   0 967005. 26187.6   2
  -2   1   0 907273. 26048.6  54
  -2   1   0 883249. 26279.1   2
   1   1   0 987363. 26025.0  58
   1  -2   0 931641. 25957.3  62
   1   1   1 149406. 4405.83  49
   1   1   1 138501. 4346.97   3
   1   1   1 144536. 4137.03  64
   1   1   1 140425. 4155.02  67
   1  -2   1 136828. 4423.36  60
  -2   1   1 133364. 4133.86  67
  -2   1   1 131774. 4024.20   3
  -2   1   2 7555.98 555.678  66
   1  -2   2 8824.36 707.586  63
  -2   1   2 7897.06 593.817   1
   1  -2   2 8754.63 607.870  49
  -2   1   2 8014.97 541.680  50
   1   1   2 7653.14 561.532  66
   1   1   2 8251.74 684.692  49
  -2   1   3 29325.0 1512.89  66
   1   1   3 31404.2 1715.45  49
   1  -2   3 32078.2 1775.34  63
   1   1   3 30276.1 1541.58  66
   1   1   4 62577.7 2868.71  34
   1   1   4 55834.7 2865.62  48
   1  -2   4 61053.5 2861.44  34
   1  -2   4 55940.7 2583.58  35
   1  -2   4 66624.9 3018.85  36
  -2   1   4 55176.2 2600.89  66
  -2   1   4 58839.9 2955.50  36
   1   1   4 56715.3 2644.73  66
  -2   1   4 55977.2 2922.40  48
  -2   1   5 10092.6 1089.27  36
   1   1   5 10368.2 1054.55  34
   1  -2   5 12093.2 1182.70  36
  -2   1   5 11857.1 1226.02  48
   1  -2   5 12035.9 1128.31  34
   1  -2   5 11731.3 1014.75  35
   1   1   5 8135.31 991.687  48
   1  -2   6 2794.30 434.177  34
   1   1   6 2687.77 439.245  34
  -2   1   6 2612.65 431.779  36
   1   1   6 1952.30 372.387  48
  -2   1   6 2301.29 445.257  48
   2  -3  -4 67042.8 2816.79   4
  -3   1  -4 69839.2 3158.60  65
   2  -3  -3 1580.08 334.857   4
   1   2  -3 2004.72 379.218  58
   2  -3  -3 2222.36 364.672  62
  -3   1  -3 2897.94 531.199  65
   1   2  -3 1864.58 340.302  57
   1   2  -2 44767.0 1824.76  57
   2  -3  -2 41138.5 1764.24  62
   1   2  -2 43572.3 1957.26  58
  -3   1  -2 40125.1 1962.19  65
  -3   1  -2 41420.7 1727.63  54
   2  -3  -2 37725.6 1713.45   4
   2  -3  -1 72760.8 2563.82   6
  -3   1  -1 69605.2 2636.02  54
   1   2  -1 74452.6 2703.39  58
   2  -3  -1 74570.0 2589.32  62
  -3   1  -1 78636.5 2547.86  50
  -3   1  -1 81503.8 2807.35  65
  -3   1   0 338440. 10407.2  54
   1   2   0 369483. 10260.9  58
   2  -3   0 368521. 10216.6  62
   1   2   0 335447. 10158.4  59
  -3   1   0 360937. 10300.7  50
   2  -3   0 335268. 10278.7   6
   1   2   1 17916.2 887.113  67
  -3   1   1 18241.2 970.636  50
   1   2   1 16802.9 827.563  64
   2  -3   1 17566.4 1108.50  60
   1   2   2 64425.5 2281.29  64
   2  -3   2 65043.9 2560.56  49
  -3   1   2 60125.4 2411.17  50
   2  -3   2 64774.6 2741.28  63
   1   2   2 59358.8 2367.54  66
   2  -3   3 73271.8 3116.29  49
   1   2   3 71249.1 2933.62  66
   2  -3   3 80573.9 3393.66  63
   1   2   4 49828.2 2475.10  66
   2  -3   4 52738.0 2472.06  35
  -3   1   4 56123.4 2998.65  36
   2  -3   4 57411.6 2868.97  34
   1   2   4 60019.0 2845.84  34
   1   2   4 51557.9 2661.70  31
  -3   1   4 54174.6 2859.71  48
   1   2   4 54128.1 2927.10  48
  -3   1   5 11151.1 1173.91  36
   1   2   5 10583.9 1140.17  48
   2  -3   5 13552.2 1222.75  34
  -3   1   5 13702.3 1275.67  48
   1   2   5 13099.9 1170.07  34
   2  -3   5 12156.4 985.440  35
   1   2   6 55754.6 2385.18  48
   2  -3   6 61122.9 2458.37  34
  -3   1   6 60772.3 2519.94  36
   2  -2  -4 11726.2 963.753  62
  -2   0  -4 12551.1 1126.53  65
   2  -2  -4 10387.8 832.731   4
   0   2  -4 11286.4 924.769  57
  -2   0  -3 71766.2 3018.74  65
   0   2  -3 74998.2 2902.82  57
   2  -2  -3 76380.0 2810.18   4
   2  -2  -3 77387.2 2972.62  62
   2  -2  -2 490622. 13538.8  62
  -2   0  -2 453606. 13557.9  65
   2  -2  -2 436748. 13277.2   4
   0   2  -2 471522. 13419.1  57
   2  -2  -1 94484.4 3014.09  62
   0   2  -1 95178.8 2977.87  57
  -2   0  -1 93712.7 3089.73  65
  -2   0  -1 90394.6 2818.76  50
  -2   0  -1 88049.3 3127.49   3
   2  -2  -1 86728.4 3253.02   2
  -2   0  -1 86871.1 2878.53  54
   2  -2   0 294295. 8239.39  61
   0   2   0 289185. 8241.61  56
  -2   0   0 306468. 8399.96  65
  -2   0   0 277002. 8425.52  54
   0   2   0 276286. 8281.67  58
  -2   0   0 288659. 8367.58  50
   2  -2   0 283197. 8286.16  62
  -2   0   1 95363.7 3074.57   2
   0   2   1 94969.5 3075.72  67
   0   2   1 89629.4 2850.09  64
   2  -2   1 94327.3 3139.88  60
  -2   0   1 92132.4 3064.73  50
   2  -2   2 91243.8 3198.82  49
  -2   0   2 84584.2 2888.93  66
  -2   0   2 89630.4 3045.53  50
   2  -2   2 85751.3 3190.29  63
   0   2   2 87941.6 3144.44  67
  -2   0   3 66805.4 2604.43  66
   2  -2   3 66057.0 2837.60  49
   0   2   3 68548.6 2821.66  66
   2  -2   3 69483.2 2936.05  63
   0   2   4 215440. 7142.31  34
   0   2   4 203859. 7333.39  48
  -2   0   4 193004. 7213.36  36
   2  -2   4 193249. 6997.74  34
   0   2   4 190464. 6857.11  66
  -2   0   4 203662. 7279.88  48
   2  -2   4 192630. 6635.63  35
   0   2   4 200057. 6871.58  31
  -2   0   4 191336. 6631.78  66
  -2   0   5 5380.97 782.356  36
  -2   0   5 5636.14 823.610  48
   0   2   5 5808.85 782.282  34
   2  -2   5 5108.40 652.613  35
   0   2   5 5170.95 816.267  48
   2  -2   5 6410.37 826.531  34
   0   2   6 2247.39 438.695  48
  -2   0   6 2135.34 392.583  36
   2  -2   6 2192.94 390.948  34
   2  -1  -4 56280.8 2713.84  62
  -1  -1  -4 53427.0 2700.11  65
  -1   2  -4 62138.6 2481.15  54
  -1  -1  -4 61610.6 2554.65   5
   2  -1  -3 30131.8 1527.00  59
  -1   2  -3 32784.1 1503.10  55
  -1  -1  -3 31112.9 1561.00  52
   2  -1  -2 7813.73 484.824   4
  -1  -1  -2 8879.99 593.680  52
  -1   2  -2 8796.69 567.415  55
   2  -1  -2 7378.64 646.511   2
   2  -1  -2 7946.28 580.901  59
  -1   2  -1 145745. 4485.22   2
  -1   2  -1 140821. 4407.32  55
   2  -1  -1 141314. 4503.91  59
  -1  -1  -1 158927. 4439.48  52
  -1  -1  -1 153651. 4459.13   5
   2  -1   0 951874. 25892.4  51
  -1   2   0 906010. 25742.7  54
  -1   2   0 870884. 25660.3  55
  -1  -1   0 886546. 25913.0  50
  -1   2   1 41082.6 1610.19   1
  -1  -1   1 41599.7 1527.98  50
   2  -1   1 40968.3 1577.42  49
   2  -1   1 37482.8 1421.34  63
  -1   2   1 40348.9 1574.87  67
  -1  -1   1 40342.1 1453.86  63
   2  -1   1 37855.5 1512.98  51
   2  -1   2 289416. 8273.68  66
  -1   2   2 274373. 8428.11  67
  -1  -1   2 279844. 8210.62  50
   2  -1   2 266647. 8293.39  63
   2  -1   2 277307. 8458.11  49
  -1  -1   2 279277. 8367.73  63
  -1  -1   2 268997. 8183.52  66
  -1   2   3 182133. 6160.60  66
   2  -1   3 175061. 6147.31  49
   2  -1   3 189781. 6016.81  66
  -1  -1   3 189666. 6002.25  66
  -1  -1   4 68056.2 2903.16  35
   2  -1   4 62580.0 3014.43  49
  -1   2   4 66334.6 3077.30  66
  -1   2   4 65340.3 3277.43  48
  -1   2   4 77610.3 3285.35  34
   2  -1   4 69275.5 2907.72  35
  -1  -1   4 67342.7 3253.70  36
   2  -1   4 65846.6 3098.22  34
  -1  -1   4 77672.3 3462.76  48
  -1  -1   5 24754.2 1795.33  48
  -1  -1   5 22279.4 1460.09  35
   2  -1   5 20683.1 1570.45  34
  -1   2   5 22335.2 1776.09  48
  -1  -1   5 21844.7 1690.43  36
  -1   2   5 23135.0 1617.44  34
   2  -1   6 20723.2 1347.41  34
  -1   2   6 21448.8 1488.57  48
  -1  -1   6 20002.5 1364.32  36
   0  -2  -4 191934. 6193.43   5
   2   0  -4 182210. 6444.57  59
  -2   2  -4 185952. 6088.35  54
   2   0  -3 65644.0 2580.70  53
  -2   2  -3 65511.0 2476.33  54
   0  -2  -3 67921.1 2551.98   5
   2   0  -3 66886.4 2585.15  58
  -2   2  -3 64306.6 2510.90  55
  -2   2  -2 90881.5 2976.56  55
   2   0  -2 90794.7 3062.61  58
  -2   2  -2 83937.8 2998.72  65
   0  -2  -2 87486.5 2985.26   5
   2   0  -2 90627.6 3019.78  53
  -2   2  -2 88850.0 2955.10  54
  -2   2  -1 95605.1 2889.98  65
  -2   2  -1 92342.4 2906.93  54
  -2   2  -1 86282.0 3025.46  51
   0  -2  -1 93134.7 2810.70  62
   0  -2  -1 84111.3 2879.68   5
   2   0  -1 94527.9 2900.34   3
  -2   2  -1 82626.6 3145.21   2
   0  -2  -1 86868.1 3099.93   1
   2   0  -1 88961.5 3053.69  59
   2   0  -1 94541.5 2932.39  53
   2   0  -1 96071.1 2985.04  58
  -2   2   0 306388. 8800.83   2
   0  -2   0 284113. 8500.79   6
   2   0   0 299158. 8321.87  64
   2   0   0 289523. 8536.56   3
  -2   2   0 286423. 8439.96  54
   2   0   0 295723. 8494.25  59
  -2   2   0 285298. 8459.45  51
   2   0   0 289763. 8415.07  49
  -2   2   1 88189.0 2743.87  56
  -2   2   1 96558.1 3092.62  67
   2   0   1 91229.2 3107.74  49
   0  -2   1 95888.8 3146.65  60
   2   0   1 91917.6 2865.78  61
  -2   2   1 90436.4 3029.35  54
   2   0   1 98590.2 2907.12  64
  -2   2   1 86494.3 2788.67  51
   0  -2   1 102765. 3056.35  50
  -2   2   2 471611. 14007.8  67
   2   0   2 479327. 13749.0  66
   0  -2   2 479034. 14114.7  63
   2   0   2 485368. 14129.5  49
   0  -2   3 80538.1 3306.91  63
  -2   2   3 82047.0 3168.89  66
   2   0   3 78924.0 2952.94  66
   2   0   3 76895.9 3221.07  49
  -2   2   4 13146.5 1245.53  48
   2   0   4 14151.2 1086.08  33
  -2   2   4 11455.6 1087.54  36
   0  -2   4 11746.0 1135.94  36
  -2   2   4 11419.1 1052.45  66
   2   0   4 11420.7 957.853  66
   2   0   4 11595.4 1070.05  32
   2   0   4 13534.3 1160.03  34
   0  -2   4 12753.2 1052.25  35
   2   0   4 11331.4 1105.79  49
   2   0   5 13630.8 1219.56  34
   0  -2   5 12284.2 1068.71  35
  -2   2   5 13999.9 1334.72  48
   0  -2   5 12100.1 1207.53  36
   2   0   6 12269.6 976.121  34
   0  -2   6 12660.3 907.793  35
  -2   2   6 12288.9 1066.34  48
   1  -3  -4 42101.7 2138.97   4
   2   1  -4 36150.1 2060.51  59
  -3   2  -3 10911.1 828.630  54
   2   1  -3 12748.0 981.813  58
  -3   2  -3 14459.0 1074.99  65
   1  -3  -3 12399.7 961.520   4
  -3   2  -2 25142.1 1281.34  54
  -3   2  -2 29642.7 1449.23  65
   1  -3  -2 28145.6 1349.05   6
   2   1  -2 27584.1 1417.23  58
   1  -3  -2 26734.8 1213.44  62
   1  -3  -2 26695.6 1324.98   4
   2   1  -1 158527. 5366.47   3
   1  -3  -1 180315. 5238.86  62
   1  -3  -1 170210. 5347.46   6
   2   1  -1 172842. 5482.36  59
  -3   2  -1 163572. 5315.29  54
  -3   2  -1 186991. 5390.19  65
   2   1  -1 176010. 5407.06  58
   1  -3  -1 161239. 5233.17   4
   2   1   0 527874. 14638.2  64
   1  -3   0 477320. 14922.6   2
  -3   2   0 534101. 14909.2  54
   1  -3   0 506647. 14876.2   6
   2   1   0 518393. 14760.5  59
  -3   2   1 48934.2 2050.91  54
   2   1   1 47816.5 1765.53  64
   1  -3   1 50652.0 2196.76  60
  -3   2   1 47085.1 1793.51  67
   2   1   1 48736.3 1976.81  49
   1  -3   2 7095.90 752.679  63
   1  -3   2 7161.04 620.006  49
  -3   2   2 6475.95 566.384  66
  -3   2   2 6819.22 575.243  50
   2   1   2 6285.24 664.056  49
  -3   2   3 32989.4 1674.98  66
   1  -3   3 33936.2 2005.81  63
   2   1   3 30995.7 1865.37  49
  -3   2   4 47954.3 2687.74  36
  -3   2   4 44363.7 2273.93  37
   2   1   4 51880.1 2575.56  34
   2   1   4 47902.4 2488.22  31
   1  -3   4 55383.8 2761.17  36
  -3   2   4 46789.5 2595.63  48
   1  -3   4 47104.9 2337.64  35
  -3   2   4 42806.3 2262.36  66
   1  -3   4 51857.2 2622.22  34
   2   1   4 51575.5 2599.08  32
  -3   2   5 30646.1 1978.90  48
   1  -3   5 30820.0 1870.19  34
   1  -3   5 29351.2 1706.06  35
  -3   2   5 29022.7 1901.75  36
   2   1   5 30653.9 1897.50  34
   2   1   6 76820.8 2888.67  34
   1  -3   6 79011.6 2769.90  35
  -4   2  -3 38465.2 2015.88  65
   2  -4  -3 33177.1 1622.52  62
   2   2  -3 35389.6 1938.46  58
   2  -4  -2 76095.6 2838.04  62
   2   2  -2 78711.2 3113.60  58
   2  -4  -2 72075.5 2878.54   6
  -4   2  -2 69782.3 2930.05  54
   2   2  -1 98469.2 3618.46  59
   2   2  -1 104840. 3627.25  58
  -4   2  -1 106291. 3641.25  65
  -4   2  -1 96037.8 3609.68  54
  -4   2  -1 99990.0 3447.06  50
   2  -4  -1 100482. 3436.59  62
   2  -4  -1 92086.9 3511.80   6
   2  -4   0 5857.60 600.727   6
   2   2   0 5589.19 472.482  64
  -4   2   0 6091.52 637.436  54
  -4   2   1 6975.18 639.917  50
   2  -4   1 6727.55 776.222  60
   2   2   1 6227.33 515.834  64
  -4   2   2 19852.4 1241.77  50
   2   2   2 20498.9 1128.98  64
   2  -4   2 20713.3 1518.37  63
   2  -4   3 15216.2 1102.04  47
   2   2   3 16370.1 1236.39  34
   2  -4   3 14231.4 1342.24  63
  -4   2   3 15104.3 1203.46  41
   2   2   3 19386.8 1566.05  12
  -4   2   3 13012.5 1110.77  37
   2  -4   3 14228.1 1321.89   8
   2   2   3 14472.1 1104.98  30
   2   2   3 16315.7 1325.46  32
   2  -4   3 13855.3 1046.00  35
  -4   2   3 15739.3 1130.50  50
   2  -4   3 16112.7 1130.08  39
   2   2   3 13664.7 1202.50  31
   2   2   4 143342. 5649.15  48
  -4   2   4 146469. 5414.41  41
   2   2   4 146070. 5513.99  31
   2  -4   4 145732. 5685.43  34
  -4   2   4 153750. 5395.54  37
   2  -4   4 137099. 5155.01  35
   2   2   4 160203. 5607.98  34
  -4   2   4 136221. 5794.89  36
  -4   2   5 11236.9 1128.51  36
   2   2   5 13780.3 1070.46  31
   2  -4   5 13083.8 1117.27  34
   2   2   5 12498.3 1054.67  34
   2   2   5 11801.3 1027.91  48
   2  -4   5 11936.9 915.831  35
  -5   2  -5 727.030 201.079  28
   3  -5  -3 18766.6 1344.53  46
  -5   2  -3 20398.6 1434.34  65
   3  -5  -3 17268.1 1173.34  62
   2   3  -3 17981.9 1438.07  59
   2   3  -3 17318.1 1333.90  58
   3  -5  -2 70130.1 3089.96  24
   3  -5  -2 75525.8 3243.40  46
   2   3  -2 74415.4 3315.19  59
   2   3  -2 83484.1 3339.74  58
  -5   2  -2 71788.5 3270.18  29
  -5   2  -2 87136.5 3427.61  65
   3  -5  -2 80965.4 3098.23  62
  -5   2  -2 69042.2 3205.67  54
   2   3  -1 100029. 3731.22  64
  -5   2  -1 103782. 4211.32  54
  -5   2   0 49942.1 2235.86  50
   2   3   0 43743.8 1923.97  64
   3  -5   0 45183.4 2472.57  60
   2   3   1 13138.1 898.948  64
  -5   2   1 14411.6 1104.67  50
   3  -5   1 15711.4 1335.55  60
   2   3   2 22039.0 1434.17  30
  -5   2   2 18443.6 1197.16  42
  -5   2   2 18521.1 1351.48  50
  -5   2   2 20383.8 1447.53  37
   3  -5   2 20087.7 1606.32  63
   3  -5   2 18937.2 1429.52  49
   2   3   2 19631.7 1181.67  64
   2   3   2 18371.3 1552.79  12
  -5   2   2 18947.2 1404.33  41
  -5   2   2 20798.9 1667.76  13
   2   3   2 17845.6 1365.73  31
   3  -5   2 21669.6 1402.90  47
   3  -5   2 20460.4 1624.62   8
   3  -5   3 12188.0 1265.84  63
  -5   2   3 13191.8 1190.70  41
  -5   2   3 14064.4 1210.17  37
   2   3   3 13192.9 1172.55  31
   2   3   3 12571.3 1336.61  12
  -5   2   3 10555.4 1226.32  36
   3  -5   3 11400.8 1231.11   8
  -5   2   3 12834.3 1293.33  13
   3  -5   3 12014.3 1035.90  47
  -5   2   3 13240.4 948.428  42
   2   3   4 90180.5 3962.13  48
   2   3   4 93820.3 3865.01  31
  -5   2   4 96736.8 4266.75  36
   3  -5   4 92060.9 3982.82  34
   3  -5   5 14642.4 1039.17  34
  -5   2   5 14747.6 1134.20  36
   2   3   5 14778.6 997.913  48
   3  -4  -3 102646. 3902.84  62
   1   3  -3 110634. 4252.79  58
  -4   1  -3 105502. 4273.39  65
   1   3  -2 242622. 7732.70  58
   3  -4  -2 233848. 7473.84  62
  -4   1  -2 256420. 7918.54  65
  -4   1  -2 220446. 7504.16  54
   1   3  -1 24715.9 1337.51  58
   3  -4  -1 23424.7 1230.50  62
  -4   1  -1 25415.8 1389.60  65
  -4   1  -1 21875.5 1326.75  54
   1   3   0 23553.7 1148.35  64
   3  -4   0 26031.5 1255.92  62
  -4   1   0 23406.0 1287.59  50
   1   3   1 98591.9 3378.46  64
  -4   1   1 101630. 3700.51  50
   3  -4   1 102379. 3958.12  60
  -4   1   2 44325.1 2139.38  50
   3  -4   2 47342.7 2423.63  63
   3  -4   2 46143.0 2275.40  49
   1   3   2 45055.5 1903.40  64
  -4   1   3 11873.1 1095.80  41
   3  -4   3 13008.6 1219.98  63
   1   3   3 14574.9 1385.29  12
  -4   1   3 10181.8 1131.52  36
   3  -4   3 11850.2 1117.18  49
  -4   1   3 12854.6 1096.95  37
   1   3   3 12336.4 1143.49  31
   3  -4   3 11927.8 985.352  47
  -4   1   3 11864.1 1185.31  13
  -4   1   3 12402.4 1022.61  50
   3  -4   3 12996.6 1258.52   8
   1   3   4 142196. 5715.84  48
   3  -4   4 135947. 5402.46  34
   1   3   4 143356. 5370.19  31
  -4   1   4 132937. 5596.74  36
   3  -4   5 16056.6 1250.73  34
  -4   1   5 14875.1 1296.31  36
   3  -4   5 17712.8 1053.18  35
   1   3   5 15844.6 1305.58  48
   0   3  -4 269866. 9215.39  58
   3  -3  -4 279186. 9066.58  62
  -3   0  -4 274759. 9475.27  65
   0   3  -4 289238. 9143.26  57
  -3   0  -4 301918. 9145.01   5
   3  -3  -3 29274.0 1625.79  62
  -3   0  -3 29080.2 1781.36  65
   0   3  -3 30924.4 1658.78  57
  -3   0  -3 26551.1 1486.78  52
   0   3  -2 22026.2 1001.07  56
  -3   0  -2 21405.7 1361.94  65
   0   3  -2 21660.8 1237.61  57
   3  -3  -2 23001.6 1281.76  62
  -3   0  -1 169681. 4980.46   5
   3  -3  -1 155543. 4886.16  61
   3  -3  -1 162756. 5178.85  62
  -3   0  -1 171126. 5362.23  65
   0   3  -1 159904. 5216.19  58
   0   3  -1 165207. 4953.11  56
  -3   0  -1 156452. 5178.55  54
  -3   0  -1 160900. 5032.61  50
  -3   0   0 43352.6 1680.37  65
   3  -3   0 39267.3 1552.60  62
   0   3   0 38357.5 1524.17  58
  -3   0   0 38460.1 1658.85  50
  -3   0   1 23004.8 1258.64  50
   0   3   1 25115.0 1257.30  67
   0   3   1 24274.4 1059.57  64
   3  -3   1 25866.5 1342.06  60
   0   3   2 461019. 13436.3  67
   0   3   2 422552. 12930.3  64
   3  -3   2 462962. 13554.2  63
   3  -3   2 463469. 13606.9  49
  -3   0   2 458436. 13375.4  50
   0   3   3 7443.82 794.798  66
   3  -3   3 7744.84 851.598  63
  -3   0   3 8431.08 772.115  50
   3  -3   3 8385.24 882.733  49
   0   3   4 44286.8 2697.81  48
   3  -3   4 39962.9 2364.66  34
   0   3   4 51344.1 2527.63  31
   0   3   4 39285.4 2222.03  66
  -3   0   4 39441.7 2464.41  36
   3  -3   4 41565.6 2245.95  33
   0   3   4 48620.7 2537.56  34
   0   3   5 13181.9 1309.16  48
  -3   0   5 14735.6 1311.71  36
   3  -3   5 14585.7 1234.76  34
   0   3   6 4186.05 510.822  48
   3  -3   6 4684.44 500.595  34
  -3   0   6 4888.61 543.790  36
  -2  -1  -4 43777.9 2477.42  65
  -1   3  -4 49772.6 2258.22  54
  -1   3  -4 47009.7 2345.84  57
  -2  -1  -4 50313.1 2309.68   5
   3  -2  -4 45723.8 2410.74  62
   3  -2  -3 34068.1 1831.11  62
  -2  -1  -3 29224.0 1731.47  65
  -1   3  -3 31271.9 1681.83  57
  -1   3  -3 33550.5 1618.48  55
  -2  -1  -3 30172.7 1587.77  52
  -2  -1  -3 35352.5 1677.85   5
  -1   3  -2 7890.33 576.704  55
  -2  -1  -2 6237.16 614.521  65
  -2  -1  -2 6071.95 515.460  52
   3  -2  -2 6883.84 658.692  62
   3  -2  -2 7687.32 585.149  59
  -1   3  -2 7494.02 633.415  57
  -2  -1  -2 6724.04 561.043   5
  -2  -1  -1 47004.8 1768.56   5
  -1   3  -1 47605.7 1870.02  57
  -2  -1  -1 45161.1 1905.19  65
   3  -2  -1 45621.9 1911.27  62
  -1   3  -1 51674.0 1743.75  55
  -2  -1  -1 53731.0 1834.28  50
  -2  -1  -1 48628.6 1662.83  52
   3  -2   0 491100. 14573.1  62
  -1   3   0 512625. 14438.8  54
  -2  -1   0 483069. 14609.7  65
  -2  -1   0 538803. 14610.1   6
  -1   3   0 522831. 14757.0   1
   3  -2   0 521576. 14611.1  61
  -1   3   0 521907. 14556.8  56
  -2  -1   0 502692. 14739.2  50
  -1   3   1 169302. 5602.96  67
   3  -2   1 179161. 5457.26  63
  -2  -1   1 173039. 5544.41  50
   3  -2   1 179405. 5649.28  49
  -1   3   2 27250.7 1514.89  67
   3  -2   2 28302.7 1416.72  63
  -2  -1   2 27957.2 1409.04  50
   3  -2   2 26686.9 1528.57  49
  -2  -1   3 12246.9 886.059  50
  -1   3   3 12174.4 1052.68  66
   3  -2   3 12660.3 1098.26  49
  -1   3   4 40866.1 2517.45  48
   3  -2   4 39329.5 2325.23  49
  -2  -1   4 38698.9 2379.44  36
   3  -2   4 42939.6 2072.42  35
  -2  -1   4 43035.3 2109.30  35
   3  -2   4 43319.9 2359.71  34
  -1   3   4 38167.9 2253.60  66
   3  -2   4 40660.1 2211.04  33
  -1   3   5 14265.2 1371.88  48
  -2  -1   5 13988.4 1281.58  36
  -2  -1   5 13615.3 1027.99  35
   3  -2   5 13812.9 1208.54  34
  -1   3   6 95042.4 3640.83  48
   3  -2   6 91933.6 3419.66  34
  -2  -1   6 89619.9 3463.40  36
   3  -1  -4 55450.0 2804.82  62
  -1  -2  -4 48712.6 2596.88  65
  -1  -2  -4 52021.7 2366.05   5
  -2   3  -4 54435.3 2389.72  54
   3  -1  -3 78768.0 3102.12  59
  -2   3  -3 76924.4 2897.93  55
  -2   3  -3 77662.9 2900.83  54
   3  -1  -3 74145.7 2922.29  53
  -1  -2  -3 73282.8 2922.83   5
   3  -1  -2 60863.1 2420.30  59
   3  -1  -2 61757.2 2265.31  53
  -1  -2  -2 60569.9 2322.32   5
  -2   3  -2 57938.7 2222.29  55
  -2   3  -2 63377.7 2306.52  54
   3  -1  -1 16675.9 921.079  59
  -1  -2  -1 14805.6 796.841   5
  -1  -2  -1 13240.5 777.206  65
  -2   3  -1 15197.8 795.456  54
   3  -1  -1 17076.8 789.466  53
  -2   3  -1 16233.4 761.337  55
  -1  -2   0 356579. 10266.6   6
   3  -1   0 361399. 10241.7  49
   3  -1   0 344992. 10251.1  51
  -1  -2   0 345164. 10175.0   1
  -2   3   0 348023. 10027.0  57
  -2   3   0 341477. 10132.4  54
  -1  -2   0 379969. 10338.2  50
   3  -1   0 339932. 10097.8  62
   3  -1   1 75283.4 2584.33  61
  -2   3   1 72653.3 2837.20  67
  -1  -2   1 81020.0 2691.07  63
  -2   3   1 76807.6 2481.18  56
  -1  -2   1 81481.7 2769.38  50
  -1  -2   1 72905.1 2687.11   6
   3  -1   1 75267.7 2813.88  49
  -1  -2   2 43899.9 1916.07  63
  -2   3   2 45983.7 2103.53  67
  -1  -2   2 43826.9 1856.76  50
   3  -1   2 41077.1 2043.25  49
  -2   3   3 1907.28 424.356  66
   3  -1   3 1431.19 342.858  49
  -1  -2   3 1756.21 302.058  50
  -2   3   4 64123.7 3262.94  48
   3  -1   4 63477.0 3152.54  49
  -1  -2   4 64843.1 3188.18  36
  -1  -2   4 67431.7 2990.97  35
  -2   3   4 65870.2 3157.23  66
   3  -1   4 66453.5 3113.96  34
   3  -1   4 72028.3 3105.82  33
   3  -1   4 66761.9 3125.63  32
  -2   3   5 9246.96 1060.45  48
  -1  -2   5 9485.29 1021.21  36
   3  -1   5 9081.82 964.768  34
  -1  -2   5 10059.6 932.780  35
   3  -1   6 36249.7 1770.05  34
  -1  -2   6 41863.1 1926.77  36
  -2   3   6 36637.1 1904.10  48
  -1  -2   6 38775.2 1680.12  35
  -3   3  -4 42999.1 2117.18  54
   0  -3  -4 45726.4 2294.65   4
   3   0  -4 42320.1 2243.55  59
  -3   3  -3 8409.12 750.457  54
   3   0  -3 8277.33 763.952  53
   0  -3  -3 8541.56 790.129   4
   3   0  -3 8535.77 859.690  59
  -3   3  -2 466259. 13786.3  54
   3   0  -2 457561. 14043.2  59
   0  -3  -2 482522. 13817.9   4
   3   0  -2 468382. 13779.8  53
   0  -3  -1 23735.5 1093.94   4
  -3   3  -1 23906.3 1192.99  54
   0  -3  -1 24588.7 1256.60   6
   3   0  -1 26103.7 1306.55  59
   3   0  -1 23115.5 961.977  64
   0  -3   0 39922.1 1718.37   6
  -3   3   0 38718.9 1639.26  54
   3   0   0 38596.8 1442.57  64
   0  -3   1 169625. 5407.42  60
  -3   3   1 162950. 5293.22  54
  -3   3   1 166943. 5305.46  67
   0  -3   1 157125. 5292.87   6
   3   0   1 164540. 4999.16  64
   3   0   1 159578. 4973.04  61
   3   0   1 152634. 5227.25  49
   0  -3   2 23634.2 1423.53  63
  -3   3   2 23795.8 1384.35  67
   3   0   2 22270.4 1387.58  49
   3   0   3 26213.1 1737.95  49
   0  -3   3 31272.7 1853.84  63
  -3   3   3 28368.3 1703.98  66
  -3   3   4 281671. 9697.69  48
  -3   3   4 283383. 9363.17  37
   0  -3   4 313864. 9812.42  36
   0  -3   4 292772. 9449.41  35
  -3   3   4 279346. 9495.92  66
   3   0   4 309860. 9630.37  34
   3   0   4 281689. 9603.16  32
   3   0   4 281041. 9701.29  49
  -3   3   5 1739.11 393.754  48
   0  -3   5 1496.62 363.638  35
   3   0   5 1824.71 391.134  34
   0  -3   5 1802.24 433.462  36
   3   0   5 2067.02 428.313  32
   3   0   6 5226.87 503.270  34
  -3   3   6 3653.61 460.153  48
   0  -3   6 4158.00 433.991  35
   1  -4  -3 80439.8 3364.75   4
  -4   3  -3 82911.0 3394.69  54
   1  -4  -3 89463.0 3500.64   6
   3   1  -3 88408.4 3701.20  59
   1  -4  -2 10137.7 813.438   4
   1  -4  -2 11980.6 933.820   6
  -4   3  -2 10994.7 901.655  54
   3   1  -2 12368.5 1024.81  59
   3   1  -1 28951.9 1275.37  64
  -4   3  -1 29340.7 1535.58  54
   1  -4  -1 27966.8 1535.06   6
   3   1  -1 32824.0 1602.60  59
  -4   3   0 102387. 3857.84  54
   3   1   0 107352. 3536.88  64
   3   1   0 114342. 3749.41  59
   1  -4   0 105562. 3909.98   6
   3   1   1 5110.72 477.161  64
   3   1   1 4007.94 491.528  49
  -4   3   1 3801.57 532.533  54
   1  -4   2 346116. 11018.9  63
  -4   3   2 346251. 10455.8  50
   3   1   2 328443. 10666.5  49
   1  -4   3 19707.2 1313.37  39
   3   1   3 19265.4 1472.83  32
  -4   3   3 21638.9 1464.56  37
   1  -4   3 20105.0 1594.12  63
   3   1   3 19908.9 1317.04  30
   3   1   4 22390.9 1515.35  34
   1  -4   4 21942.4 1572.62  34
  -4   3   4 19205.6 1404.96  37
  -4   3   4 18682.8 1581.45  36
   1  -4   4 19300.3 1382.21  35
   3   1   4 20604.2 1523.67  31
   3   1   4 19807.3 1548.41  32
  -4   3   4 20951.3 1474.95  41
   3   1   5 10946.5 930.321  34
  -4   3   5 10313.2 927.379  48
  -4   3   5 10003.5 949.825  36
   1  -4   5 10172.7 857.188  35
   3   1   5 8341.69 814.970  31
   2  -5  -3 10819.0 952.068  24
   3   2  -3 9163.29 996.369  59
  -5   3  -3 9411.84 958.553  29
   2  -5  -2 19410.3 1328.72   6
   3   2  -2 21229.9 1469.00  59
  -5   3  -2 18018.6 1348.89  54
   2  -5  -2 22290.3 1405.75  24
  -5   3  -2 18332.5 1390.61  29
   3   2  -2 19041.5 1124.84  64
  -5   3  -2 20391.5 1398.18  17
   3   2  -1 7937.65 643.063  64
   3   2  -1 7468.30 738.459  59
  -5   3  -1 7268.30 814.901  54
  -5   3  -1 7950.82 725.721  50
   2  -5  -1 6666.06 747.695   6
  -5   3   0 39615.4 2153.10  54
   3   2   0 40924.5 1759.35  64
  -5   3   0 38823.0 1938.52  50
   2  -5   0 38625.5 2249.97  60
   3   2   1 16809.1 1031.37  64
   2  -5   1 16517.5 1388.65  60
  -5   3   1 15908.4 1159.01  50
   2  -5   2 85619.0 3872.17   8
   2  -5   2 86184.1 3471.71  39
  -5   3   2 88163.2 3982.31  13
  -5   3   2 82897.4 3522.60  37
   3   2   2 86843.1 3836.86  12
   2  -5   2 88515.5 3981.38  63
   3   2   2 83897.9 3634.24  32
   3   2   2 82804.0 3438.66  30
  -5   3   2 79793.7 3423.69  50
  -5   3   2 81777.8 3195.04  42
   3   2   3 3801.08 679.623  12
  -5   3   3 4456.30 521.507  42
   2  -5   3 4082.90 585.165  39
  -5   3   3 4430.17 649.633  37
   2  -5   3 3784.08 548.690  47
  -5   3   3 4273.57 659.710  41
   2  -5   3 3170.09 658.743  63
   3   2   3 3440.83 586.731  31
   3   2   3 3480.29 544.642  30
   3   2   3 4750.28 713.166  32
   2  -5   3 5160.71 791.412   8
   2  -5   4 36627.4 1816.48  47
  -5   3   4 35506.4 2022.32  41
  -5   3   4 40499.5 2082.83  37
  -5   3   4 36861.3 2323.82  36
   2  -5   4 35655.0 1845.49  35
   3   2   4 33869.9 2009.38  31
   2  -5   4 36782.3 2134.75  34
  -5   3   5 8256.77 800.546  36
   2  -5   5 8314.64 632.892  35
   2  -5   5 8559.95 716.594  34
   3   2   5 8939.05 732.630  31
   3  -6  -4 2557.56 375.799  44
  -6   3  -4 2924.46 471.550  28
   3  -6  -3 47120.6 2366.72  46
   3  -6  -3 42325.8 2081.93  24
  -6   3  -3 42479.5 2256.03  29
   3   3  -2 2746.80 496.618  21
  -6   3  -2 3361.70 574.953  17
  -6   3  -2 3140.26 571.407  29
  -6   3  -2 3707.31 606.754  28
   3  -6  -2 3048.38 531.673  24
   3  -6  -2 2654.08 521.818  46
   3  -6  -1 20380.8 1521.63  46
   3  -6  -1 20849.8 1429.00  24
  -6   3  -1 21198.1 1558.10  17
   3   3  -1 20870.5 1503.27  21
   3   3  -1 20716.0 1234.99  64
   3  -6  -1 23006.3 1649.02  45
  -6   3  -1 19141.1 1546.31  29
  -6   3  -1 19437.7 1551.71  54
  -6   3  -1 21971.7 1529.46  28
   3  -6   0 137491. 5370.64  45
   3   3   0 144323. 5314.31  20
   3   3   0 136370. 5359.54  21
   3   3   0 145965. 5358.50  26
   3   3   0 146867. 4877.07  64
  -6   3   0 130543. 5386.89  17
   3  -6   0 154415. 5164.49  44
   3  -6   0 132025. 5064.80  24
  -6   3   0 146491. 4993.10  42
   3  -6   0 140405. 5649.83  60
  -6   3   0 139282. 5173.84  50
   3  -6   1 3498.41 534.862  47
   3   3   1 3862.36 565.992  30
  -6   3   1 3831.21 538.256  42
   3   3   1 3973.96 604.435  20
  -6   3   1 2584.87 483.040  41
  -6   3   1 4208.44 740.402  13
   3  -6   1 4545.17 748.452   8
   3   3   1 4624.31 737.195  21
  -6   3   1 5701.46 703.394  37
   3   3   1 2983.81 433.778  64
   3  -6   1 3798.60 666.576  60
  -6   3   1 3573.06 567.854  50
   3  -6   2 15158.9 1412.45   8
  -6   3   2 16618.5 1490.97  13
  -6   3   2 15264.3 1097.72  42
   3  -6   2 12805.9 1106.48  47
  -6   3   2 14126.2 1221.49  41
  -6   3   2 15483.7 1273.64  37
   3   3   2 15271.5 1426.31  12
   3   3   2 15858.2 1226.16  30
   3   3   2 13833.8 1155.59  31
   3  -6   3 12393.0 1041.57  47
  -6   3   3 13467.1 1227.12  13
  -6   3   3 13992.8 975.219  42
  -6   3   3 13678.1 1183.11  41
   3   3   3 13255.0 1291.33  12
  -6   3   3 13337.7 1319.07  36
  -6   3   3 16663.3 1268.56  37
   3   3   3 11208.8 1050.40  31
   3  -6   3 15055.5 1359.32   8
  -6   3   4 13213.8 1155.71  36
   3  -6   4 14892.6 1118.64  34
   3   3   4 14992.6 1063.23  31
   3   4  -3 1506.32 311.805  26
   4  -7  -3 832.562 265.110  45
   4  -7  -3 1484.02 305.535  44
   3   4  -3 1062.82 255.035  20
  -7   3  -3 1434.95 306.036  28
   3   4  -2 53472.3 2603.44  26
   3   4  -2 52888.1 2516.18  20
  -7   3  -2 54785.4 2597.28  28
   4  -7  -2 55399.5 2716.75  45
   4  -7  -2 60397.0 2585.87  44
   3   4  -1 7717.88 867.961  26
   4  -7  -1 7309.51 769.285  44
   4  -7  -1 7453.33 886.176  45
   3   4  -1 5653.64 734.820  21
  -7   3  -1 7494.37 941.765  13
   3   4  -1 6578.32 797.039  20
  -7   3  -1 7820.81 852.464  28
   4  -7   0 38983.2 2345.60   8
  -7   3   0 34648.4 2290.88  13
   3   4   0 37954.1 2167.56  20
  -7   3   0 33297.2 1937.01  28
   4  -7   0 36264.6 1888.51  44
   3   4   0 40506.8 2257.08  26
   3   4   1 3390.97 595.379  26
   4  -7   1 4133.78 549.587  47
   4  -7   1 3897.92 680.679   8
  -7   3   1 3841.74 693.483  13
   3   4   1 3694.72 649.304  12
   4  -7   2 4199.77 545.422  47
   4  -7   2 3920.83 665.297   8
  -7   3   2 4164.68 655.707  13
   3   4   2 5059.73 736.685  12
   3   4   3 5586.86 679.714  12
   3   4   3 5131.68 581.693  48
  -7   3   3 4755.79 623.777  36
   4  -7   3 5252.76 628.872  34
   2   4  -4 114763. 4271.78  26
  -6   2  -4 124745. 4451.40  28
   4  -6  -3 26366.2 1537.94  44
   2   4  -3 21991.2 1426.52  20
  -6   2  -3 23535.2 1612.03  28
   4  -6  -2 12481.7 1086.61  46
   4  -6  -2 14973.8 1199.29  44
   4  -6  -2 13126.4 1258.89  45
   2   4  -2 11735.4 1079.58  20
   4  -6  -2 11455.5 994.082  24
  -6   2  -2 13665.8 1224.85  28
   2   4  -1 26549.6 1790.31  26
   4  -6  -1 27731.9 1899.35  45
   4  -6  -1 21904.2 1511.91  24
   4  -6  -1 30508.1 1762.42  44
   2   4  -1 24977.9 1661.88  21
   2   4  -1 27340.9 1768.03  20
   2   4  -1 26058.0 1447.34  64
  -6   2  -1 28411.4 1837.10  28
   2   4   0 18773.5 1483.03  26
   4  -6   0 18816.0 1524.54  45
   4  -6   0 18673.5 1305.27  44
  -6   2   0 19847.5 1644.23  13
   4  -6   0 18062.1 1545.78  60
   2   4   0 17143.8 1114.05  64
   2   4   0 16394.4 1379.81  21
   2   4   0 17641.7 1405.80  20
  -6   2   0 16505.8 1359.92  28
  -6   2   0 17623.6 1312.41  50
   2   4   1 6595.47 874.265  26
   4  -6   1 7114.14 756.860  47
   2   4   1 6376.09 637.362  64
   4  -6   1 7825.10 992.794   8
  -6   2   1 6903.15 733.161  42
  -6   2   1 7331.43 833.291  41
  -6   2   1 6276.49 907.970  13
   2   4   1 6123.14 839.397  20
   2   4   1 6171.98 869.315  12
   4  -6   1 6445.86 875.041  60
  -6   2   1 5885.46 748.650  50
   4  -6   2 138412. 5076.95  47
  -6   2   2 137551. 5611.85  13
  -6   2   2 143295. 5327.01  41
   2   4   2 137012. 5608.80  12
   2   4   2 137041. 5080.67  31
   4  -6   2 135408. 5559.34   8
  -6   2   3 14102.1 1300.75  13
   2   4   3 12159.4 1235.00  12
  -6   2   3 12501.8 1210.20  36
   2   4   3 12127.2 1052.10  31
   4  -6   3 12192.8 1241.66   8
   2   4   4 824.485 243.013  48
  -6   2   4 956.902 286.069  36
   4  -6   4 509.349 178.449  33
   4  -6   4 966.483 264.443  34
  -5   1  -5 2728.22 344.936  18
   4  -5  -5 2202.31 317.275  45
  -5   1  -4 25538.2 1588.64  28
   4  -5  -3 172.648 122.741  44
  -5   1  -3 226.015 256.788  28
   4  -5  -2 15777.6 1138.12  62
   4  -5  -2 17767.5 1285.51  44
  -5   1  -2 15349.1 1234.55  65
   1   4  -2 15923.1 1233.19  20
   1   4  -2 16346.5 1223.37  58
  -5   1  -2 16703.4 1341.77  28
   4  -5  -1 2255.49 420.668  24
   4  -5  -1 2048.36 463.949  45
   1   4  -1 3052.12 502.539  20
   4  -5  -1 2957.36 453.060  62
   4  -5  -1 2536.28 440.991  44
   1   4  -1 1818.40 339.760  64
  -5   1  -1 2584.34 492.189  28
   1   4  -1 1906.85 422.226  26
   1   4   0 45131.4 1961.97  64
   4  -5   0 46757.7 2473.63  60
  -5   1   0 44896.9 2214.47  50
   4  -5   1 508.472 263.704   8
  -5   1   1 114.451 187.264  13
   1   4   1 627.424 288.284  26
   1   4   1 88.7573 123.900  20
   1   4   1 239.759 140.445  12
  -5   1   1 33.8042 122.420  50
   1   4   1 106.602 106.246  64
   4  -5   1 127.484 156.027  60
   1   4   2 14125.6 959.039  64
   4  -5   2 13518.9 1302.98   8
  -5   1   2 14134.8 1262.67  14
   4  -5   2 14583.8 1158.07  47
  -5   1   2 17122.7 1348.66  41
   4  -5   2 14137.3 1278.29  63
   4  -5   2 13775.8 1247.08  49
   1   4   2 15106.8 1415.29  12
  -5   1   2 15003.5 1394.75  13
   1   4   2 17754.0 1333.48  31
   4  -5   2 15271.5 1429.86   9
  -5   1   2 13690.0 1161.28  50
  -5   1   3 7912.20 1007.64  13
   4  -5   3 6605.05 919.171   8
   1   4   3 7210.83 1013.67  12
  -5   1   3 7385.04 948.419  36
   1   4   3 7659.25 932.684  11
   1   4   3 6400.45 810.767  31
   4  -5   3 7617.08 984.667   9
   1   4   4 29362.0 1961.89  48
  -5   1   4 29462.0 1919.95  36
   4  -5   4 29520.3 1827.97  34
  -5   1   5 2015.74 362.635  36
   4  -5   5 1404.32 289.441  34
   1   4   5 1242.91 272.561  48
  -4   0  -3 13718.9 1215.24  65
   4  -4  -3 13410.5 1067.56  62
   0   4  -3 12785.1 1156.35  58
  -4   0  -3 14101.4 1042.33   5
  -4   0  -3 13832.3 1160.66  28
   0   4  -2 23301.0 1473.46  58
   4  -4  -2 22047.9 1349.76  62
  -4   0  -2 22864.9 1513.27  65
  -4   0  -2 21905.5 1221.88   5
  -4   0  -1 63344.2 2662.19  65
   4  -4  -1 64773.9 2579.20  62
   0   4  -1 65115.8 2622.02  58
   4  -4   0 244058. 8088.79  60
   0   4   0 243695. 7615.76  64
   4  -4   0 263598. 7759.88  62
  -4   0   0 253745. 7971.55  50
   0   4   1 47299.9 1934.14  64
   4  -4   1 52224.6 2350.07  60
  -4   0   1 50909.1 2325.96  50
   0   4   1 50634.9 2238.02  67
   4  -4   2 14909.9 1182.88  63
   4  -4   2 17154.9 1313.35  49
   0   4   2 14446.5 1110.59  67
  -4   0   2 14746.7 1144.57  50
   0   4   3 40255.7 2458.49  12
  -4   0   3 32353.7 2086.23  36
   0   4   3 34566.1 2227.98  11
   4  -4   3 36272.3 2099.06  63
   0   4   3 35443.5 1964.11  66
   4  -4   3 37473.5 2401.60   9
  -4   0   3 33531.1 1907.05  50
   4  -4   3 32075.5 1997.69  34
   4  -4   3 36368.1 2275.10   8
   4  -4   3 36712.4 2206.90  49
  -4   0   3 35882.1 2143.84  14
   0   4   4 9216.65 1107.53  48
   4  -4   4 8158.47 884.452  33
  -4   0   4 7135.19 919.014  36
   4  -4   4 7089.11 860.688  34
   0   4   5 3254.11 548.277  48
   4  -4   5 2576.15 433.880  34
  -4   0   5 2431.97 444.513  36
  -1   4  -3 21114.6 1301.51  54
  -3  -1  -3 21731.7 1533.89  65
   4  -3  -3 20191.8 1408.74  62
  -3  -1  -3 20651.5 1309.24   5
  -1   4  -3 19721.3 1352.78  57
  -3  -1  -2 334758. 9888.83   5
   4  -3  -2 342512. 10184.4  62
  -3  -1  -2 299862. 10141.5  65
  -1   4  -2 346150. 10126.7  57
  -1   4  -2 312431. 9670.13  56
  -1   4  -1 4893.90 446.928  54
   4  -3  -1 4465.60 429.137  61
  -3  -1  -1 3990.04 398.562   5
  -3  -1  -1 4958.19 532.667  65
  -1   4  -1 4559.35 432.779  56
   4  -3  -1 4051.32 465.611  62
   4  -3   0 106775. 3637.86  61
  -1   4   0 113452. 3668.28  56
  -3  -1   0 115241. 3695.80  65
  -3  -1   0 103174. 3796.39  50
   4  -3   0 108096. 3622.99  62
  -1   4   1 31677.8 1665.26  67
  -3  -1   1 29770.7 1581.26  50
   4  -3   1 30697.3 1669.06  49
   4  -3   2 11902.8 1058.50  49
  -1   4   2 11438.1 1010.12  67
  -3  -1   2 11307.7 944.504  50
   4  -3   3 83565.1 3551.84  34
  -3  -1   3 80095.2 3611.64  36
  -1   4   3 87207.8 3867.75  11
  -1   4   3 80959.3 3593.30  66
   4  -3   3 83413.1 3768.70  49
   4  -3   3 88220.7 4033.01   9
  -3  -1   3 81178.2 3335.76  50
  -3  -1   3 87026.5 3767.03  14
  -1   4   4 148504. 5766.97  48
   4  -3   4 135723. 5258.17  34
  -3  -1   4 139649. 5082.44  40
  -3  -1   4 129240. 5315.82  36
   4  -3   4 137911. 5236.73  33
  -1   4   5 419.654 144.996  48
  -3  -1   5 741.289 255.224  36
   4  -3   5 782.063 244.050  34
   4  -3   5 840.039 246.011  33
  -2  -2  -4 129516. 4690.93   5
  -2  -2  -3 15459.8 1100.51   5
  -2  -2  -3 13765.4 1168.14  65
   4  -2  -3 16955.2 1309.78  62
  -2   4  -3 14609.3 1133.06  57
  -2   4  -3 15539.7 1086.58  54
   4  -2  -2 21890.8 1354.78  62
  -2  -2  -2 18505.8 1127.77   5
  -2  -2  -2 19413.7 1252.08  65
  -2   4  -2 20603.1 1232.55  57
  -2   4  -2 19885.2 1085.18  55
  -2   4  -2 21358.6 1184.05  54
   4  -2  -2 20961.8 1101.56  53
  -2   4  -1 6081.04 524.466  54
   4  -2  -1 7452.28 632.035  62
  -2  -2  -1 6758.91 599.924  65
  -2   4  -1 7131.25 597.801  57
  -2  -2   0 6817.17 557.702   6
   4  -2   0 6185.90 528.495  61
  -2  -2   0 5925.69 559.790  50
  -2   4   0 6471.31 501.380  56
   4  -2   0 6099.51 568.107  49
  -2   4   1 102871. 3791.15  67
  -2  -2   1 96090.2 3548.89  50
   4  -2   1 95742.6 3656.14  49
  -2   4   2 77470.9 3302.66  67
  -2  -2   2 74313.5 3002.92  50
   4  -2   2 75504.1 3274.59  49
  -2   4   3 32549.8 2016.29  48
  -2  -2   3 33694.6 1926.76  40
  -2  -2   3 34319.6 1802.80  38
   4  -2   3 32342.1 2141.33  10
   4  -2   3 32649.4 1954.01  33
  -2  -2   3 35142.7 1786.36  50
   4  -2   3 30696.6 2010.91  49
  -2   4   4 37097.3 2336.07  48
  -2  -2   4 41146.0 2132.73  40
  -2  -2   4 37856.6 2231.36  36
  -2  -2   4 40922.1 2142.83  35
   4  -2   4 40515.4 2215.28  34
   4  -2   4 39033.7 2219.85  33
  -2  -2   5 1094.45 319.095  36
  -2  -2   5 925.174 263.569  35
   4  -2   5 1211.46 325.677  34
   4  -2   5 1554.01 328.221  32
  -2   4   5 845.264 329.049  48
  -3   4  -3 13372.2 1026.11  54
  -1  -3  -3 10549.4 987.207  65
  -1  -3  -3 13648.3 1025.80   4
   4  -1  -3 13399.8 1095.18  59
   4  -1  -3 12892.3 1194.46  62
   4  -1  -2 49309.9 2200.91  59
  -1  -3  -2 46054.5 1957.69   4
   4  -1  -2 43319.0 1922.84  53
  -3   4  -2 48852.7 2088.94  54
  -1  -3  -1 100089. 3569.05   6
   4  -1  -1 95949.9 3481.16  62
  -3   4  -1 96079.6 3429.57  54
  -1  -3   0 24667.7 1335.75   6
  -3   4   0 26846.0 1282.36  54
   4  -1   0 24624.9 1235.97  61
  -3   4   0 23041.1 1097.29  56
   4  -1   1 23671.0 1210.27  61
  -3   4   1 24319.1 1115.05  56
  -3   4   1 26868.6 1540.91  67
  -1  -3   1 25926.5 1382.28  50
  -1  -3   1 25318.7 1413.29   6
   4  -1   1 22853.5 1366.18  49
  -3   4   2 250301. 8086.35  67
   4  -1   2 230309. 7916.97  49
  -3   4   3 91491.4 3533.85  43
  -1  -3   3 105979. 4050.15  40
  -1  -3   3 102272. 3841.59  38
  -3   4   3 99391.8 4199.97  66
   4  -1   3 100827. 4408.28  10
   4  -1   3 101517. 4088.62  33
   4  -1   3 95819.8 4160.46  49
  -3   4   4 20057.3 1540.53  48
  -3   4   4 19417.8 1417.73  37
  -1  -3   4 22216.6 1553.66  36
  -1  -3   4 18800.1 1423.72  35
   4  -1   4 19327.7 1406.75  34
   4  -1   4 22078.5 1556.82  33
   4  -1   4 19550.6 1533.15  32
  -3   4   5 13622.4 1126.26  48
  -1  -3   5 13405.1 1097.55  36
  -1  -3   5 15066.0 1100.22  35
   4  -1   5 14350.8 1082.41  34
   4  -1   5 14207.0 1108.79  32
   0  -4  -4 8072.29 844.691   7
   4   0  -3 39041.7 2145.07  59
   0  -4  -3 38575.8 2062.23   6
   0  -4  -3 34986.8 1867.33   4
  -4   4  -3 35842.8 1981.17  54
   0  -4  -2 15532.8 1018.21   4
   0  -4  -2 14305.7 1131.67   6
   4   0  -2 17666.6 1245.18  59
  -4   4  -2 14671.6 1114.25  54
   0  -4  -1 48143.9 2281.10   6
   4   0  -1 54088.5 2322.14  59
  -4   4  -1 47064.2 2214.71  54
   0  -4   0 242380. 8179.22  60
  -4   4   0 248194. 8051.68  54
   4   0   0 265789. 7659.35  64
   0  -4   0 252752. 8193.03   6
   4   0   1 60135.9 2320.72  61
   0  -4   1 62086.8 2706.18  60
  -4   4   1 62739.8 2705.92  54
  -4   4   1 59768.4 2616.34  67
   0  -4   2 21157.2 1467.36  63
  -4   4   2 23082.4 1476.94  67
   4   0   2 20203.1 1433.26  49
  -4   4   3 12898.2 927.544  43
   0  -4   3 12200.9 1022.37  39
  -4   4   3 12862.4 1132.85  37
  -4   4   3 13052.3 1144.46  66
   4   0   3 12829.4 1209.26  32
   4   0   3 12951.5 1219.35  49
  -4   4   4 26590.6 1704.34  37
   0  -4   4 28391.8 1757.46  35
   4   0   4 29102.6 1907.28  32
   0  -4   5 2269.01 379.818  35
  -4   4   5 1973.18 345.129  37
   4   0   5 2427.48 392.332  31
   1  -5  -5 761.041 207.172  46
   1  -5  -4 26794.0 1494.74  24
  -5   4  -3 13499.9 1134.26  17
   1  -5  -2 38734.1 2141.27   6
  -5   4  -2 37735.7 1933.73  19
  -5   4  -2 36964.0 2127.24  54
   1  -5  -2 40443.0 2158.69   7
  -5   4  -2 42757.8 2227.23  17
   4   1  -2 43174.4 2241.29  59
  -5   4  -2 38584.2 2031.08  15
   1  -5  -1 83811.3 3466.04  46
  -5   4  -1 72736.9 3142.87  19
  -5   4  -1 81269.2 3450.35  17
   4   1  -1 88595.6 3380.67  59
  -5   4  -1 80952.8 3492.38  29
  -5   4  -1 80480.6 3427.71  54
  -5   4  -1 77794.0 3294.31  15
   1  -5  -1 80047.3 3426.21   6
   1  -5   0 1610.64 385.027   6
   4   1   0 1622.97 281.696  64
  -5   4   0 1069.51 307.163  54
   1  -5   0 907.394 287.104  60
   4   1   1 11495.7 1132.37  25
   4   1   1 13501.9 911.295  64
  -5   4   1 12377.9 928.442  43
   1  -5   1 12033.6 999.971  39
   1  -5   1 12469.4 1142.99   7
   1  -5   1 12203.0 1141.74  60
   4   1   2 23792.7 1814.97  25
  -5   4   2 22778.0 1346.34  43
   4   1   2 20222.4 1416.69  30
   1  -5   2 23138.3 1492.70  39
  -5   4   2 19989.2 1453.95  37
   4   1   2 21318.5 1570.89  12
   1  -5   2 23825.2 1725.78  63
   4   1   2 23185.7 1575.65  32
  -5   4   2 23419.7 1488.95  50
  -5   4   3 5471.44 586.384  42
   1  -5   3 5961.23 702.797  39
  -5   4   3 5362.76 721.944  37
   4   1   3 6072.00 815.478  32
   4   1   3 5833.08 712.190  30
  -5   4   4 31003.9 1785.39  41
  -5   4   4 30050.9 1746.58  37
  -5   4   4 28372.5 1861.17  36
   1  -5   4 30756.1 1697.14  35
   4   1   4 31658.5 1924.63  32
   4   1   4 28359.9 1775.51  31
   4   1   4 30179.2 1605.19  30
  -5   4   5 11839.3 763.517  37
   1  -5   5 11611.0 758.276  35
   2  -6  -4 1347.52 302.293  46
  -6   4  -4 980.387 250.630  29
   2  -6  -3 44837.2 2296.84  46
   2  -6  -3 40922.2 2092.61  24
   4   2  -3 40865.9 2173.09  21
  -6   4  -3 38218.1 2060.88  17
  -6   4  -3 39948.1 2197.64  29
   2  -6  -2 38808.9 2224.77  46
   2  -6  -2 39822.4 2112.95  24
   4   2  -2 39052.1 2223.19  21
  -6   4  -2 36609.0 2136.02  17
  -6   4  -2 35235.5 2184.86  29
   2  -6  -1 38613.9 2214.49  46
   2  -6  -1 39997.9 2072.19  24
   4   2  -1 37291.1 2173.60  21
   2  -6  -1 37430.4 2076.66   7
  -6   4  -1 35547.6 1950.24  19
   4   2  -1 34704.2 1708.25  64
  -6   4  -1 36451.3 2169.25  17
  -6   4  -1 38439.6 2278.98  29
  -6   4  -1 35503.9 2183.53  54
   4   2   0 160741. 5995.96  25
   2  -6   0 158059. 5997.62  46
   4   2   0 168469. 5458.42  64
   2  -6   0 161609. 5736.93  24
  -6   4   0 167869. 5545.44  42
   4   2   0 158726. 5997.13  21
   2  -6   0 159370. 5967.72   7
  -6   4   0 157462. 6040.07  17
   2  -6   0 164004. 6225.05  60
  -6   4   0 166162. 6197.63  29
  -6   4   0 158771. 6116.07  54
  -6   4   0 168307. 5828.53  50
   4   2   1 11647.2 1186.59  25
   2  -6   1 10210.3 1148.11   8
  -6   4   1 9186.04 824.092  42
  -6   4   1 10464.2 1160.97  13
   2  -6   1 10563.3 970.493  39
   2  -6   1 8328.10 967.929   7
   4   2   1 8748.62 1008.43  21
   4   2   1 8136.11 744.850  64
  -6   4   1 8455.21 984.481  17
   2  -6   1 8867.49 1038.19  60
   4   2   1 9762.26 912.478  30
  -6   4   1 8614.91 891.050  50
   2  -6   2 9582.63 932.637  47
   2  -6   2 10082.1 1090.81   8
  -6   4   2 11481.1 1168.58  13
  -6   4   2 9298.91 828.671  42
  -6   4   2 9538.00 991.436  41
   2  -6   2 9987.38 953.140  39
  -6   4   2 11443.1 1039.50  37
   4   2   2 10030.8 1092.49  12
   4   2   2 9049.13 912.886  30
   2  -6   3 21257.0 1371.50  47
  -6   4   3 20642.3 1205.71  42
  -6   4   3 20567.9 1468.38  41
   4   2   3 18474.9 1452.55  12
  -6   4   3 20737.6 1443.17  37
   2  -6   3 19690.6 1250.14  35
   4   2   3 20694.4 1446.77  31
   4   2   3 21796.8 1398.78  30
   2  -6   4 29688.2 1378.90  47
  -6   4   4 29876.8 1573.79  41
  -6   4   4 31429.3 1579.32  37
  -6   4   4 28039.3 1669.10  36
   2  -6   4 23474.6 1269.85  35
   2  -6   4 24757.5 1416.12  34
   4   2   4 26064.1 1490.92  31
   3  -7  -3 1527.28 328.726  46
   3  -7  -3 1803.89 368.724  45
   3  -7  -3 1480.16 330.336  44
   3  -7  -3 924.111 228.034  24
   4   3  -3 1287.04 268.233  21
   4   3  -3 1638.95 324.885  20
  -7   4  -3 1675.04 337.872  28
   4   3  -2 16486.1 1233.36  26
   3  -7  -2 15549.1 1227.78  46
   3  -7  -2 17263.0 1303.11  45
   3  -7  -2 16452.7 1174.50  24
   4   3  -2 14467.9 1139.91  21
   4   3  -2 17331.3 1250.48  20
  -7   4  -2 15017.1 1181.62  17
  -7   4  -2 18912.4 1301.08  28
   4   3  -1 23562.8 1563.79  26
   3  -7  -1 27719.0 1561.69  44
   4   3  -1 23110.5 1604.19  21
   4   3  -1 22392.8 1536.40  20
  -7   4  -1 22247.3 1599.85  17
  -7   4  -1 24389.1 1540.66  28
   3  -7  -1 21732.5 1462.69  24
   4   3   0 1759.58 395.586  26
   3  -7   0 1318.71 294.657  24
  -7   4   0 1527.33 314.880  42
  -7   4   0 1164.30 361.331  13
   4   3   0 1525.42 420.900  21
   4   3   0 1574.89 398.716  20
   3  -7   1 26334.9 1532.87  47
   3  -7   1 23750.9 1771.12   8
  -7   4   1 24616.3 1426.25  42
  -7   4   1 25364.6 1826.59  13
   4   3   1 24181.7 1729.17  12
   4   3   1 22713.0 1532.83  20
   3  -7   2 54331.2 2805.88   8
   3  -7   2 59102.9 2575.07  47
  -7   4   2 56259.3 2784.27  13
  -7   4   2 60427.8 2460.21  42
  -7   4   2 56321.9 2615.09  41
   4   3   2 61128.2 2957.35  12
   3  -7   3 2843.49 392.466  47
  -7   4   3 3036.25 455.572  41
   4   3   3 2667.99 440.251  12
  -7   4   3 2648.95 478.209  36
   3  -7   3 2685.57 425.456  34
   4   3   3 2129.61 345.100  31
   4  -8  -2 40074.0 1819.34   8
  -8   4  -2 39615.4 1784.72  13
   4   4  -2 39184.9 1744.04  20
   4  -8  -2 39469.3 1665.57  44
  -8   4  -2 33840.2 1600.15  28
   4   4  -2 41054.9 1790.79  26
   4  -8  -1 4388.95 575.321   8
  -8   4  -1 4471.27 599.170  13
   4   4  -1 3651.97 502.275  20
   4   4  -1 3620.40 474.930  12
   4  -8  -1 3921.92 437.166  44
   4   4  -1 3853.20 497.820  26
   4  -8   0 7992.99 831.735   8
  -8   4   0 7866.19 835.096  13
   4   4   0 8226.21 804.688  12
   4  -8   1 1190.36 317.745   8
  -8   4   1 1112.26 299.975  13
   4   4   1 640.677 208.658  12
   4  -8   2 2404.47 375.279   8
  -8   4   2 2396.40 353.097  13
   4   4   2 3532.09 461.872  12
  -8   4   2 3072.61 416.227  36
   5  -8  -2 7627.58 591.034  44
  -8   3  -2 7374.64 604.077  28
   3   5  -2 7453.87 655.466  26
   5  -8  -1 2978.08 387.873  44
  -8   3  -1 4946.15 557.095  13
   5  -8  -1 3800.16 495.921   8
   3   5  -1 4332.39 551.689  26
   3   5   0 836.861 244.695  26
   5  -8   0 546.552 173.072  44
   5  -8   0 533.271 197.849   8
  -8   3   0 464.470 197.095  13
   3   5   0 483.943 185.368  12
   5  -8   1 455.707 183.130   8
  -8   3   1 497.983 198.271  13
   3   5   1 767.048 244.588  12
   3   5   1 554.378 207.595  11
   5  -8   2 13420.5 871.460  34
   3   5   2 14181.6 950.938  12
  -8   3   2 14075.4 922.028  13
   5  -8   2 14622.3 970.396   8
   5  -7  -3 13421.7 1041.59  45
   5  -7  -3 11539.8 825.717  44
  -7   2  -3 13817.7 923.880  18
  -7   2  -3 14228.5 989.838  28
   2   5  -3 12736.4 934.301  26
   5  -7  -2 5828.60 760.012  45
   5  -7  -2 6373.57 687.348  44
  -7   2  -2 5830.31 635.677  18
   2   5  -2 5082.64 641.542  20
  -7   2  -2 5591.09 702.036  28
   2   5  -2 5479.17 688.717  26
   5  -7  -1 6395.04 811.245  45
   5  -7  -1 5700.97 681.543  44
  -7   2  -1 6643.85 830.151  13
   5  -7  -1 7617.72 832.372  23
   2   5  -1 7293.60 845.147  20
   5  -7  -1 7401.81 840.631   8
  -7   2  -1 7254.13 835.069  28
   2   5  -1 7266.16 867.958  26
   5  -7   0 37954.1 2189.54   8
   5  -7   0 36214.3 1914.58  44
  -7   2   0 38880.0 2285.04  13
   2   5   0 34727.3 2057.10  12
   2   5   0 41460.6 2338.20  26
  -7   2   1 22407.9 1483.11  14
   5  -7   1 21670.1 1610.96   8
  -7   2   1 22312.6 1650.97  13
   2   5   1 22453.5 1617.55  12
   5  -7   2 12113.1 1122.15   8
   2   5   2 11352.3 1071.73  12
  -7   2   2 9467.46 895.915  36
   2   5   2 10001.3 949.920  11
  -7   2   2 9542.28 991.421  13
   5  -7   2 10355.1 965.661   9
   2   5   3 6835.34 700.316  48
   5  -7   3 6572.44 651.141  34
  -7   2   3 6287.17 629.110  36
   5  -6  -4 6352.46 630.568  45
  -6   1  -4 6859.54 637.582  18
  -6   1  -4 6180.68 581.554  28
  -6   1  -4 6666.61 637.781  16
   1   5  -3 12914.0 1061.10  26
   5  -6  -3 13793.5 1202.38  45
   5  -6  -3 11599.8 907.823  44
  -6   1  -3 12086.7 1067.72  28
   1   5  -2 28894.6 1880.83  26
   5  -6  -2 28692.8 1983.84  45
   5  -6  -2 31566.8 1833.13  44
   1   5  -2 31505.2 1875.73  20
  -6   1  -2 32189.1 1899.23  18
  -6   1  -2 31657.8 1962.63  28
  -6   1  -2 33945.0 1898.14  16
   5  -6  -1 41107.1 2442.34  45
   5  -6  -1 40857.1 2213.04  44
   1   5  -1 40887.2 2341.94  20
  -6   1  -1 41200.5 2200.25  18
  -6   1  -1 43750.2 2441.62  28
   1   5  -1 41231.3 2380.59  26
   5  -6   0 9335.55 1091.84  45
   5  -6   0 10641.1 1001.58  44
   5  -6   0 11790.7 1148.19   8
  -6   1   0 10658.7 1147.37  13
   5  -6   0 10161.1 1068.71  23
   1   5   0 10451.7 1111.66  20
  -6   1   0 10649.9 1081.83  28
   1   5   0 10088.8 1111.91  26
   5  -6   1 15203.2 1363.89   8
  -6   1   1 17937.3 1469.03  14
   5  -6   1 15134.2 1183.14  44
  -6   1   1 17547.6 1495.82  13
   1   5   1 15673.9 1396.99  12
   1   5   1 17121.0 1528.19  26
  -6   1   2 41310.7 2271.74  14
   5  -6   2 38055.4 2361.76   8
  -6   1   2 41635.3 2441.85  13
   1   5   2 39539.4 2421.08  12
   1   5   2 36884.3 2298.20  11
   5  -6   2 41442.5 2507.74   9
  -6   1   3 4699.68 635.719  36
   1   5   3 4707.75 643.090  11
   5  -6   3 4733.13 633.389  34
   5  -6   3 4738.15 673.236   9
   1   5   4 30772.9 1659.97  48
  -6   1   4 30436.1 1543.51  36
   5  -6   4 31370.8 1565.16  34
   5  -6   4 29870.0 1497.48  33
  -5   0  -4 42431.5 2073.34  18
   5  -5  -3 40615.8 2321.15  45
  -5   0  -3 43774.9 2289.69  28
   0   5  -2 21143.0 1530.43  26
   5  -5  -2 18902.2 1534.53  45
   5  -5  -2 20291.9 1413.78  44
  -5   0  -2 21628.4 1446.77  65
   5  -5  -2 20259.3 1338.87  62
  -5   0  -2 20188.0 1526.71  28
   0   5  -1 18936.6 1495.12  26
   5  -5  -1 19048.7 1543.60  45
   5  -5  -1 20241.9 1425.98  44
   0   5  -1 20619.8 1522.36  20
   0   5  -1 19318.9 1191.29  64
  -5   0  -1 20978.4 1479.10  18
   5  -5  -1 21353.8 1324.38  62
  -5   0  -1 21108.8 1481.99  16
  -5   0  -1 19303.9 1498.56  28
   5  -5   0 216747. 7908.08  45
   5  -5   0 224492. 7575.87  44
  -5   0   0 217238. 7801.95  13
   5  -5   0 249531. 8127.35  23
   0   5   0 230293. 7986.05  20
  -5   0   0 228646. 7592.89  18
   0   5   0 223174. 7116.84  64
  -5   0   0 228633. 7861.31  28
  -5   0   0 223339. 7532.67  50
   0   5   0 229919. 7807.56  27
   0   5   0 223635. 7980.66  26
   0   5   1 434.838 223.182  26
   5  -5   1 416.439 215.946  44
   5  -5   1 375.004 216.108   8
   5  -5   1 712.257 308.978  23
  -5   0   1 828.970 346.371  13
   0   5   1 586.057 275.546  12
  -5   0   1 457.283 196.818  50
   5  -5   1 775.414 262.103  49
   5  -5   2 11690.7 1184.14   8
  -5   0   2 11834.8 1200.89  14
  -5   0   2 12142.4 1220.51  13
   0   5   2 12350.5 1280.34  12
   0   5   2 11465.2 1226.41  11
   5  -5   2 12594.4 1319.43   9
   0   5   3 37643.1 2310.10  11
   5  -5   3 35834.3 2065.86  34
   5  -5   3 37865.0 2412.56   9
  -5   0   3 41446.7 2277.09  14
   0   5   4 10269.1 1036.13  48
  -5   0   4 9970.80 841.020  40
  -5   0   4 10452.0 914.506  36
   5  -5   4 10514.9 908.788  34
   5  -5   4 10822.6 929.748  33
  -4  -1  -5 10835.8 753.160  16
  -4  -1  -4 30199.0 1678.87  18
  -4  -1  -3 5106.56 706.483  18
   5  -4  -2 22248.1 1598.61  45
   5  -4  -2 21483.6 1417.17  44
   5  -4  -2 25002.2 1484.62  62
  -4  -1  -2 25696.5 1574.82  65
  -4  -1  -2 24209.0 1625.47  18
  -1   5  -2 19206.2 1375.30  58
  -1   5  -2 23070.9 1267.49  56
  -4  -1  -2 24675.1 1610.73  28
   5  -4  -1 11959.8 1020.10  44
  -4  -1  -1 12772.9 959.075  65
  -4  -1  -1 12084.9 1068.52  18
   5  -4  -1 12645.2 942.042  62
  -1   5  -1 13828.5 924.285  56
  -4  -1  -1 14874.5 1194.16  16
  -1   5   0 1416.75 251.328  64
  -4  -1   0 1561.28 340.500  50
   5  -4   0 1520.86 343.820  49
  -4  -1   1 83737.7 3694.86  14
   5  -4   1 76661.0 3594.12  23
  -1   5   1 80878.7 3451.22  67
  -1   5   1 86882.0 3835.58  11
  -4  -1   1 82015.1 3420.40  50
   5  -4   1 83810.9 3565.12  49
  -4  -1   2 34789.9 2234.40  14
  -4  -1   2 37785.3 2284.69  13
  -1   5   2 46094.9 2545.86  12
  -1   5   2 38881.4 2192.55  67
  -1   5   2 38751.6 2401.95  11
   5  -4   2 42937.7 2551.99   9
  -4  -1   2 39022.3 2121.39  50
   5  -4   2 38386.5 2253.29   8
   5  -4   2 37139.0 2264.48  49
  -1   5   3 13527.5 1335.81  11
   5  -4   3 12622.0 1108.14  34
   5  -4   3 13237.2 1363.66   9
  -4  -1   3 13008.0 1258.56  14
  -1   5   4 27803.2 1864.04  48
  -4  -1   4 26133.6 1567.87  40
  -4  -1   4 25016.9 1580.65  36
   5  -4   4 24879.2 1563.59  34
   5  -4   4 25545.0 1613.63  33
  -1   5   5 1302.49 302.432  48
  -4  -1   5 1425.09 256.498  36
   5  -4   5 726.965 193.684  34
   5  -4   5 1026.18 216.208  33
  -3  -2  -4 39924.8 2109.23  16
  -2   5  -3 3876.07 458.415  56
  -3  -2  -3 3532.21 596.406  65
  -3  -2  -3 3563.91 558.536  18
  -2   5  -3 3505.54 534.247  57
   5  -3  -3 4892.38 676.297  62
  -3  -2  -2 78192.2 3353.30  65
  -3  -2  -2 86108.8 3519.10  18
   5  -3  -2 83047.9 3377.86  62
   5  -3  -2 81999.0 3102.60  61
  -2   5  -2 83589.0 3327.38  57
  -2   5  -2 79419.9 3047.00  56
  -2   5  -2 79118.2 3174.00  54
  -3  -2  -1 15863.1 1056.83   6
   5  -3  -1 16811.3 1088.04  62
   5  -3  -1 17142.4 1055.35  61
  -2   5  -1 17707.4 1049.06  56
   5  -3   0 39519.2 1834.60  61
  -3  -2   0 37640.9 1884.24  50
  -2   5   1 6414.48 788.578  67
  -3  -2   1 7341.10 753.151  50
   5  -3   1 6969.15 782.403  49
  -3  -2   2 17887.7 1466.10  14
  -2   5   2 18028.1 1518.02  11
  -2   5   2 18272.5 1468.27  67
   5  -3   2 20119.3 1629.98  10
  -3  -2   2 17952.2 1430.53  16
   5  -3   2 19433.4 1604.08   9
  -3  -2   2 19970.7 1364.05  50
  -2   5   2 18762.4 1615.17  27
   5  -3   2 23696.8 1648.64  49
  -2   5   3 11097.8 1120.08  48
  -3  -2   3 9798.50 995.753  40
  -3  -2   3 9554.96 906.767  38
   5  -3   3 8471.26 1037.78  10
   5  -3   3 9200.11 987.391  33
  -2   5   4 41561.1 2336.69  48
  -3  -2   4 39209.9 2079.62  40
   5  -3   4 40448.4 2061.09  34
   5  -3   4 39123.2 2174.83  33
   5  -3   5 1013.54 233.466  34
   5  -3   5 599.633 193.773  32
  -2  -3  -5 17681.5 1093.60   7
  -2  -3  -3 12779.4 1121.43   6
   5  -2  -3 13463.9 1192.45  62
  -3   5  -3 12797.6 1058.43  57
  -2  -3  -2 20985.9 1401.74   6
  -3   5  -2 20048.5 1266.89  57
  -2  -3  -2 20346.6 1440.16  16
  -3   5  -2 20658.4 1324.13  54
   5  -2  -2 19076.5 1338.59  62
  -2  -3  -1 13991.5 1028.20   6
   5  -2  -1 12917.2 939.118  61
  -3   5  -1 12870.7 876.906  56
  -3   5  -1 14978.7 1022.79  54
  -2  -3   0 45331.7 2136.29   6
   5  -2   0 48689.9 2090.85  61
  -3   5   0 47850.8 1967.49  56
  -3   5   1 107085. 4336.15  67
  -2  -3   1 114089. 4109.85  50
   5  -2   1 102936. 4131.71  49
  -2  -3   2 72108.7 3318.60  40
  -2  -3   2 80392.0 3320.06  38
  -3   5   2 81563.9 3640.01  67
   5  -2   2 76140.1 3310.16  33
   5  -2   2 78674.7 3742.71  10
   5  -2   2 72468.0 3538.63   9
  -2  -3   2 82756.1 3310.66  50
  -3   5   2 69617.7 3633.89  27
   5  -2   2 80923.2 3535.31  49
  -2  -3   2 77214.7 3505.39  14
  -3   5   3 15712.9 1081.90  43
  -2  -3   3 14551.4 1252.62  40
  -2  -3   3 16711.6 1236.57  38
   5  -2   3 16794.6 1526.70  10
   5  -2   3 16080.7 1331.57  33
  -2  -3   4 23511.5 1490.02  40
  -3   5   4 19581.1 1397.12  37
  -2  -3   4 20193.3 1389.43  35
   5  -2   4 21710.4 1507.69  33
   5  -2   4 19669.5 1508.46  32
  -3   5   5 686.208 235.803  48
  -2  -3   5 613.400 184.391  35
   5  -2   5 582.031 199.362  32
  -1  -4  -5 870.020 228.042   7
  -1  -4  -4 31003.7 1777.34   7
  -1  -4  -3 7274.35 862.298   7
  -1  -4  -2 14771.0 1197.71   6
  -4   5  -2 15659.9 1130.77  19
   5  -1  -2 14130.7 1143.39  62
  -1  -4  -2 16538.3 1321.27   7
  -4   5  -2 14048.2 1143.73  54
   5  -1  -1 308.578 322.347  25
  -1  -4  -1 1.36018 125.867   6
  -4   5  -1 34.3167 109.074  19
  -1  -4  -1 85.9226 123.564   7
  -4   5  -1 253.615 162.219  54
  -4   5   0 42029.1 1825.88  56
   5  -1   0 46521.3 2043.99  61
  -1  -4   0 46064.6 2243.31   6
   5  -1   1 2284.66 484.353  25
  -4   5   1 2894.55 414.646  43
   5  -1   1 2310.14 373.011  61
  -1  -4   1 2829.11 479.111  38
  -4   5   1 2639.48 485.960  67
  -1  -4   1 2689.53 505.201  16
  -4   5   1 2003.02 483.828  27
   5  -1   2 13530.1 1289.48  25
  -4   5   2 15109.0 1078.72  43
  -1  -4   2 16708.4 1296.68  40
  -1  -4   2 15145.1 1189.57  38
  -1  -4   2 17037.7 1363.52   7
  -4   5   2 15034.5 1302.08  67
   5  -1   2 15379.6 1217.39  33
   5  -1   2 13848.6 1381.56  10
   5  -1   2 14061.0 1226.96  49
  -4   5   3 40.4671 121.243  43
  -1  -4   3-41.6999 108.747  40
  -1  -4   3 367.495 177.898  39
  -4   5   3 296.505 226.375  37
   5  -1   3-98.4030 296.555  10
   5  -1   3-24.4676 135.322  33
   5  -1   3-127.729 145.219  32
  -4   5   4 24691.8 1555.38  37
  -1  -4   4 24628.6 1563.87  35
   5  -1   4 24732.4 1671.83  32
  -4   5   5 3286.53 386.402  37
  -1  -4   5 3529.75 416.084  35
   5  -1   5 3141.69 419.020  32
   0  -5  -4 12591.4 941.271  24
  -5   5  -4 10640.1 888.422  17
   5   0  -3 44298.2 2413.64  25
   0  -5  -3 38084.1 2131.59   7
  -5   5  -3 38997.9 2025.59  15
   5   0  -2 12586.1 1239.03  25
   0  -5  -2 10365.6 1035.63   6
  -5   5  -2 10376.6 921.142  19
   0  -5  -2 12047.3 1117.39   7
  -5   5  -2 12023.2 1054.52  15
   0  -5  -1 875.838 287.920  46
   5   0  -1 957.514 339.115  25
   5   0  -1 367.233 206.955  22
   0  -5  -1 712.246 324.773   6
  -5   5  -1 772.491 267.976  19
  -5   5  -1 741.745 317.267  17
   0  -5  -1 1643.83 382.357   7
  -5   5  -1 559.857 264.442  29
  -5   5  -1 857.567 291.205  54
  -5   5  -1 696.881 267.355  15
   5   0   0 218286. 7902.06  25
  -5   5   0 231984. 7286.68  43
   0  -5   0 239665. 7443.73  24
   0  -5   0 219055. 7455.11  39
   5   0   0 234166. 7711.38  21
  -5   5   0 226020. 7467.12  19
   0  -5   0 235662. 7896.44   7
   5   0   0 219317. 7218.39  61
  -5   5   0 231112. 7728.93  17
  -5   5   0 221749. 7699.12  29
  -5   5   0 212011. 7610.73  54
  -5   5   0 233323. 7607.67  15
   0  -5   0 227215. 7771.16   6
   5   0   1 18582.9 1514.65  25
  -5   5   1 17092.2 1163.12  43
   0  -5   1 20678.4 1382.39  39
   0  -5   1 17551.1 1432.38   7
  -5   5   1 17047.9 1213.92  19
   5   0   1 21648.0 1589.84  10
  -5   5   1 17285.5 1278.80  15
   5   0   2 19131.7 1641.46  25
  -5   5   2 20702.2 1295.04  43
   0  -5   2 19208.7 1382.09  39
  -5   5   2 18915.9 1403.40  37
   5   0   2 20477.2 1650.25  10
   5   0   2 19629.9 1457.42  32
  -5   5   3 39959.6 1862.74  43
   0  -5   3 40377.1 2067.45  39
  -5   5   3 35712.7 2084.45  37
   5   0   3 36486.9 2184.65  32
   5   0   3 40200.2 2086.75  30
  -5   5   4 37940.3 1951.27  41
   0  -5   4 41353.3 1832.19  39
  -5   5   4 40650.0 2004.64  37
   0  -5   4 38640.3 1957.27  35
   5   0   4 41141.3 2131.77  32
   5   0   4 39490.3 1827.06  30
   1  -6  -4-46.1500 106.080  46
   1  -6  -4-61.5952 140.809  24
   5   1  -4-57.8973 92.3910  21
  -6   5  -4 304.103 172.358  29
   1  -6  -3 6254.16 723.936  46
   1  -6  -3 6957.20 731.697  24
  -6   5  -3 6478.70 733.299  17
  -6   5  -3 7405.28 825.591  29
   1  -6  -2 110346. 4370.62  46
   1  -6  -2 113771. 4254.91  24
   5   1  -2 115522. 4515.42  21
  -6   5  -2 102762. 3990.24  19
   1  -6  -2 105881. 4253.99   7
  -6   5  -2 102644. 4302.35  17
  -6   5  -2 105318. 4420.21  29
  -6   5  -2 99772.7 4087.81  15
   5   1  -1 10241.7 1036.64  25
   1  -6  -1 10761.4 1056.28  46
   1  -6  -1 11013.0 982.176  24
   5   1  -1 10109.0 1053.75  21
  -6   5  -1 8826.79 881.589  19
   1  -6  -1 9959.39 1031.57   7
  -6   5  -1 10494.6 1078.63  17
  -6   5  -1 10234.3 1096.66  29
  -6   5  -1 9084.29 947.909  15
   5   1   0 17103.2 1431.08  25
   1  -6   0 16730.2 1312.13  46
   1  -6   0 17032.1 1208.81  24
  -6   5   0 15649.0 1075.47  42
   5   1   0 14097.5 1256.59  21
   1  -6   0 17133.7 1417.79   7
  -6   5   0 15509.6 1224.50  19
  -6   5   0 15808.1 1353.25  17
  -6   5   0 16853.5 1406.42  29
  -6   5   0 15994.2 1290.36  15
   5   1   1 24414.6 1815.65  25
   1  -6   1 24266.0 1713.72   8
  -6   5   1 22789.6 1377.34  42
   1  -6   1 25647.4 1580.25  39
   5   1   1 21222.0 1567.52  21
   1  -6   1 21444.5 1638.82   7
  -6   5   1 23594.4 1642.40  17
   5   1   1 23345.5 1495.00  30
  -6   5   2 242.453 143.018  42
  -6   5   2 15.0398 106.195  37
   5   1   2 64.3076 95.9119  30
   1  -6   3 1665.01 365.744  47
  -6   5   3 2614.64 368.748  42
  -6   5   3 1590.83 373.091  41
   1  -6   3 2143.78 393.942  39
  -6   5   3 1785.06 389.049  37
  -6   5   3 2279.58 462.629  36
   5   1   3 1983.77 382.172  30
  -6   5   4 9497.73 762.973  41
  -6   5   4 10624.7 799.136  37
   1  -6   4 10488.9 732.340  35
   5   1   4 9389.46 765.422  31
   2  -7  -3 8782.17 752.526  46
   2  -7  -3 9799.40 736.273  24
   5   2  -3 8228.67 702.462  21
  -7   5  -3 7834.70 675.481  17
  -7   5  -3 8628.75 772.405  29
  -7   5  -3 8931.85 722.375  28
   2  -7  -2 2811.43 490.611  46
   2  -7  -2 1815.39 362.805  24
   5   2  -2 1945.95 403.152  21
  -7   5  -2 1893.23 398.606  17
  -7   5  -2 2249.24 464.131  29
   2  -7  -1 3050.62 474.539  24
   5   2  -1 2333.42 463.751  21
   5   2  -1 2703.50 472.368  20
  -7   5  -1 2759.33 506.416  17
   2  -7  -1 2779.18 468.469   7
   5   2   0 15459.7 1275.67  25
   2  -7   0 16053.3 1102.69  47
   2  -7   0 14436.7 1071.18  24
  -7   5   0 15332.7 1015.30  42
   2  -7   0 14896.5 1206.43   7
   5   2   0 16556.7 1336.73  21
   5   2   0 13719.3 1089.14  20
  -7   5   0 14801.1 1277.57  17
   2  -7   1 8139.20 786.883  47
   2  -7   1 8652.22 943.261   8
  -7   5   1 7976.77 723.905  42
  -7   5   1 8809.12 960.641  13
   5   2   1 7904.80 890.097  12
   5   2   1 8191.81 769.587  30
   2  -7   2 63737.8 2892.46   8
   2  -7   2 66367.9 2823.97  47
  -7   5   2 70134.4 2712.35  42
  -7   5   2 67666.8 2894.64  41
  -7   5   2 76664.7 2924.71  37
   5   2   2 66493.6 3013.62  12
   5   2   2 71683.8 2881.14  30
   2  -7   3 1841.33 296.676  47
  -7   5   3 1893.75 267.443  42
  -7   5   3 1540.71 311.942  41
  -7   5   3 2156.42 347.334  37
  -7   5   3 1557.47 348.816  36
   5   2   3 1091.84 245.899  31
   3  -8  -2 683.025 160.763  44
  -8   5  -2 398.697 148.671  13
   5   3  -2 457.704 143.824  21
   5   3  -2 291.157 123.067  20
   3  -8  -1 7505.37 748.764   8
  -8   5  -1 7870.48 791.515  13
   5   3  -1 5602.02 580.368  20
   3  -8   0 35755.0 1898.79   8
  -8   5   0 38025.6 1991.13  13
   5   3   0 36241.7 1875.39  12
   3  -8   1 5457.10 607.417   8
   3  -8   1 5811.90 512.905  47
  -8   5   1 5252.58 595.062  13
   5   3   1 5079.80 611.213  12
   3  -8   2 3212.96 344.727  47
   5   3   2 3056.58 391.334  12
  -8   5   2 2581.42 390.662  36
  -8   2  -1 5320.26 538.503  14
   6  -8  -1 4888.52 471.966  44
   2   6  -1 5744.26 593.200  26
  -8   2   0 17385.6 1040.94  14
  -8   2   0 17849.9 1053.49  13
   2   6   0 17042.9 1112.35  11
   6  -8   0 17807.6 1157.44   9
  -8   2   1 12945.2 877.783  13
   2   6   1 11873.9 864.745  11
   6  -8   1 12485.3 843.637   8
   6  -7  -3 7368.96 668.516  23
  -7   1  -3 6227.72 534.109  18
   1   6  -3 7398.02 622.804  27
   6  -7  -2 7241.37 680.113  44
   6  -7  -2 7448.33 775.162  23
  -7   1  -2 6985.01 657.479  18
  -7   1  -2 7359.32 724.709  28
   1   6  -2 7059.54 713.236  27
   1   6  -2 7165.66 743.450  26
   1   6  -1 3056.82 567.272  26
   6  -7  -1 3237.32 487.466  44
   6  -7  -1 3318.14 523.777  23
  -7   1  -1 2737.61 411.232  18
   1   6  -1 2228.13 419.822  27
  -7   1   0 93597.4 3710.51  14
  -7   1   0 85388.8 3513.34  13
   1   6   0 87727.7 3801.93  26
  -7   1   1 350.597 182.494  14
   6  -7   1 651.981 256.136   8
  -7   1   1 543.148 224.791  13
   1   6   1 396.222 173.276  12
   1   6   1 502.843 189.990  11
   6  -7   1 912.707 303.765   9
   1   6   2 25817.3 1534.74  11
   6  -7   2 24504.7 1334.54  34
   6  -7   2 27353.7 1606.11   9
  -7   1   2 24393.9 1348.53  14
   1   6   3 17071.4 1040.99  48
  -7   1   3 16856.6 945.275  40
   6  -7   3 17829.0 995.070  33
   6  -6  -3 2120.78 379.632  45
   6  -6  -3 2601.01 474.486  23
  -6   0  -3 2574.77 434.013  18
  -6   0  -3 1506.56 320.679  28
  -6   0  -3 2103.98 386.347  16
   0   6  -3 1964.19 411.404  27
   6  -6  -2 103095. 4347.72  45
   6  -6  -2 102092. 4065.43  44
   6  -6  -2 117311. 4656.99  23
  -6   0  -2 114140. 4299.23  18
  -6   0  -2 116395. 4301.85  16
  -6   0  -2 104001. 4257.63  28
   0   6  -2 115389. 4470.67  27
   0   6  -2 110882. 4383.48  26
   6  -6  -1 6907.83 800.839  44
   6  -6  -1 7286.38 929.340  23
  -6   0  -1 6527.66 762.967  18
  -6   0  -1 7446.71 799.020  16
  -6   0  -1 8512.07 935.415  28
   0   6  -1 8696.48 961.383  27
   0   6  -1 9340.08 1027.20  26
   0   6   0 6969.60 937.097  26
   6  -6   0 8283.49 875.658  44
   6  -6   0 8461.41 971.891  23
  -6   0   0 7220.99 776.122  18
   0   6   0 8896.19 961.480  27
  -6   0   1 50597.3 2711.41  14
  -6   0   1 50549.9 2664.62  13
   6  -6   1 50876.8 2600.91  23
   0   6   1 51937.7 2822.21  11
   6  -6   1 58264.4 3054.10   9
  -6   0   2 3337.27 561.677  14
   0   6   2 4015.17 660.498  11
   6  -6   2 3821.55 659.048   9
   0   6   3 13356.8 1092.55  48
  -6   0   3 12218.7 956.565  40
   6  -6   3 13350.0 1004.66  33
   6  -5  -4 8141.79 646.447  23
  -5  -1  -4 9062.15 689.667  18
  -5  -1  -4 9956.88 794.873  16
  -1   6  -4 10580.1 823.380  27
   6  -5  -3 1624.83 405.118  23
  -5  -1  -3 2088.88 413.750  18
  -5  -1  -3 2450.91 443.398  16
  -1   6  -3 2661.90 523.184  27
   6  -5  -2 819.563 274.819  45
   6  -5  -2 427.396 207.626  44
   6  -5  -2 240.100 235.761  23
  -5  -1  -2 342.642 233.248  18
  -5  -1  -2 142.460 185.383  28
  -5  -1  -2 521.006 262.576  16
  -1   6  -2 277.143 154.426  27
   6  -5  -1 20220.6 1465.01  44
   6  -5  -1 23651.5 1786.57  23
  -5  -1  -1 20126.0 1490.37  18
  -5  -1  -1 24003.0 1635.66  16
  -5  -1  -1 19872.6 1539.47  28
  -1   6  -1 22047.8 1695.77  27
  -1   6  -1 24546.0 1780.84  26
   6  -5   0 15917.0 1288.29  44
   6  -5   0 16374.1 1470.72  23
   6  -5   0 17610.0 1340.39  22
  -1   6   0 19229.3 1564.97  11
  -5  -1   0 14877.9 1240.14  18
  -5  -1   0 17270.5 1347.10  16
  -1   6   0 17720.5 1509.85  27
  -1   6   0 16802.1 1537.68  26
  -5  -1   1 10078.1 1110.18  14
  -5  -1   1 10191.7 1051.42  13
   6  -5   1 9886.86 1085.12  23
  -1   6   1 11623.2 1230.77  11
   6  -5   1 11069.6 1238.55   9
  -1   6   1 10188.3 1107.94  27
  -5  -1   2 106898. 4487.51  14
  -1   6   2 103730. 4582.32  11
   6  -5   2 107684. 4513.65  10
   6  -5   2 108037. 4717.30   9
  -1   6   3 6478.55 800.851  48
  -5  -1   3 6147.55 703.887  40
  -5  -1   3 7297.66 715.604  38
   6  -5   3 6519.58 752.788  33
  -1   6   4 175.446 124.630  48
  -5  -1   4 56.5863 92.3167  40
   6  -5   4 177.721 116.505  33
   6  -4  -4 23283.3 1219.76  22
  -4  -2  -4 28652.3 1486.67  16
   6  -4  -3 19939.2 1447.07  23
  -4  -2  -3 20479.3 1373.12  18
  -4  -2  -3 20265.3 1466.11  16
  -2   6  -3 20715.4 1526.06  27
   6  -4  -2 11660.0 1209.74  23
  -4  -2  -2 10631.2 1042.43  18
  -4  -2  -2 10859.7 1095.03  16
  -2   6  -2 9701.08 1121.14  27
   6  -4  -1 10740.1 1157.46  23
  -4  -2  -1 10534.4 1038.62  18
  -2   6  -1 9956.13 838.488  56
  -4  -2  -1 9253.14 999.206  16
  -2   6  -1 9967.84 1135.35  27
  -4  -2   0 169296. 6233.44  14
   6  -4   0 168716. 6415.22  23
   6  -4   0 181975. 6221.84  22
  -4  -2   0 164763. 6121.48  16
  -4  -2   0 153195. 5682.61  50
  -2   6   0 174969. 6551.02  27
  -4  -2   1 35456.5 2201.05  14
   6  -4   1 36077.5 2276.39  23
   6  -4   1 37396.7 2036.42  22
  -2   6   1 44266.1 2533.76  11
  -2   6   1 37913.1 2202.57  67
  -4  -2   1 39763.9 2241.75  16
   6  -4   1 37678.0 2366.08   9
  -4  -2   1 34515.2 1983.49  50
  -2   6   1 37113.4 2399.42  27
   6  -4   1 36290.5 2170.98  49
  -4  -2   2 35469.9 2181.01  14
  -4  -2   2 36567.0 2095.49  40
  -2   6   2 35028.1 2301.72  11
   6  -4   2 33379.4 1988.04  33
   6  -4   2 38717.2 2381.29  10
   6  -4   2 33759.5 2273.60   9
  -2   6   2 33549.9 2232.20  27
  -2   6   3 38848.8 2162.63  48
  -4  -2   3 37624.8 2064.71  40
  -4  -2   3 37423.4 1938.59  38
   6  -4   3 35325.8 2156.67  10
   6  -4   3 39853.5 2129.56  33
  -2   6   4 1316.29 310.438  48
  -4  -2   4 1433.97 283.987  40
   6  -4   4 1401.50 308.288  33
  -3  -3  -4 14287.9 1063.39   7
   6  -3  -3 13972.4 1144.45  22
  -3   6  -3 14412.5 1092.51  19
  -3  -3  -3 12913.9 1144.69   7
  -3  -3  -3 13153.1 1123.30  16
  -3  -3  -2 13838.4 1135.99   6
   6  -3  -2 16071.9 1340.64  23
   6  -3  -2 15573.5 1334.95  22
  -3  -3  -2 13371.2 1154.92  18
  -3  -3  -2 15953.4 1272.49   7
  -3  -3  -2 15745.2 1317.14  16
  -3   6  -2 16504.1 1434.37  27
   6  -3  -1 3910.05 668.605  23
   6  -3  -1 3680.55 634.762  22
  -3  -3  -1 3343.37 567.269  18
   6  -3  -1 2542.10 422.846  61
  -3   6  -1 3373.93 460.087  56
  -3  -3  -1 3595.77 567.470   7
  -3  -3  -1 3650.67 614.704  16
  -3   6  -1 4354.45 762.447  27
  -3  -3   0 135111. 5304.28  14
   6  -3   0 153454. 5621.26  25
   6  -3   0 133771. 5529.39  23
   6  -3   0 145031. 5460.17  22
  -3  -3   0 132578. 5038.06  38
   6  -3   0 142922. 4974.32  61
  -3  -3   0 136825. 5420.47  16
  -3   6   0 154899. 4941.25  56
  -3   6   0 152851. 5941.07  27
  -3  -3   1 20815.0 1554.71  14
  -3  -3   1 20518.2 1439.81  40
   6  -3   1 19040.5 1413.87  22
  -3  -3   1 20923.4 1444.11  38
  -3   6   1 20810.4 1625.46  11
  -3   6   1 19445.7 1538.88  67
  -3  -3   1 21017.0 1578.94  16
   6  -3   1 21154.4 1610.38   9
  -3  -3   1 20795.5 1408.45  50
  -3   6   1 21191.9 1748.45  27
  -3  -3   2 3393.27 636.021  14
  -3  -3   2 3433.74 567.009  40
  -3  -3   2 3440.21 565.569  38
   6  -3   2 3611.24 570.604  33
   6  -3   2 3340.36 650.642  10
   6  -3   2 3286.60 635.811   9
  -3   6   2 2360.19 568.340  27
  -3   6   3 46461.0 2092.51  43
  -3  -3   3 41737.8 2262.11  40
  -3  -3   3 44324.0 2183.60  38
   6  -3   3 46169.0 2577.30  10
   6  -3   3 43583.9 2306.75  33
  -3  -3   4 3308.76 446.389  40
  -3   6   4 2893.07 437.478  37
   6  -3   4 2894.46 435.354  33
   6  -3   4 3113.10 497.704  32
  -2  -4  -4 813.818 228.412   7
  -4   6  -4 972.400 234.712  15
  -4   6  -3 12923.8 988.847  19
  -2  -4  -3 13652.4 1170.86   7
   6  -2  -2 136901. 5214.45  22
  -4   6  -2 140336. 5051.53  19
  -2  -4  -2 141982. 5307.26   7
  -2  -4  -2 135916. 5181.49  16
  -2  -4  -1 6630.97 772.177   6
   6  -2  -1 7269.73 979.726  25
   6  -2  -1 6582.31 822.175  22
  -4   6  -1 7113.27 788.073  19
  -2  -4  -1 7047.72 848.176   7
   6  -2  -1 6580.03 684.344  61
  -4   6  -1 6291.90 621.681  56
  -2  -4  -1 5503.40 744.944  16
  -4   6  -1 6773.19 898.790  27
   6  -2   0 17212.0 1461.85  25
  -4   6   0 16095.7 1115.94  43
   6  -2   0 17360.2 1389.52  22
  -2  -4   0 17776.5 1242.77  38
  -4   6   0 16634.0 1233.63  19
  -2  -4   0 17764.1 1352.25   7
   6  -2   0 18216.7 1189.03  61
  -2  -4   0 18000.5 1433.15  16
  -4   6   0 17678.5 1079.15  56
  -4   6   0 17191.4 1539.59  27
   6  -2   1 25631.6 1773.56  25
  -4   6   1 26086.5 1520.21  43
  -2  -4   1 28512.6 1700.03  40
  -2  -4   1 27073.3 1664.31  38
  -2  -4   1 23784.2 1647.16   7
  -4   6   1 28960.1 1875.87  67
   6  -2   1 26651.6 1976.31  10
  -2  -4   1 25260.3 1793.14  16
  -4   6   1 25630.4 1966.52  27
   6  -2   2 11736.1 1155.15  25
  -4   6   2 12698.5 1014.88  43
  -2  -4   2 13456.9 1174.87  40
  -2  -4   2 11950.8 1076.23  38
   6  -2   2 14134.3 1136.92  33
   6  -2   2 14202.6 1383.45  10
  -4   6   2 11208.5 1283.32  27
  -4   6   3 22114.3 1299.28  43
  -2  -4   3 23114.8 1533.48  40
  -2  -4   3 22108.1 1396.54  39
  -2  -4   3 22989.5 1445.54  38
  -4   6   3 21374.4 1511.94  37
   6  -2   3 22815.5 1706.70  10
  -4   6   4 115021. 4240.83  37
  -2  -4   4 120692. 4186.98  35
   6  -2   4 123277. 4403.90  32
  -1  -5  -4 34390.1 1523.99  24
  -1  -5  -4 31020.5 1513.32   7
  -5   6  -4 32870.0 1595.09  17
  -5   6  -4 33909.0 1680.75  29
   6  -1  -3 5211.30 727.024  25
  -5   6  -3 4581.38 532.124  19
  -1  -5  -3 5462.95 682.262   7
  -5   6  -3 5272.37 629.132  15
  -1  -5  -2 43029.0 2166.80  46
   6  -1  -2 42963.9 2529.24  25
  -5   6  -2 40551.0 2079.59  19
  -1  -5  -2 41986.1 2333.80   7
  -5   6  -2 42585.1 2220.52  15
   6  -1  -1 17876.4 1530.90  25
   6  -1  -1 15900.1 1274.23  22
  -5   6  -1 18325.3 1304.15  19
  -1  -5  -1 19574.1 1482.07   7
  -5   6  -1 18786.1 1438.85  17
  -5   6  -1 16795.4 1348.04  29
  -5   6  -1 18018.7 1370.55  15
   6  -1   0 9333.72 1064.51  25
  -5   6   0 9962.77 827.666  43
  -5   6   0 10201.0 940.458  19
  -1  -5   0 11143.3 1105.82   7
  -5   6   0 9886.96 973.501  17
  -1  -5   0 10175.4 1044.58  16
  -1  -5   0 9414.82 961.791   6
  -5   6   0 9256.44 1072.95  27
  -5   6   0 10263.1 976.576  15
   6  -1   1 41492.5 2413.83  25
  -5   6   1 40133.1 1980.70  43
  -1  -5   1 40752.9 2306.37   7
  -5   6   1 41968.2 2043.31  19
   6  -1   1 39156.0 2391.62  10
  -5   6   1 37422.0 2439.36  27
   6  -1   2 26849.7 1902.77  25
  -5   6   2 30657.6 1623.68  43
  -1  -5   2 27399.3 1689.78  39
  -5   6   2 26682.6 1713.12  37
   6  -1   2 28148.9 1975.10  10
   6  -1   2 29310.7 1785.78  32
  -5   6   3 13791.9 941.169  43
  -1  -5   3 14950.3 1070.25  39
  -5   6   3 14040.5 1120.71  37
   6  -1   3 14452.3 1162.92  32
   6  -1   3 13507.4 1038.11  30
  -5   6   4 5872.60 560.913  41
  -5   6   4 6199.03 596.046  37
  -1  -5   4 5860.49 567.279  35
   6  -1   4 7033.93 668.401  32
   6  -1   4 7174.95 547.640  30
   0  -6  -3 12962.6 973.855  46
   0  -6  -3 13448.9 951.380  24
   6   0  -3 15470.5 1125.64  21
   0  -6  -3 11954.3 928.028   7
  -6   6  -3 13123.0 1023.55  17
  -6   6  -3 15548.9 1133.82  29
  -6   6  -3 12678.6 912.928  15
   0  -6  -2 5049.55 647.809  46
   6   0  -2 3666.90 575.201  25
   0  -6  -2 3900.48 534.234  24
   6   0  -2 3967.87 601.324  21
  -6   6  -2 3226.04 471.720  19
  -6   6  -2 4428.78 642.675  17
   0  -6  -2 4035.58 611.641   7
  -6   6  -2 4994.01 710.225  29
  -6   6  -2 3924.24 561.662  15
   6   0  -1 46926.0 2600.26  25
   0  -6  -1 47841.0 2401.61  46
   0  -6  -1 54501.3 2440.06  24
   6   0  -1 52442.1 2575.40  21
  -6   6  -1 51694.6 2444.38  19
   0  -6  -1 53117.0 2677.91   7
  -6   6  -1 52512.5 2689.98  17
  -6   6  -1 54026.4 2713.33  29
  -6   6  -1 52451.2 2558.05  15
   6   0   0 8292.40 964.970  25
   6   0   0 8084.15 856.011  21
   0  -6   0 8869.99 980.843   7
  -6   6   0 8961.95 867.663  19
  -6   6   0 8242.34 905.319  17
  -6   6   0 6878.74 802.278  15
   6   0   1 7628.85 949.012  25
  -6   6   1 7949.82 731.060  43
   0  -6   1 7155.16 764.765  39
   0  -6   1 7489.58 893.527   7
   6   0   1 7881.12 784.916  30
  -6   6   2 113135. 4014.35  43
  -6   6   2 108107. 3941.47  42
   0  -6   2 114039. 4224.38  39
  -6   6   2 109400. 4148.47  37
   6   0   2 110449. 4185.64  30
   0  -6   3 1843.48 315.281  47
  -6   6   3 2108.26 295.855  42
   0  -6   3 1727.85 313.803  39
  -6   6   3 1969.75 371.315  37
   6   0   3 1658.95 339.850  32
   6   0   3 2252.74 366.157  30
   1  -7  -3 9019.86 672.115  46
   1  -7  -3 9309.20 641.301  24
   6   1  -3 9770.91 697.711  21
  -7   6  -3 11006.6 796.680  29
   1  -7  -2 14242.8 997.358  46
   1  -7  -2 12549.4 902.114  24
   6   1  -2 12523.7 965.480  21
   1  -7  -2 11513.7 884.615   7
  -7   6  -2 12775.1 1008.64  17
  -7   6  -2 14661.3 1110.58  29
   6   1  -1 5568.28 655.531  25
   1  -7  -1 5287.52 581.613  24
   1  -7  -1 5348.18 645.645   7
   6   1  -1 4603.41 614.017  21
   6   1  -1 5445.77 588.149  20
  -7   6  -1 5497.50 707.445  17
   6   1   0 176435. 6283.45  25
   1  -7   0 183346. 6195.00   8
  -7   6   0 175595. 5673.59  42
   1  -7   0 172262. 6170.70   7
   6   1   0 172754. 6110.82  21
  -7   6   0 180301. 6254.95  17
   6   1   1 8354.01 928.036  25
  -7   6   1 8397.00 700.565  42
   1  -7   1 9961.57 809.958  39
   6   1   1 9312.08 843.630  12
   6   1   1 8155.01 718.151  30
   1  -7   2 12283.6 886.761  47
  -7   6   2 11503.2 790.636  42
  -7   6   2 11436.3 889.960  41
  -7   6   2 13544.4 889.382  37
   6   1   2 11850.7 865.742  30
   1  -7   3 17536.4 924.309  47
  -7   6   3 18781.7 1040.76  41
  -7   6   3 20328.0 1035.84  37
   6   1   3 18215.4 968.856  30
   2  -8  -1 6989.11 630.439   8
  -8   6  -1 5997.82 627.942  13
   6   2  -1 5434.52 559.148  21
   2  -8   0 1203.01 252.145   8
  -8   6   0 1114.76 257.497  13
   2  -8   1 5620.81 465.676  47
  -8   6   1 6511.66 479.375  42
   6   2   1 5189.94 524.225  12
  -7   0  -2 562.596 146.196  14
   7  -7  -2 536.048 171.689  23
   0   7  -2 304.110 140.687  27
  -7   0  -1 19336.5 1208.37  14
   7  -7  -1 18985.1 1198.65  23
   0   7  -1 17663.5 1149.69  27
  -7   0   0 14147.8 1044.39  14
   0   7   0 12692.7 993.764  11
   7  -7   0 13772.6 1106.87   9
  -7   0   1 2056.35 362.459  14
  -7   0   1 1305.21 247.242  40
   0   7   1 1459.62 323.130  11
   7  -7   1 1424.21 335.860   9
  -7   0   2 38985.6 1639.78  40
  -7   0   2 41289.8 1625.68  38
   7  -6  -3 15858.2 978.455  23
   7  -6  -3 18477.3 1015.62  22
  -6  -1  -3 17027.8 988.339  16
  -1   7  -3 17073.5 1057.71  27
  -6  -1  -2 11937.6 913.367  14
   7  -6  -2 11650.4 1004.23  23
   7  -6  -2 12469.5 972.410  22
  -6  -1  -2 10694.2 866.291  18
  -6  -1  -2 10493.1 867.359  16
  -1   7  -2 11521.5 1002.13  27
  -6  -1  -1 9575.22 917.829  14
   7  -6  -1 9773.30 974.938  23
   7  -6  -1 8896.14 834.300  22
  -6  -1  -1 7539.83 767.991  16
  -1   7  -1 9565.54 964.089  27
  -6  -1   0 183977. 6325.20  14
   7  -6   0 170264. 6263.85  23
  -1   7   0 180782. 6300.06  11
  -6  -1   0 173609. 5935.21  16
   7  -6   0 182170. 6482.24   9
  -1   7   0 172853. 6268.69  27
  -6  -1   1 4930.21 652.565  14
  -6  -1   1 4465.57 556.180  40
  -1   7   1 4322.67 651.551  11
   7  -6   1 6352.32 773.822  10
   7  -6   1 5235.80 732.672   9
  -1   7   1 5330.36 658.229  27
  -1   7   2 11478.8 908.582  48
  -6  -1   2 11527.2 897.590  40
  -6  -1   2 13815.2 930.761  38
  -1   7   2 9979.41 934.489  11
   7  -6   2 12339.9 882.113  33
   7  -6   2 10483.6 1006.81   9
  -6  -1   2 13345.9 1009.05  14
  -1   7   3 8956.20 560.579  43
  -6  -1   3 11093.5 721.594  40
   7  -6   3 10351.4 691.035  33
   7  -5  -3 1867.85 357.708  25
   7  -5  -3 1477.90 282.778  23
   7  -5  -3 1786.25 324.194  22
  -2   7  -3 1816.30 308.854  19
  -5  -2  -3 2055.46 358.309  16
  -2   7  -3 1717.81 362.053  27
   7  -5  -2 78506.3 3193.38  25
   7  -5  -2 71147.4 3208.35  23
   7  -5  -2 76631.9 3195.28  22
  -5  -2  -2 62849.5 2916.89  18
  -5  -2  -2 69268.3 3060.25  16
  -2   7  -2 70995.4 3278.64  27
  -5  -2  -1 7905.83 841.262  14
   7  -5  -1 8562.29 990.441  23
   7  -5  -1 10066.0 990.746  22
  -5  -2  -1 9083.00 926.976  16
  -2   7  -1 6848.73 903.952  27
  -5  -2   0 14914.5 1267.68  14
   7  -5   0 16914.3 1399.23  23
   7  -5   0 15518.4 1206.01  22
  -5  -2   0 14193.3 1203.90  16
   7  -5   0 15977.4 1343.35   9
  -2   7   0 15352.9 1386.23  27
  -5  -2   1 2836.26 539.788  14
  -5  -2   1 3568.88 528.927  40
  -2   7   1 3067.87 576.392  11
  -5  -2   1 2612.35 478.839  16
   7  -5   1 3059.58 573.163   9
  -2   7   1 3319.44 590.942  27
  -5  -2   2 2629.03 503.528  14
  -5  -2   2 2328.83 418.791  40
  -5  -2   2 2636.50 423.139  38
   7  -5   2 1962.85 368.438  33
   7  -5   2 2086.89 444.234  10
   7  -5   2 916.081 293.691   9
  -2   7   2 2332.53 451.009  27
  -2   7   3 7902.81 594.457  43
  -5  -2   3 7963.60 690.072  40
  -5  -2   3 8834.88 671.411  38
   7  -5   3 8708.00 707.069  33
   7  -4  -3 3281.15 522.076  25
   7  -4  -3 2322.52 360.777  22
  -3   7  -3 3233.87 419.715  19
  -4  -3  -3 2376.85 382.011   7
  -4  -3  -3 2033.40 371.170  16
   7  -4  -2 71356.4 3180.84  25
   7  -4  -2 54076.4 2720.43  23
   7  -4  -2 59539.7 2819.37  22
  -3   7  -2 65745.7 2715.28  19
  -4  -3  -2 54864.6 2554.99   7
  -4  -3  -2 57538.3 2759.46  16
  -3   7  -2 59202.4 2963.97  27
   7  -4  -1 24556.9 1689.42  25
   7  -4  -1 23011.3 1708.16  23
   7  -4  -1 24898.1 1701.18  22
  -3   7  -1 27720.8 1597.32  19
  -4  -3  -1 23677.9 1646.35  16
  -3   7  -1 25990.8 1930.97  27
  -4  -3   0 850.030 313.172  14
   7  -4   0 1397.97 428.810  23
   7  -4   0 1458.81 370.710  22
  -4  -3   0 1282.14 314.682  38
  -3   7   0 678.268 236.854  19
  -4  -3   0 1274.40 382.802  16
  -3   7   0 1365.24 444.934  27
  -4  -3   1 21013.3 1519.87  14
  -4  -3   1 23469.8 1461.74  40
   7  -4   1 20184.0 1377.80  22
  -4  -3   1 23804.1 1483.94  38
   7  -4   1 22557.8 1764.16  10
  -4  -3   1 22609.2 1580.46  16
   7  -4   1 21894.3 1585.85   9
  -3   7   1 21703.5 1733.07  27
  -3   7   2 17338.9 1135.49  43
  -4  -3   2 16273.2 1189.62  40
  -4  -3   2 14745.4 1123.58  38
   7  -4   2 14939.9 1309.97  10
  -3   7   2 16033.7 1364.59  27
  -3   7   3 1433.81 254.200  43
  -4  -3   3 1510.80 317.218  40
  -4  -3   3 817.669 190.512  39
  -4  -3   3 1018.05 239.497  38
   7  -4   3 1548.58 334.616  10
   7  -4   3 2060.18 377.204  33
   7  -3  -3 5951.42 726.274  25
   7  -3  -3 3956.52 439.166  22
  -4   7  -3 5976.13 564.607  19
  -3  -4  -3 5283.75 599.752   7
   7  -3  -2 5701.65 785.259  25
   7  -3  -2 4475.88 612.003  22
  -4   7  -2 4246.43 563.334  19
  -3  -4  -2 4636.00 622.581   7
  -3  -4  -2 4835.92 633.338  16
   7  -3  -1 4199.96 697.865  25
   7  -3  -1 4077.19 627.596  22
  -4   7  -1 4371.85 587.337  19
  -3  -4  -1 4091.96 597.200   7
  -3  -4  -1 5351.24 726.427  16
  -4   7  -1 4340.72 726.740  27
   7  -3   0 35184.0 2089.92  25
  -4   7   0 38480.4 1806.66  43
   7  -3   0 33681.2 2023.93  22
  -4   7   0 39639.0 1969.82  19
   7  -3   0 36628.8 2305.79  10
  -3  -4   0 33637.5 2066.81  16
  -4   7   0 37799.1 2436.57  27
   7  -3   1 6643.49 782.863  25
  -4   7   1 7522.54 726.916  43
  -3  -4   1 6895.53 732.261  40
  -3  -4   1 7102.02 760.883  38
   7  -3   1 9372.93 1075.97  10
  -4   7   1 7163.21 975.601  27
  -4   7   2 54947.9 2400.05  43
  -3  -4   2 57022.3 2554.16  40
  -3  -4   2 56830.0 2531.84  38
   7  -3   2 51387.7 2769.52  10
  -4   7   3 1906.36 299.070  43
  -3  -4   3 1249.83 240.570  39
  -4   7   3 1179.80 295.222  37
   7  -3   3 1195.93 280.328  32
   7  -2  -3 7509.04 735.716  25
  -5   7  -3 6360.18 555.290  19
  -2  -5  -3 7166.40 677.840   7
  -5   7  -3 7475.54 706.392  17
  -5   7  -3 7571.84 686.737  29
  -5   7  -3 7491.45 664.086  15
   7  -2  -2 12209.3 1109.58  25
   7  -2  -2 9263.41 821.426  22
  -5   7  -2 11112.6 898.725  19
  -2  -5  -2 12022.6 1023.09   7
  -5   7  -2 10922.3 978.973  17
  -5   7  -2 11997.9 968.092  29
  -5   7  -2 12106.3 991.906  15
   7  -2  -1 20921.2 1555.18  25
   7  -2  -1 17516.7 1336.03  22
  -5   7  -1 21600.5 1378.33  19
  -2  -5  -1 21989.5 1499.23   7
  -5   7  -1 24502.0 1534.23  17
  -2  -5  -1 20410.1 1413.25  16
  -5   7  -1 27580.6 1599.60  15
   7  -2   0 38122.1 2182.86  25
  -5   7   0 37853.0 1772.06  43
  -2  -5   0 37490.1 2056.74   7
  -5   7   0 41571.5 2018.75  19
   7  -2   0 37689.7 2169.02  10
  -2  -5   0 36618.8 2104.47  16
  -5   7   0 34438.3 2227.63  27
  -5   7   0 36776.8 1956.97  15
   7  -2   1 7515.21 861.242  25
  -5   7   1 7777.14 706.531  43
  -2  -5   1 6433.90 733.594   7
   7  -2   1 6662.65 851.698  10
  -5   7   1 7130.59 951.313  27
  -5   7   2 6105.12 605.203  43
  -2  -5   2 6466.05 665.489  39
  -5   7   2 4775.10 592.337  37
   7  -2   2 4008.65 635.389  10
  -5   7   3 12987.7 791.644  43
  -2  -5   3 11245.0 782.956  39
  -5   7   3 12519.8 910.698  37
   7  -2   3 13154.6 910.471  32
   7  -2   3 12599.3 838.743  30
  -1  -6  -3 18128.5 937.964  24
   7  -1  -3 17654.6 982.563  21
  -1  -6  -3 17119.0 978.689   7
  -6   7  -3 18014.4 1049.25  17
  -6   7  -3 17728.5 1042.84  29
   7  -1  -2 26823.6 1569.49  25
  -1  -6  -2 27470.5 1406.05  24
   7  -1  -2 29044.9 1515.02  21
  -6   7  -2 28312.6 1438.20  19
  -1  -6  -2 28366.8 1578.89   7
  -6   7  -2 28435.0 1605.85  17
  -6   7  -2 29300.0 1593.85  29
  -6   7  -2 27542.3 1514.42  15
   7  -1  -1 801.233 279.874  25
  -1  -6  -1 366.948 153.688  24
   7  -1  -1 712.209 217.139  21
  -6   7  -1 837.962 254.617  19
  -6   7  -1 682.099 245.360  17
  -1  -6  -1 372.321 205.899   7
  -6   7  -1 417.642 206.814  15
   7  -1   0 79963.1 3601.82  25
  -1  -6   0 85874.6 3554.50   7
  -6   7   0 88855.5 3407.14  19
  -6   7   0 88194.5 3440.38  15
   7  -1   1 2415.88 481.040  25
  -6   7   1 3647.59 437.786  43
  -1  -6   1 2633.23 451.467   7
  -1  -6   1 3249.95 460.213  39
   7  -1   1 2885.63 421.803  30
  -6   7   2 7464.36 622.357  43
  -6   7   2 6610.75 578.688  42
  -1  -6   2 7043.94 649.511  39
  -6   7   2 6831.45 616.205  37
   7  -1   2 7169.98 653.246  30
  -6   7   3 5921.82 547.745  41
  -1  -6   3 7412.33 538.802  39
  -1  -6   3 6411.06 523.041  35
   7  -1   3 6880.86 532.988  30
   0  -7  -2 38073.0 1592.79  24
   7   0  -2 40987.4 1720.23  21
   0  -7  -2 40478.0 1718.26   7
  -7   7  -2 44391.5 1858.75  17
   7   0  -1 1133.57 273.175  25
   0  -7  -1 1172.71 212.027  24
   7   0  -1 1696.93 310.120  21
  -7   7  -1 1805.76 350.037  17
   0  -7  -1 1537.91 312.337   7
   7   0   0 13799.6 1047.53  25
  -7   7   0 12494.2 740.938  42
   0  -7   0 13514.9 991.803   7
  -7   7   0 11821.9 902.788  17
  -7   7   1 18726.3 989.655  42
   0  -7   1 20164.5 1040.80  39
   7   0   1 18305.3 997.687  30
   0  -7   2 765.913 173.633  47
  -7   7   2 766.980 166.420  42
   7   0   2 827.075 173.523  30
   8  -6  -1 4794.85 464.578  22
  -2   8  -1 6124.45 460.854  19
  -6  -2  -1 4570.86 470.910  16
  -2   8  -1 5456.32 588.569  27
  -6  -2   0 1367.30 263.548  14
  -6  -2   0 1727.56 280.039  16
   8  -6   0 1267.28 311.452  10
  -2   8   0 1809.75 332.918  27
  -2   8   1 5675.47 436.403  43
  -6  -2   1 5473.00 472.082  38
   8  -6   1 6039.07 600.583  10
   8  -6   1 4736.73 515.129   9
  -6  -2   1 5620.53 542.308  14
   8  -5  -2 2846.28 361.758  22
  -3   8  -2 2781.42 332.742  19
  -5  -3  -2 2699.67 367.832  16
  -3   8  -2 3103.40 414.538  27
   8  -5  -1 5493.84 576.818  22
  -3   8  -1 6194.29 547.174  19
  -5  -3  -1 5594.86 604.158  16
  -3   8  -1 5105.62 643.260  27
  -5  -3   0 34322.1 1720.78  16
  -3   8   0 33586.2 1899.82  27
  -5  -3   0 32342.4 1606.85  14
  -3   8   1 6773.76 544.095  43
  -5  -3   1 7617.47 612.927  38
   8  -5   1 5957.37 683.416  10
  -3   8   1 6745.45 710.388  27
  -3   8   2 410.674 122.820  43
  -5  -3   2 211.865 125.624  38
   8  -5   2 178.475 71.8012  10
   8  -4  -2 3256.98 410.651  25
   8  -4  -2 3264.15 384.529  22
  -4   8  -2 3065.46 368.161  19
  -4  -4  -2 1811.13 304.629  16
  -4   8  -2 2649.65 354.535  15
   8  -4  -1 812.361 220.987  25
   8  -4  -1 758.272 216.110  22
  -4   8  -1 832.674 228.486  19
   8  -4  -1 848.826 247.365  10
  -4  -4  -1 860.438 248.790  16
  -4   8  -1 687.935 210.795  27
  -4   8  -1 1123.10 232.082  15
  -4   8   0 7371.44 600.597  19
   8  -4   0 7573.84 809.700  10
  -4  -4   0 6259.38 674.551  16
  -4   8   0 7167.73 821.680  27
  -4   8   1 3978.99 418.036  43
  -4  -4   1 4032.44 451.028  38
   8  -4   1 4245.59 593.721  10
  -4   8   1 3650.40 552.288  27
  -4   8   2 41066.8 1589.95  43
  -4  -4   2 37357.7 1590.29  39
  -4   8   2 35976.3 1601.97  37
   8  -4   2 38404.4 1830.66  10
   8  -3  -2 13707.9 910.317  25
  -3  -5  -2 14149.2 857.599   7
  -5   8  -2 14185.3 829.217  19
  -5   8  -2 14526.9 873.699  15
   8  -3  -1 340.783 150.585  25
  -5   8  -1 555.208 169.760  19
  -3  -5  -1 435.876 156.730   7
  -5   8  -1 462.042 192.578  27
  -5   8  -1 757.377 203.140  15
   8  -3   0 447.442 172.910  25
  -3  -5   0 473.960 169.025  39
  -5   8   0 718.415 184.165  19
   8  -3   0 813.079 250.176  10
  -5   8   0 868.234 269.442  27
  -5   8   1 4423.36 422.457  43
  -3  -5   1 4942.04 485.718  39
   8  -3   1 4153.94 536.661  10
  -5   8   2 8743.62 578.178  43
  -3  -5   2 7973.34 580.136  39
   8  -3   2 7854.82 585.485  30
   8  -2  -1 10516.0 818.997  25
  -2  -6  -1 12683.2 825.909   7
  -6   8  -1 12651.2 789.761  19
   8  -2   0 16920.1 1102.66  25
  -2  -6   0 16994.1 997.253   7
  -6   8   0 18169.9 981.473  19
  -6   8   1 5878.35 456.580  42
  -2  -6   1 5986.30 481.170  39
   0   0   0    0.00    0.00   0
;
_shelx_hkl_checksum              75556
#END Tags that were not found in dictionaries
loop_
_space_group_symop_operation_xyz
'x, y, z'
'-y, x-y, z+1/3'
'-x+y, -x, z+2/3'
loop_
_atom_site_label
_atom_site_type_symbol
_atom_site_fract_x
_atom_site_fract_y
_atom_site_fract_z
_atom_site_U_iso_or_equiv
_atom_site_adp_type
_atom_site_occupancy
_atom_site_site_symmetry_order
_atom_site_calc_flag
_atom_site_refinement_flags_posn
_atom_site_refinement_flags_adp
O1 O -0.0122(3) 0.7668(3) 0.6899(4) 0.0183(7) Uani 1 1 d . .
O2 O 0.0014(3) 0.4569(4) 0.6575(4) 0.0245(8) Uani 1 1 d . .
N1 N -0.0289(3) 0.7545(4) 1.1782(6) 0.0151(7) Uani 1 1 d . .
H1A H -0.0125 0.7469 1.3420 0.023 Uiso 1 1 calc R U
H1B H 0.0634 0.8945 1.1256 0.023 Uiso 1 1 calc R U
H1C H -0.1707 0.7168 1.1447 0.023 Uiso 1 1 calc R U
C1 C 0.0003(4) 0.6074(5) 0.7785(6) 0.0162(9) Uani 1 1 d . .
C2 C 0.0248(5) 0.6018(5) 1.0525(6) 0.0187(9) Uani 1 1 d . .
H2A H -0.0739 0.4501 1.1124 0.022 Uiso 1 1 calc R U
H2B H 0.1783 0.6416 1.0918 0.022 Uiso 1 1 calc R U
loop_
_atom_site_aniso_label
_atom_site_aniso_U_11
_atom_site_aniso_U_22
_atom_site_aniso_U_33
_atom_site_aniso_U_23
_atom_site_aniso_U_13
_atom_site_aniso_U_12
O1 0.0263(13) 0.0174(14) 0.0139(14) 0.0024(12) 0.0012(12) 0.0130(11)
O2 0.0387(15) 0.0213(14) 0.0164(15) -0.0021(10) 0.0033(10) 0.0172(12)
N1 0.0180(14) 0.0164(14) 0.0114(14) 0.0010(11) -0.0013(13) 0.0090(12)
C1 0.0129(18) 0.018(2) 0.0151(17) 0.001(2) 0.0025(16) 0.0057(15)
C2 0.0228(19) 0.0206(18) 0.0177(17) -0.0002(14) 0.0002(15) 0.0146(15)
loop_
_atom_type_symbol
_atom_type_description
_atom_type_scat_dispersion_real
_atom_type_scat_dispersion_imag
_atom_type_scat_source
C C 0.0181 0.0091 'International Tables Vol C Tables 4.2.6.8 and 6.1.1.4'
H H 0.0000 0.0000 'International Tables Vol C Tables 4.2.6.8 and 6.1.1.4'
N N 0.0311 0.0180 'International Tables Vol C Tables 4.2.6.8 and 6.1.1.4'
O O 0.0492 0.0322 'International Tables Vol C Tables 4.2.6.8 and 6.1.1.4'
loop_
_geom_angle_atom_site_label_1
_geom_angle_atom_site_label_2
_geom_angle_atom_site_label_3
_geom_angle
C2 N1 H1A 109.5
C2 N1 H1B 109.5
H1A N1 H1B 109.5
C2 N1 H1C 109.5
H1A N1 H1C 109.5
H1B N1 H1C 109.5
O2 C1 O1 125.2(3)
O2 C1 C2 117.1(3)
O1 C1 C2 117.7(3)
N1 C2 C1 111.8(2)
N1 C2 H2A 109.3
C1 C2 H2A 109.3
N1 C2 H2B 109.3
C1 C2 H2B 109.3
H2A C2 H2B 107.9
loop_
_geom_bond_atom_site_label_1
_geom_bond_atom_site_label_2
_geom_bond_distance
O1 C1 1.260(4)
O2 C1 1.248(4)
N1 C2 1.471(4)
N1 H1A 0.9100
N1 H1B 0.9100
N1 H1C 0.9100
C1 C2 1.514(5)
C2 H2A 0.9900
C2 H2B 0.9900
loop_
_geom_torsion_atom_site_label_1
_geom_torsion_atom_site_label_2
_geom_torsion_atom_site_label_3
_geom_torsion_atom_site_label_4
_geom_torsion
O2 C1 C2 N1 -167.0(2)
O1 C1 C2 N1 15.2(4)
