#------------------------------------------------------------------------------
#$Date: 2016-03-26 22:56:04 +0200 (Sat, 26 Mar 2016) $
#$Revision: 180523 $
#$URL: svn://www.crystallography.net/cod/cif/7/21/92/7219221.cif $
#------------------------------------------------------------------------------
#
# This file is available in the Crystallography Open Database (COD),
# http://www.crystallography.net/
#
# All data on this site have been placed in the public domain by the
# contributors.
#
data_7219221
loop_
_publ_author_name
'Frontera, Antonio'
'Banik, Rupak'
'Roy, Subhadip'
'Bauza, Antonio'
'Das, Subrata'
_publ_section_title
;
 Cadmium(II) complexes containing N,N&#x00B4;-dimethylvioluric acid as
 ligand or counteranion: Synthesis, characterization, crystal structures
 and DFT study
;
_journal_name_full               'RSC Adv.'
_journal_paper_doi               10.1039/C4RA10251G
_journal_year                    2015
_chemical_formula_moiety         '2(C6 H6 N3 O4), C10 H18 Cd N2 O4'
_chemical_formula_sum            'C22 H30 Cd N8 O12'
_chemical_formula_weight         710.94
_chemical_name_systematic
;
 ?
;
_space_group_crystal_system      triclinic
_space_group_IT_number           2
_space_group_name_Hall           '-P 1'
_space_group_name_H-M_alt        'P -1'
_symmetry_space_group_name_Hall  '-P 1'
_symmetry_space_group_name_H-M   'P -1'
_atom_sites_solution_hydrogens   mixed
_audit_creation_date             2014-04-17
_audit_creation_method
;
Olex2 1.2-ac21
(compiled 2014.04.04 svn.r2922, GUI svn.r3563)
;
_audit_update_record
;
2014-07-31 deposited with the CCDC.
2015-01-05 downloaded from the CCDC.
;
_cell_angle_alpha                88.351(2)
_cell_angle_beta                 85.190(2)
_cell_angle_gamma                62.638(2)
_cell_formula_units_Z            1
_cell_length_a                   8.4597(5)
_cell_length_b                   9.1787(5)
_cell_length_c                   10.2999(6)
_cell_measurement_reflns_used    3341
_cell_measurement_temperature    296(2)
_cell_measurement_theta_max      25.998
_cell_measurement_theta_min      2.499
_cell_volume                     707.75(7)
_computing_data_collection       'Bruker Smart Apex II'
_computing_data_reduction        'Bruker SAINT (2001)'
_computing_molecular_graphics    'Olex2 (Dolomanov et al., 2009)'
_computing_publication_material  'Olex2 (Dolomanov et al., 2009)'
_computing_structure_refinement  'ShelXL (Sheldrick, 2008)'
_diffrn_ambient_temperature      296(2)
_diffrn_measured_fraction_theta_full 0.991
_diffrn_measured_fraction_theta_max 0.991
_diffrn_measurement_device_type  'Bruker APEXII CCD area-detector'
_diffrn_measurement_method       '\w scans and \f scans'
_diffrn_radiation_type           MoK\a
_diffrn_radiation_wavelength     0.71073
_diffrn_reflns_av_R_equivalents  0.0250
_diffrn_reflns_av_unetI/netI     0.0166
_diffrn_reflns_Laue_measured_fraction_full 0.991
_diffrn_reflns_Laue_measured_fraction_max 0.991
_diffrn_reflns_limit_h_max       10
_diffrn_reflns_limit_h_min       -10
_diffrn_reflns_limit_k_max       11
_diffrn_reflns_limit_k_min       -11
_diffrn_reflns_limit_l_max       12
_diffrn_reflns_limit_l_min       -12
_diffrn_reflns_number            12467
_diffrn_reflns_point_group_measured_fraction_full 0.991
_diffrn_reflns_point_group_measured_fraction_max 0.991
_diffrn_reflns_theta_full        26.000
_diffrn_reflns_theta_max         25.998
_diffrn_reflns_theta_min         2.499
_exptl_absorpt_coefficient_mu    0.848
_exptl_absorpt_correction_T_max  25.998
_exptl_absorpt_correction_T_min  2.499
_exptl_absorpt_correction_type   multi-scan
_exptl_absorpt_process_details   'Bruker SADABS'
_exptl_crystal_colour            Pink
_exptl_crystal_density_diffrn    1.668
_exptl_crystal_description       needle
_exptl_crystal_F_000             362
_exptl_crystal_size_max          0.3
_exptl_crystal_size_mid          0.1
_exptl_crystal_size_min          0.1
_exptl_transmission_factor_max   0.8478
_exptl_transmission_factor_min   0.7008
_refine_diff_density_max         0.433
_refine_diff_density_min         -0.477
_refine_diff_density_rms         0.126
_refine_ls_extinction_coef       0.023(3)
_refine_ls_extinction_expression Fc^*^=kFc[1+0.001xFc^2^\l^3^/sin(2\q)]^-1/4^
_refine_ls_extinction_method     SHELXL
_refine_ls_goodness_of_fit_ref   1.218
_refine_ls_hydrogen_treatment    mixed
_refine_ls_matrix_type           full
_refine_ls_number_parameters     215
_refine_ls_number_reflns         2766
_refine_ls_number_restraints     12
_refine_ls_restrained_S_all      1.217
_refine_ls_R_factor_all          0.0233
_refine_ls_R_factor_gt           0.0231
_refine_ls_shift/su_max          0.001
_refine_ls_shift/su_mean         0.000
_refine_ls_structure_factor_coef Fsqd
_refine_ls_weighting_details
;
 w=1/[\s^2^(Fo^2^)+(0.0439P)^2^+0.0695P]
 where P=(Fo^2^+2Fc^2^)/3
;
_refine_ls_weighting_scheme      calc
_refine_ls_wR_factor_gt          0.0644
_refine_ls_wR_factor_ref         0.0646
_reflns_Friedel_coverage         0.000
_reflns_number_gt                2746
_reflns_number_total             2766
_reflns_threshold_expression     'I > 2\s(I)'
_cod_data_source_file            c4ra10251g2.cif
_cod_data_source_block           3
_cod_database_code               7219221
#BEGIN Tags that were not found in dictionaries:
_shelxl_version_number           2013-2
_shelx_space_group_comment
;
The symmetry employed for this shelxl refinement is uniquely defined
by the following loop, which should always be used as a source of
symmetry information in preference to the above space-group names.
They are only intended as comments.
;
_olex2_refinement_description
;
1. Fixed Uiso
 At 1.2 times of:
  All C(H) groups
 At 1.5 times of:
  All C(H,H,H) groups
2. Restrained distances
 H2WB-O2W = O2W-H2WA
 0.85 with sigma of 0.02
 H1WA-O1W = O1W-H1WB
 0.85 with sigma of 0.02
 H2WB-H2WA
 1.301 with sigma of 0.04
 H1WA-H1WB
 1.301 with sigma of 0.04
 O2W-H2WB \\sim O2W-H2WA \\sim O1W-H1WA \\sim O1W-H1WB
 with sigma of 0.001
3.a Aromatic/amide H refined with riding coordinates:
 C1(H1), C2(H2), C3(H3), C5(H5), C7(H7)
3.b Idealised Me refined as rotating group:
 C9(H9A,H9B,H9C), C11(H11A,H11B,H11C)
;
_shelx_res_file
;
TITL
CELL 0.71073 8.4597 9.1787 10.2999 88.351 85.19 62.638
ZERR 1 0.0005 0.0005 0.0006 0.002 0.002 0.002
LATT 1

SFAC C H Cd N O
UNIT 22 30 1 8 12
EQIV $1 -X,1-Y,1-Z
EQIV $2 1+X,+Y,+Z
DFIX 0.85 H2Wb O2W O2W H2Wa
DFIX 0.85 H1Wa O1W O1W H1Wb
SADI 0.001 O2W H2Wb O2W H2Wa O1W H1Wa O1W H1Wb
DANG 1.301 H2Wb H2Wa
DANG 1.301 H1Wa H1Wb

REM <olex2.extras>
REM <selected_cif_records
REM  <bonds
REM   <row "$M">
REM  >
REM  <angles
REM   <row "$* $M $*">
REM  >
REM >
REM </olex2.extras>

L.S. 4
PLAN  20
TEMP 23
HTAB O1W O1
HTAB O1W O1_$1
HTAB O1W O4
HTAB O2W O2_$2
HTAB O2W O4
HTAB O2W N2_$2
MORE -1
BOND $H
CONF
fmap 2
acta 52
OMIT -3 52
REM <HKL>X:/OlexSys/Structures/Pranajit/R22/R22_0m.hkl</HKL>

WGHT    0.043900    0.069500
EXTI    0.023442
FVAR       0.18273
O1    5   -0.059249    0.494155    0.670360    11.00000    0.04134    0.07071 =
         0.04899    0.01700   -0.01675   -0.02939
O2    5   -0.242826    0.300084    0.952675    11.00000    0.04315    0.11090 =
         0.07258    0.02279   -0.01569   -0.04911
O3    5    0.253459    0.119183    1.169769    11.00000    0.05663    0.08751 =
         0.04924    0.02369   -0.02017   -0.03410
O4    5    0.232003    0.412687    0.803910    11.00000    0.04106    0.06704 =
         0.04492    0.01141   -0.01288   -0.03345
N2    4   -0.114540    0.428570    0.762941    11.00000    0.03337    0.05634 =
         0.04419    0.00344   -0.01044   -0.02050
N3    4    0.004438    0.210436    1.062016    11.00000    0.03979    0.05871 =
         0.03805    0.00308   -0.00248   -0.02667
N4    4    0.244298    0.262267    0.984256    11.00000    0.03032    0.05289 =
         0.03600    0.00302   -0.00933   -0.01986
C4    1   -0.015015    0.361730    0.862252    11.00000    0.02885    0.04730 =
         0.03716   -0.00138   -0.00618   -0.01747
C6    1   -0.096717    0.291633    0.959040    11.00000    0.03430    0.05729 =
         0.04440    0.00056   -0.00530   -0.02255
C8    1    0.171968    0.192981    1.078037    11.00000    0.03840    0.05041 =
         0.03623    0.00096   -0.00585   -0.01910
C9    1    0.421547    0.247518    1.002297    11.00000    0.03509    0.07693 =
         0.05373    0.00978   -0.01785   -0.02843
AFIX 137
H9A   2    0.411071    0.354170    1.018608    11.00000   -1.50000
H9B   2    0.499205    0.200889    0.925030    11.00000   -1.50000
H9C   2    0.470144    0.177861    1.075038    11.00000   -1.50000
AFIX   0
C10   1    0.158945    0.351166    0.877676    11.00000    0.02935    0.04180 =
         0.03329   -0.00184   -0.00672   -0.01617
C11   1   -0.075108    0.143029    1.164036    11.00000    0.06710    0.09320 =
         0.05393    0.01565   -0.00010   -0.04978
AFIX 137
H11A  2    0.011128    0.033936    1.184531    11.00000   -1.50000
H11B  2   -0.177639    0.139962    1.133397    11.00000   -1.50000
H11C  2   -0.110692    0.211223    1.240718    11.00000   -1.50000
AFIX   0

CD1   3    0.500000    0.500000    0.500000    10.50000    0.03112    0.03362 =
         0.03927    0.00427   -0.00940   -0.01614
N1    4    0.601685    0.223477    0.462778    11.00000    0.03577    0.03499 =
         0.04381    0.00359   -0.00846   -0.01699
C1    1    0.537382    0.170104    0.371225    11.00000    0.04054    0.04208 =
         0.04030    0.00499   -0.01075   -0.01863
AFIX  43
H1    2    0.444101    0.246721    0.326194    11.00000   -1.20000
AFIX   0
C2    1    0.603659    0.005771    0.340596    11.00000    0.05161    0.04730 =
         0.03970   -0.00380   -0.00278   -0.02604
AFIX  43
H2    2    0.556341   -0.027238    0.275833    11.00000   -1.20000
AFIX   0
C3    1    0.740643   -0.108037    0.407432    11.00000    0.05235    0.03621 =
         0.05187   -0.00249    0.00491   -0.01747
AFIX  43
H3    2    0.787555   -0.219410    0.388810    11.00000   -1.20000
AFIX   0
C5    1    0.734961    0.111358    0.527295    11.00000    0.04297    0.04376 =
         0.05503    0.00491   -0.01921   -0.01876
AFIX  43
H5    2    0.780616    0.146879    0.591576    11.00000   -1.20000
AFIX   0
C7    1    0.807158   -0.054238    0.502416    11.00000    0.04477    0.04181 =
         0.06171    0.00871   -0.01644   -0.01115
AFIX  43
H7    2    0.899681   -0.128835    0.549164    11.00000   -1.20000
AFIX   0
O1W   5    0.210494    0.546067    0.537219    11.00000    0.03881    0.06174 =
         0.04566    0.01017   -0.01070   -0.02994
O2W   5    0.537121    0.455404    0.721180    11.00000    0.04567    0.07818 =
         0.04171    0.01676   -0.01829   -0.03543
H1WA  2    0.164593    0.521746    0.602153    11.00000    0.06563
H2WA  2    0.461189    0.445388    0.770448    11.00000    0.08849
H2WB  2    0.623536    0.435792    0.762572    11.00000    0.08625
H1WB  2    0.160781    0.530993    0.477550    11.00000    0.05247
HKLF 4

REM
REM R1 =  0.0231 for    2746 Fo > 4sig(Fo)  and  0.0233 for all    2766 data
REM    215 parameters refined using     12 restraints

END

WGHT      0.0439      0.0695

REM Highest difference peak  0.433,  deepest hole -0.477,  1-sigma level  0.126
Q1    1   0.2566  0.3719  0.7780  11.00000  0.05    0.43
Q2    1   0.7062 -0.0335  0.3586  11.00000  0.05    0.39
Q3    1   0.6085  0.0776  0.3240  11.00000  0.05    0.38
Q4    1   0.4814  0.5604  0.5602  11.00000  0.05    0.37
Q5    1  -0.0216  0.1183  1.2394  11.00000  0.05    0.36
Q6    1   0.0678  0.3534  0.8642  11.00000  0.05    0.35
Q7    1  -0.2079  0.2204  1.1838  11.00000  0.05    0.35
Q8    1   0.6543  0.0217  0.3072  11.00000  0.05    0.34
Q9    1   0.7471 -0.0739  0.4719  11.00000  0.05    0.34
Q10   1   0.8110 -0.0790  0.4210  11.00000  0.05    0.33
Q11   1  -0.0457  0.1838  1.1262  11.00000  0.05    0.30
Q12   1   0.4089  0.4926  0.4908  11.00000  0.05    0.29
Q13   1   0.2259  0.2748  0.9230  11.00000  0.05    0.29
Q14   1   0.7450  0.0546  0.2639  11.00000  0.05    0.29
Q15   1  -0.0492  0.3252  0.9000  11.00000  0.05    0.28
Q16   1   0.3044  0.2599  0.9934  11.00000  0.05    0.28
Q17   1  -0.2905  0.3123  0.9417  11.00000  0.05    0.28
Q18   1   0.7435  0.0167  0.5328  11.00000  0.05    0.28
Q19   1   0.2329  0.0853  1.1405  11.00000  0.05    0.28
Q20   1   0.6136  0.1716  0.3928  11.00000  0.05    0.27
;
_shelx_res_checksum              21261
_shelx_hkl_file
;
  -1   0   0    8.05    0.27
  -1   0   0    8.25    0.27
  -1   0   0    7.61    0.29
  -1   0   0    8.53    0.29
  -1   0   0    8.23    0.29
  -1   0   0    7.13    0.26
  -2   0   0   12.66    0.41
  -2   0   0   12.74    0.46
  -2   0   0   12.56    0.46
  -2   0   0   12.06    0.42
  -2   0   0   12.18    0.46
  -2   0   0   12.32    0.42
  -3   0   0  130.02    4.33
  -3   0   0  128.43    4.34
  -3   0   0  133.49    4.77
  -3   0   0  131.36    4.74
  -3   0   0  128.61    4.78
   3   0   0  129.49    4.33
   3   0   0  133.34    4.78
   3   0   0  132.33    4.75
   3   0   0  134.96    4.36
  -4   0   0  131.02    4.37
  -4   0   0  131.80    4.80
  -4   0   0  127.74    4.81
  -4   0   0  133.20    4.36
   4   0   0  136.80    4.81
   4   0   0  133.30    5.14
   4   0   0  131.04    3.92
  -5   0   0    1.25    0.07
  -5   0   0    1.23    0.06
  -5   0   0    1.22    0.06
   5   0   0    1.26    0.08
   5   0   0    1.29    0.06
   5   0   0    1.25    0.06
  -6   0   0    0.04    0.02
   6   0   0    0.07    0.02
   6   0   0    0.07    0.03
  -7   0   0    6.89    0.25
  -7   0   0    6.30    0.30
   7   0   0    6.93    0.29
  -8   0   0    9.47    0.34
  -9   0   0    1.69    0.11
 -10   0   0    1.36    0.11
 -10   1   0    0.99    0.10
  -9   1   0    0.50    0.07
  -8   1   0    1.31    0.09
   7  -1   0   11.60    0.47
  -7   1   0   11.05    0.40
   6  -1   0    8.55    0.35
  -6   1   0    8.47    0.30
   5  -1   0   13.12    0.41
   5  -1   0   13.54    0.51
  -5   1   0   12.60    0.43
   4  -1   0   48.41    1.75
   4  -1   0   50.02    1.43
   4  -1   0   51.40    1.75
  -4   1   0   45.45    1.55
  -4   1   0   46.89    1.75
  -4   1   0   49.32    1.75
  -4   1   0   49.15    1.58
  -4   1   0   44.22    1.49
  -4   1   0   47.39    1.58
   3  -1   0   14.14    0.51
   3  -1   0   14.25    0.50
  -3   1   0   12.82    0.50
  -3   1   0   13.56    0.45
  -3   1   0   13.43    0.45
  -3   1   0   13.77    0.50
  -3   1   0   13.41    0.45
  -3   1   0   12.49    0.43
   2  -1   0   78.19    3.01
  -2   1   0   84.91    3.00
  -2   1   0   85.18    2.68
   1  -1   0   17.56    0.57
   0  -1   0   31.19    1.02
  -2  -1   0  114.26    3.68
  -2  -1   0  112.57    4.05
  -2  -1   0  108.59    4.05
  -2  -1   0  110.67    3.67
  -2  -1   0  117.66    4.23
  -2  -1   0  114.40    4.09
   2   1   0  104.17    4.37
   2   1   0  112.57    3.68
   2   1   0  104.04    4.29
  -3  -1   0  234.85    9.14
  -3  -1   0  245.20    8.95
  -3  -1   0  242.52    7.87
  -3  -1   0  231.09    9.22
  -3  -1   0  245.60    8.91
  -3  -1   0  233.76    8.19
   3   1   0  239.12    8.25
   3   1   0  235.73    8.91
   3   1   0  230.07    9.10
   3   1   0  251.94    8.99
   3   1   0  235.98    8.22
  -4  -1   0   11.42    0.43
  -4  -1   0   11.39    0.39
  -4  -1   0   11.67    0.44
   4   1   0   11.03    0.39
   4   1   0   11.41    0.43
   4   1   0   11.38    0.43
   4   1   0   11.43    0.36
  -5  -1   0   31.85    1.19
  -5  -1   0   31.93    1.08
  -5  -1   0   31.34    1.19
  -5  -1   0   32.22    1.19
   5   1   0   32.78    1.08
   5   1   0   33.52    1.18
   5   1   0   31.78    1.19
   5   1   0   32.44    0.97
  -6  -1   0   18.88    0.64
  -6  -1   0   17.26    0.71
   6   1   0   19.19    0.58
   6   1   0   19.33    0.71
  -7  -1   0   11.26    0.49
   7   1   0   12.36    0.48
   7   1   0   12.88    0.40
  -8  -1   0    9.56    0.34
  -9  -1   0    0.66    0.07
 -10  -1   0    1.85    0.12
  -9   2   0    1.56    0.11
  -8   2   0    0.83    0.08
  -7   2   0    9.00    0.33
   6  -2   0    9.11    0.37
  -6   2   0    8.61    0.32
   5  -2   0   12.22    0.48
  -5   2   0   12.34    0.41
  -5   2   0   11.64    0.41
   4  -2   0   17.34    0.52
   4  -2   0   17.77    0.65
  -4   2   0   16.75    0.57
  -4   2   0   15.97    0.55
   3  -2   0   54.77    2.01
   3  -2   0   59.91    2.00
   3  -2   0   54.57    1.64
  -3   2   0   51.77    1.71
  -3   2   0   53.44    1.79
  -3   2   0   56.68    2.01
   2  -2   0   58.98    2.21
   2  -2   0   65.13    2.22
  -2   2   0   59.80    1.98
  -2   2   0   60.44    2.22
   1  -2   0   11.62    0.43
  -1   2   0   11.25    0.38
  -1   2   0   11.52    0.43
  -1   2   0   11.33    0.44
   0  -2   0   32.22    1.25
   0  -2   0   37.30    1.23
   0   2   0   37.49    1.38
   0   2   0   38.89    1.23
   0   2   0   42.35    1.25
   0   2   0   37.98    1.26
   0   2   0   39.01    1.56
  -1  -2   0  106.19    4.39
  -1  -2   0  110.78    3.64
  -1  -2   0  111.11    3.73
   1   2   0  107.85    3.73
   1   2   0  120.89    4.13
   1   2   0  116.19    3.74
   1   2   0  116.55    4.09
  -2  -2   0   16.96    0.63
  -2  -2   0   17.46    0.62
  -2  -2   0   15.60    0.58
  -2  -2   0   16.80    0.64
  -2  -2   0   17.29    0.63
   2   2   0   17.64    0.64
   2   2   0   17.40    0.58
   2   2   0   17.40    0.63
  -3  -2   0   48.45    1.74
  -3  -2   0   47.81    1.73
  -3  -2   0   45.81    1.73
  -3  -2   0   48.29    1.58
  -3  -2   0   47.15    1.74
   3   2   0   47.40    1.73
   3   2   0   48.08    1.74
   3   2   0   47.92    1.72
   3   2   0   46.71    1.71
   3   2   0   46.75    1.57
  -4  -2   0   26.77    1.01
  -4  -2   0   26.66    1.00
  -4  -2   0   26.70    1.00
  -4  -2   0   27.62    0.92
   4   2   0   29.05    0.99
   4   2   0   26.53    0.91
   4   2   0   27.53    0.82
   4   2   0   26.35    1.00
   4   2   0   27.47    1.01
  -5  -2   0   50.20    1.67
  -5  -2   0   49.08    1.85
  -5  -2   0   49.12    1.84
  -5  -2   0   48.22    1.83
   5   2   0   51.67    1.85
   5   2   0   53.54    1.82
   5   2   0   49.34    1.67
   5   2   0   50.52    1.50
  -6  -2   0   19.52    0.77
  -6  -2   0   20.23    0.70
  -6  -2   0   19.20    0.76
  -6  -2   0   19.68    0.77
   6   2   0   20.79    0.77
   6   2   0   20.59    0.63
   6   2   0   20.62    0.69
   6   2   0   21.48    0.76
  -7  -2   0   22.77    0.78
  -7  -2   0   20.67    0.86
   7   2   0   23.46    0.70
   7   2   0   23.31    0.85
   8   2   0    3.15    0.14
  -9  -2   0    5.36    0.22
 -10  -2   0    1.23    0.10
 -11  -2   0    3.67    0.18
  -8   3   0    1.05    0.09
  -7   3   0    2.89    0.15
  -6   3   0    2.18    0.12
   5  -3   0    8.72    0.37
  -5   3   0    8.82    0.32
  -5   3   0    8.88    0.22
  -5   3   0    9.28    0.32
   4  -3   0   20.58    0.76
  -4   3   0   19.70    0.64
  -4   3   0   19.30    0.48
  -4   3   0   19.66    0.67
   3  -3   0   10.06    0.34
   3  -3   0   11.33    0.42
  -3   3   0   10.81    0.36
  -3   3   0   10.74    0.38
  -3   3   0   10.69    0.27
   2  -3   0   50.32    1.77
   2  -3   0   50.32    1.77
   2  -3   0   46.46    1.44
   2  -3   0   48.61    1.15
  -2   3   0   46.65    1.51
  -2   3   0   49.87    1.78
  -2   3   0   47.35    1.17
  -2   3   0   48.86    1.58
   1  -3   0   46.74    1.75
   1  -3   0   48.15    1.75
   1  -3   0   46.42    1.14
   1  -3   0   51.73    1.58
  -1   3   0   47.72    1.80
  -1   3   0   47.31    1.56
   0  -3   0  158.20    5.54
   0  -3   0  159.42    5.89
   0  -3   0  158.20    5.86
   0  -3   0  157.58    5.22
   0  -3   0  164.13    5.33
   0   3   0  178.15    5.49
   0   3   0  153.25    5.60
   0   3   0  163.44    5.89
   0   3   0  162.53    5.23
  -1  -3   0   32.00    1.01
  -1  -3   0   31.69    1.13
  -1  -3   0   28.98    1.14
  -1  -3   0   26.04    1.03
  -1  -3   0   31.67    1.03
   1   3   0   30.17    1.13
   1   3   0   33.00    1.03
   1   3   0   32.41    1.03
   1   3   0   30.64    1.01
   1   3   0   32.48    1.14
  -2  -3   0   76.07    2.74
  -2  -3   0   73.75    2.76
  -2  -3   0   75.21    2.50
  -2  -3   0   75.65    2.74
   2   3   0   75.72    2.73
   2   3   0   76.43    2.76
   2   3   0   72.58    2.49
  -3  -3   0  141.70    4.53
  -3  -3   0  130.97    4.97
  -3  -3   0  130.89    4.91
  -3  -3   0  136.99    4.93
  -3  -3   0  135.12    5.53
   3   3   0  142.59    4.93
   3   3   0  132.59    4.38
   3   3   0  133.23    4.04
   3   3   0  132.87    4.51
   3   3   0  142.94    4.97
  -4  -3   0   77.33    2.73
  -4  -3   0   72.19    2.71
  -4  -3   0   75.90    2.48
  -4  -3   0   72.05    2.73
   4   3   0   74.03    2.48
   4   3   0   76.62    2.73
   4   3   0   75.32    2.22
  -5  -3   0   38.48    1.29
  -5  -3   0   37.44    1.42
  -5  -3   0   37.50    1.41
   5   3   0   39.31    1.39
   5   3   0   39.79    1.42
   5   3   0   38.24    1.15
   5   3   0   37.34    1.28
  -6  -3   0   24.10    0.92
  -6  -3   0   23.71    0.92
  -6  -3   0   24.34    0.84
   6   3   0   24.78    0.75
   6   3   0   25.23    0.90
   6   3   0   24.33    0.83
  -7  -3   0   29.58    1.03
  -7  -3   0   30.45    1.14
  -7  -3   0   28.75    1.13
   7   3   0   31.49    0.93
   7   3   0   30.51    1.12
   7   3   0   30.53    1.03
   8   3   0    2.87    0.13
   9   3   0    5.38    0.21
 -10  -3   0    1.55    0.11
 -11  -3   0    1.99    0.13
  -8   4   0    0.36    0.06
  -8   4   0    0.29    0.03
  -7   4   0    2.41    0.14
  -7   4   0    2.18    0.08
  -6   4   0    1.37    0.10
  -6   4   0    1.04    0.05
  -5   4   0    2.10    0.11
  -5   4   0    1.89    0.06
   4  -4   0    0.48    0.06
  -4   4   0    0.50    0.05
  -4   4   0    0.45    0.05
  -4   4   0    0.58    0.03
   3  -4   0    5.09    0.19
   3  -4   0    5.69    0.24
  -3   4   0    5.73    0.22
  -3   4   0    5.64    0.15
  -3   4   0    5.59    0.21
   2  -4   0   39.40    1.44
   2  -4   0   41.04    1.43
   2  -4   0   39.97    0.93
   2  -4   0   37.02    1.17
  -2   4   0   40.18    1.43
  -2   4   0   38.06    1.22
  -2   4   0   39.27    1.29
  -2   4   0   37.82    0.95
   1  -4   0   25.29    0.78
   1  -4   0   26.88    0.96
   1  -4   0   28.37    0.86
   1  -4   0   25.23    0.62
   1  -4   0   26.33    0.86
   1  -4   0   26.10    0.97
  -1   4   0   25.47    0.63
  -1   4   0   26.00    0.62
  -1   4   0   25.66    0.86
  -1   4   0   24.44    0.82
  -1   4   0   26.06    0.96
   0  -4   0   51.92    1.88
   0  -4   0   48.86    1.52
   0  -4   0   50.39    1.22
   0  -4   0   53.31    1.70
   0  -4   0   51.82    1.88
   0  -4   0   51.57    1.70
   0   4   0   49.71    1.24
   0   4   0   51.30    1.89
   0   4   0   56.38    1.70
   0   4   0   49.84    1.68
   0   4   0   51.33    1.22
  -1  -4   0  106.54    3.72
  -1  -4   0  103.51    3.02
  -1  -4   0  102.70    3.29
  -1  -4   0  103.20    3.72
  -1  -4   0  102.62    3.47
   1   4   0   91.03    3.04
   1   4   0  103.38    3.74
   1   4   0  101.01    2.41
   1   4   0  103.94    3.31
   1   4   0  103.40    3.48
  -2  -4   0  105.30    3.74
  -2  -4   0  109.26    3.76
  -2  -4   0   93.85    3.33
  -2  -4   0  102.75    3.78
  -2  -4   0  105.34    3.43
   2   4   0  101.14    3.34
   2   4   0  105.92    3.80
   2   4   0  101.95    3.07
   2   4   0  103.05    3.42
  -3  -4   0   78.09    2.84
  -3  -4   0   75.29    2.86
  -3  -4   0   78.61    2.60
  -3  -4   0   78.73    2.86
   3   4   0   77.75    2.32
   3   4   0   78.23    2.60
   3   4   0   82.05    2.88
  -4  -4   0   28.21    1.03
  -4  -4   0   26.98    0.77
  -4  -4   0   28.76    0.95
  -4  -4   0   27.06    1.04
   4   4   0   28.40    0.85
   4   4   0   27.32    0.91
   4   4   0   28.16    0.94
  -5  -4   0    4.08    0.19
  -5  -4   0    4.12    0.18
  -5  -4   0    4.09    0.17
  -5  -4   0    3.91    0.12
   5   4   0    4.17    0.15
   5   4   0    4.01    0.16
  -6  -4   0   15.16    0.59
  -6  -4   0   15.27    0.53
  -6  -4   0   14.34    0.42
  -6  -4   0   14.70    0.58
   6   4   0   15.04    0.53
   6   4   0   15.68    0.48
  -7  -4   0   28.45    1.07
  -7  -4   0   27.70    1.06
  -7  -4   0   27.90    0.97
   7   4   0   29.40    0.88
   7   4   0   28.04    0.97
  -8  -4   0    5.78    0.24
   8   4   0    5.95    0.22
   8   4   0    5.70    0.23
   9   4   0    3.80    0.17
  10   4   0    6.89    0.27
 -11  -4   0    6.44    0.26
  -7   5   0    2.13    0.08
  -7   5   0    2.54    0.14
  -6   5   0    0.25    0.03
  -6   5   0    0.36    0.06
  -5   5   0   13.81    0.48
  -5   5   0   13.98    0.36
  -4   5   0    8.82    0.23
  -4   5   0    8.86    0.34
  -4   5   0    9.24    0.33
   3  -5   0    4.34    0.21
  -3   5   0    4.45    0.13
  -3   5   0    4.76    0.18
  -3   5   0    4.59    0.19
   2  -5   0    5.35    0.14
   2  -5   0    5.27    0.18
   2  -5   0    5.37    0.24
  -2   5   0    5.37    0.14
  -2   5   0    5.27    0.20
  -2   5   0    5.34    0.22
  -2   5   0    5.60    0.14
   1  -5   0    7.04    0.23
   1  -5   0    7.35    0.28
   1  -5   0    6.70    0.29
   1  -5   0    7.12    0.18
  -1   5   0    6.88    0.26
  -1   5   0    7.17    0.18
  -1   5   0    7.09    0.18
  -1   5   0    6.93    0.28
  -1   5   0    6.78    0.24
   0  -5   0   21.37    0.66
   0  -5   0   21.52    0.54
   0  -5   0   22.58    0.83
   0  -5   0   22.05    0.74
   0  -5   0   21.85    0.83
   0  -5   0   22.34    0.53
   0   5   0   22.26    0.54
   0   5   0   21.05    0.70
   0   5   0   21.80    0.53
   0   5   0   23.85    0.74
   0   5   0   22.11    0.83
   0   5   0   22.09    0.74
  -1  -5   0   18.89    0.49
  -1  -5   0   18.93    0.76
  -1  -5   0   20.33    0.76
  -1  -5   0   19.61    0.60
  -1  -5   0   20.44    0.68
  -1  -5   0   19.93    0.49
   1   5   0   20.38    0.76
   1   5   0   21.29    0.68
   1   5   0   20.38    0.48
   1   5   0   20.36    0.68
  -2  -5   0    0.88    0.05
  -2  -5   0    0.78    0.06
  -2  -5   0    0.86    0.04
  -2  -5   0    0.88    0.06
  -2  -5   0    0.90    0.06
  -2  -5   0    0.85    0.05
   2   5   0    0.80    0.06
   2   5   0    0.89    0.03
   2   5   0    0.86    0.05
   2   5   0    0.88    0.06
   2   5   0    0.84    0.05
  -3  -5   0   35.45    1.26
  -3  -5   0   34.62    1.27
  -3  -5   0   32.63    0.95
  -3  -5   0   34.82    1.15
   3   5   0   34.37    1.15
   3   5   0   34.24    1.03
   3   5   0   32.97    1.12
  -4  -5   0   69.18    2.49
  -4  -5   0   69.78    2.28
  -4  -5   0   65.42    1.88
  -4  -5   0   69.89    2.52
   4   5   0   68.99    2.04
   4   5   0   67.18    2.28
  -5  -5   0   30.88    0.88
  -5  -5   0   32.52    1.19
  -5  -5   0   32.55    1.09
  -5  -5   0   32.13    1.20
   5   5   0   31.55    0.97
   5   5   0   32.14    1.09
  -6  -5   0    2.82    0.13
  -6  -5   0    2.45    0.13
  -6  -5   0    2.48    0.12
  -6  -5   0    2.24    0.08
   6   5   0    2.24    0.12
   6   5   0    2.57    0.11
  -7  -5   0   17.69    0.51
  -7  -5   0   18.19    0.65
   7   5   0   18.87    0.58
   7   5   0   18.29    0.64
  -8  -5   0    7.26    0.30
  -8  -5   0    7.23    0.21
   8   5   0    7.79    0.27
   8   5   0    7.54    0.29
  -9  -5   0    6.61    0.28
   9   5   0    6.72    0.25
  10   5   0    1.11    0.09
  -6   6   0    2.69    0.15
  -6   6   0    2.60    0.09
  -5   6   0    3.24    0.16
  -5   6   0    2.96    0.10
  -4   6   0    1.02    0.05
  -4   6   0    1.16    0.09
  -3   6   0    5.22    0.15
  -3   6   0    5.40    0.21
  -3   6   0    5.33    0.23
   2  -6   0   36.31    1.37
   2  -6   0   36.40    0.87
  -2   6   0   38.10    0.88
  -2   6   0   35.73    1.16
  -2   6   0   36.80    0.89
  -2   6   0   35.90    1.23
   1  -6   0    2.25    0.13
   1  -6   0    2.08    0.07
   1  -6   0    2.28    0.09
  -1   6   0    2.20    0.07
  -1   6   0    2.17    0.07
  -1   6   0    2.12    0.10
  -1   6   0    2.12    0.11
   0  -6   0    9.91    0.25
   0  -6   0    9.47    0.41
   0  -6   0   10.05    0.31
   0  -6   0    9.67    0.25
   0  -6   0   10.66    0.40
   0   6   0   10.30    0.25
   0   6   0    9.55    0.33
   0   6   0    9.89    0.25
   0   6   0   10.13    0.37
  -1  -6   0   29.94    1.02
  -1  -6   0   30.24    1.13
  -1  -6   0   30.90    0.74
  -1  -6   0   29.48    0.73
  -1  -6   0   29.34    1.13
  -1  -6   0   29.61    0.90
   1   6   0   30.05    0.72
   1   6   0   29.32    0.94
   1   6   0   31.80    1.01
   1   6   0   30.23    0.73
   1   6   0   30.29    1.01
  -2  -6   0   18.82    0.57
  -2  -6   0   18.27    0.71
  -2  -6   0   18.32    0.64
  -2  -6   0   18.58    0.71
  -2  -6   0   18.53    0.45
  -2  -6   0   18.50    0.46
   2   6   0   18.67    0.45
   2   6   0   18.04    0.58
   2   6   0   18.95    0.64
  -3  -6   0   16.99    0.50
  -3  -6   0   18.10    0.68
  -3  -6   0   18.06    0.62
  -3  -6   0   17.79    0.54
  -3  -6   0   17.32    0.68
  -3  -6   0   17.71    0.44
   3   6   0   17.40    0.61
  -4  -6   0   18.96    0.70
  -4  -6   0   18.10    0.71
  -4  -6   0   17.44    0.52
  -4  -6   0   18.44    0.45
  -4  -6   0   18.22    0.64
   4   6   0   18.73    0.57
   4   6   0   17.26    0.63
  -5  -6   0   20.01    0.76
  -5  -6   0   20.02    0.78
  -5  -6   0   20.08    0.70
  -5  -6   0   19.75    0.56
   5   6   0   19.43    0.70
   5   6   0   20.80    0.63
  -6  -6   0   29.41    0.83
  -6  -6   0   29.49    1.12
  -6  -6   0   30.45    1.03
   6   6   0   30.52    0.92
   6   6   0   29.43    1.02
  -7  -6   0   17.18    0.49
  -7  -6   0   17.27    0.63
   7   6   0   17.69    0.56
   7   6   0   17.74    0.62
  -8  -6   0    7.29    0.30
  -8  -6   0    7.23    0.22
   8   6   0    7.24    0.29
   8   6   0    7.74    0.27
  -9  -6   0    8.13    0.24
   9   6   0    8.56    0.31
  10   6   0    3.48    0.16
  11   6   0    0.75    0.08
  -5   7   0   -0.03    0.02
  -5   7   0   -0.02    0.04
  -4   7   0    1.91    0.12
  -4   7   0    1.78    0.07
  -3   7   0    2.93    0.10
  -3   7   0    3.13    0.15
   2  -7   0    6.49    0.17
  -2   7   0    6.63    0.18
  -2   7   0    6.19    0.18
  -2   7   0    6.46    0.25
  -2   7   0    6.36    0.27
   1  -7   0    1.12    0.05
  -1   7   0    1.10    0.05
  -1   7   0    1.16    0.05
  -1   7   0    1.22    0.08
   0  -7   0    8.53    0.27
   0  -7   0    8.39    0.22
   0  -7   0    8.25    0.36
   0  -7   0    8.21    0.22
   0   7   0    8.64    0.22
   0   7   0    8.64    0.22
   0   7   0    8.27    0.29
  -1  -7   0   15.36    0.57
  -1  -7   0   14.76    0.37
  -1  -7   0   14.86    0.37
  -1  -7   0   14.40    0.45
  -1  -7   0   13.79    0.58
   1   7   0   14.52    0.36
   1   7   0   14.63    0.37
   1   7   0   14.14    0.47
  -2  -7   0   29.94    1.12
  -2  -7   0   29.60    1.01
  -2  -7   0   30.17    0.90
  -2  -7   0   28.34    0.84
  -2  -7   0   29.52    0.72
  -2  -7   0   29.35    0.73
  -2  -7   0   29.31    1.12
   2   7   0   30.91    0.71
   2   7   0   29.19    0.63
   2   7   0   30.80    1.01
  -3  -7   0    3.27    0.16
  -3  -7   0    3.25    0.16
  -3  -7   0    3.04    0.12
  -3  -7   0    2.82    0.12
  -3  -7   0    3.13    0.09
  -3  -7   0    3.11    0.14
   3   7   0    3.07    0.14
   3   7   0    3.13    0.13
   3   7   0    3.11    0.08
  -4  -7   0   16.02    0.63
  -4  -7   0   16.31    0.40
  -4  -7   0   15.75    0.47
  -4  -7   0   16.39    0.58
  -4  -7   0   15.97    0.50
   4   7   0   16.59    0.52
   4   7   0   15.92    0.57
  -5  -7   0   19.27    0.48
  -5  -7   0   19.30    0.55
  -5  -7   0   18.97    0.75
  -5  -7   0   19.77    0.69
   5   7   0   18.85    0.68
   5   7   0   19.90    0.62
  -6  -7   0   35.47    1.36
  -6  -7   0   36.07    1.25
  -6  -7   0   36.85    1.01
   6   7   0   36.54    1.24
   6   7   0   36.82    1.12
  -7  -7   0    0.26    0.03
  -7  -7   0    0.27    0.05
   7   7   0    0.31    0.05
   7   7   0    0.48    0.06
  -8  -7   0    8.49    0.26
   8   7   0    8.71    0.31
  -9  -7   0   14.60    0.42
   9   7   0   14.90    0.50
 -10  -7   0    1.88    0.07
  10   7   0    2.15    0.12
  11   7   0    0.80    0.08
  -4   8   0    1.72    0.12
  -4   8   0    1.52    0.07
  -3   8   0    0.80    0.05
  -3   8   0    0.79    0.08
   2  -8   0    1.54    0.06
  -2   8   0    1.66    0.07
  -2   8   0    1.74    0.07
  -2   8   0    1.64    0.10
   1  -8   0    4.65    0.13
  -1   8   0    4.72    0.14
  -1   8   0    4.50    0.19
  -1   8   0    4.58    0.14
   0  -8   0    7.38    0.24
   0  -8   0    6.91    0.19
   0   8   0    7.17    0.19
   0   8   0    6.98    0.19
  -1  -8   0    9.26    0.24
  -1  -8   0    9.26    0.30
  -1  -8   0    8.91    0.24
   1   8   0    9.19    0.24
  -2  -8   0   12.36    0.52
  -2  -8   0   12.68    0.40
  -2  -8   0   12.72    0.33
  -2  -8   0   13.09    0.33
   2   8   0   12.84    0.32
  -3  -8   0    0.37    0.03
  -3  -8   0    0.33    0.05
  -3  -8   0    0.42    0.04
  -3  -8   0    0.29    0.03
  -3  -8   0    0.26    0.04
   3   8   0    0.25    0.04
   3   8   0    0.28    0.02
   3   8   0    0.38    0.05
  -4  -8   0   14.53    0.37
  -4  -8   0   14.46    0.53
  -4  -8   0   15.22    0.59
  -4  -8   0   14.41    0.43
  -4  -8   0   14.49    0.46
   4   8   0   14.23    0.52
   4   8   0   14.88    0.48
  -5  -8   0   11.76    0.30
  -5  -8   0   11.72    0.44
  -5  -8   0   11.98    0.35
  -5  -8   0   11.75    0.48
  -5  -8   0   11.65    0.38
   5   8   0   11.41    0.43
   5   8   0   11.79    0.40
  -6  -8   0    0.04    0.02
  -6  -8   0    0.05    0.03
  -6  -8   0    0.04    0.03
   6   8   0    0.03    0.03
   6   8   0    0.04    0.03
  -7  -8   0    3.28    0.12
   7   8   0    3.26    0.15
  -8  -8   0    6.52    0.21
   8   8   0    6.71    0.26
  -9  -8   0    9.88    0.29
   9   8   0    9.33    0.35
 -10  -8   0    0.38    0.04
  10   8   0    0.45    0.06
 -11  -8   0    4.26    0.14
  11   8   0    4.37    0.20
  -3   9   0    2.02    0.08
   2  -9   0    2.38    0.08
  -2   9   0    2.27    0.09
  -2   9   0    2.49    0.09
   1  -9   0    1.86    0.07
  -1   9   0    1.81    0.07
  -1   9   0    1.91    0.07
   0  -9   0    1.11    0.05
   0   9   0    1.05    0.05
  -1  -9   0    2.89    0.12
  -1  -9   0    2.77    0.10
   1   9   0    2.72    0.09
   1   9   0    2.71    0.08
  -2  -9   0    7.33    0.20
  -2  -9   0    7.27    0.25
  -2  -9   0    7.29    0.20
   2   9   0    7.36    0.19
  -3  -9   0    6.57    0.19
  -3  -9   0    6.68    0.19
  -3  -9   0    6.45    0.23
   3   9   0    6.73    0.17
  -4  -9   0    5.94    0.25
  -4  -9   0    6.34    0.22
  -4  -9   0    5.95    0.21
  -4  -9   0    6.05    0.17
  -4  -9   0    6.06    0.29
   4   9   0    6.05    0.24
   4   9   0    6.33    0.25
  -5  -9   0   11.83    0.39
  -5  -9   0   11.95    0.36
  -5  -9   0   11.74    0.49
  -5  -9   0   11.96    0.31
  -5  -9   0   11.78    0.45
   5   9   0   11.29    0.44
   5   9   0   11.84    0.41
  -6  -9   0    2.67    0.09
  -6  -9   0    2.81    0.12
  -6  -9   0    2.88    0.16
  -6  -9   0    2.68    0.13
   6   9   0    2.72    0.14
  -7  -9   0   15.31    0.44
   7   9   0   14.45    0.50
  -8  -9   0    1.35    0.07
   8   9   0    1.35    0.10
  -9  -9   0    1.98    0.09
   9   9   0    1.86    0.12
 -10  -9   0    1.07    0.06
  10   9   0    1.09    0.09
 -11  -9   0    2.75    0.10
  11   9   0    2.58    0.15
  -2  10   0    0.95    0.06
   1 -10   0    2.16    0.08
  -1  10   0    2.12    0.08
   0 -10   0    2.13    0.08
   0  10   0    2.11    0.08
  -1 -10   0    1.91    0.08
   1  10   0    1.87    0.07
  -2 -10   0    2.36    0.09
  -2 -10   0    2.31    0.11
  -2 -10   0    2.38    0.09
   2  10   0    2.31    0.08
  -3 -10   0    1.02    0.06
  -3 -10   0    1.16    0.07
  -3 -10   0    1.03    0.06
   3  10   0    1.06    0.04
  -4 -10   0    3.84    0.12
  -4 -10   0    3.92    0.15
  -4 -10   0    3.67    0.15
  -5 -10   0    7.57    0.22
  -5 -10   0    7.72    0.27
  -5 -10   0    8.22    0.26
   5  10   0    7.73    0.30
  -6 -10   0    1.86    0.07
  -6 -10   0    1.88    0.10
  -6 -10   0    1.77    0.10
   6  10   0    1.82    0.11
  -7 -10   0    5.81    0.22
  -7 -10   0    6.09    0.21
  -7 -10   0    5.90    0.17
   7  10   0    5.83    0.24
  -8 -10   0    7.96    0.25
   8  10   0    7.37    0.30
  -9 -10   0    4.93    0.17
   9  10   0    4.62    0.21
 -10 -10   0    1.39    0.07
  10  10   0    1.26    0.10
   0 -11   0    0.63    0.05
   0  11   0    0.58    0.04
  -1 -11   0    1.73    0.08
   1  11   0    1.73    0.07
  -2 -11   0    1.83    0.08
   2  11   0    1.90    0.07
  -3 -11   0    1.61    0.07
  -3 -11   0    1.65    0.09
  -3 -11   0    1.67    0.08
   3  11   0    1.63    0.06
  -4 -11   0    1.97    0.10
  -4 -11   0    1.78    0.08
  -5 -11   0    2.85    0.13
  -5 -11   0    2.50    0.09
  -5 -11   0    2.52    0.12
  -6 -11   0    0.83    0.07
  -6 -11   0    0.77    0.08
  -6 -11   0    0.73    0.05
   6  11   0    0.81    0.08
  -7 -11   0    2.33    0.11
  -7 -11   0    2.17    0.11
  -7 -11   0    2.11    0.08
   7  11   0    2.09    0.13
  -8 -11   0    1.22    0.09
  -8 -11   0    1.27    0.06
  -8 -11   0    1.26    0.08
   8  11   0    1.27    0.10
  -9 -11   0    1.50    0.10
  -9 -11   0    1.72    0.09
   9  11   0    1.51    0.11
 -10 -11   0    1.30    0.08
  10  11   0    1.40    0.11
  -2 -12   0    1.42    0.08
   2  12   0    1.43    0.06
  -3 -12   0    1.50    0.08
   3  12   0    1.59    0.06
  -4 -12   0    1.08    0.08
  -4 -12   0    1.07    0.06
  -5 -12   0    1.75    0.10
  -5 -12   0    1.58    0.08
  -6 -12   0    0.91    0.08
  -6 -12   0    1.02    0.06
  -6 -12   0    1.06    0.09
  -7 -12   0    1.22    0.09
  -7 -12   0    1.38    0.09
  -7 -12   0    1.13    0.06
   7  12   0    1.25    0.10
  -8 -12   0    0.49    0.05
  -8 -12   0    0.62    0.07
  -8 -12   0    0.57    0.05
   8  12   0    0.47    0.07
   8  12  -1    1.28    0.10
  -8 -12   1    1.33    0.10
  -8 -12   1    1.37    0.08
  -8 -12   1    1.28    0.07
   7  12  -1    0.44    0.07
  -7 -12   1    0.46    0.06
  -7 -12   1    0.38    0.04
  -7 -12   1    0.38    0.05
   6  12  -1    1.60    0.12
  -6 -12   1    1.74    0.08
  -6 -12   1    2.10    0.11
  -6 -12   1    1.87    0.11
  -5 -12   1    1.73    0.08
  -5 -12   1    1.75    0.10
  -4 -12   1    0.35    0.04
   3  12  -1    1.42    0.06
  -3 -12   1    1.42    0.07
   2  12  -1    2.41    0.08
  -2 -12   1    2.45    0.10
   9  11  -1    1.58    0.11
  -9 -11   1    1.60    0.09
   8  11  -1    1.24    0.10
  -8 -11   1    1.42    0.09
  -8 -11   1    1.29    0.06
  -8 -11   1    1.28    0.09
   7  11  -1    1.55    0.11
  -7 -11   1    1.42    0.09
  -7 -11   1    1.53    0.10
  -7 -11   1    1.41    0.07
   6  11  -1    2.41    0.14
  -6 -11   1    2.75    0.13
  -6 -11   1    2.56    0.10
  -6 -11   1    2.64    0.13
   5  11  -1    0.58    0.07
  -5 -11   1    0.64    0.07
  -5 -11   1    0.67    0.05
  -5 -11   1    0.69    0.06
  -4 -11   1    0.87    0.05
  -4 -11   1    0.90    0.07
   3  11  -1    2.61    0.08
  -3 -11   1    2.70    0.10
  -3 -11   1    2.67    0.10
   2  11  -1    1.74    0.07
  -2 -11   1    1.82    0.08
   1  11  -1    0.89    0.05
  -1 -11   1    0.92    0.06
   0  11  -1    1.82    0.08
   0 -11   1    1.85    0.08
  10  10  -1    1.18    0.10
 -10 -10   1    1.44    0.08
   9  10  -1    2.74    0.15
  -9 -10   1    2.99    0.12
   8  10  -1    4.52    0.21
  -8 -10   1    4.74    0.17
   7  10  -1    3.96    0.18
  -7 -10   1    3.98    0.13
  -7 -10   1    4.39    0.16
   6  10  -1    2.25    0.13
  -6 -10   1    2.25    0.11
  -6 -10   1    2.19    0.08
  -6 -10   1    2.24    0.11
   5  10  -1    5.29    0.22
  -5 -10   1    5.64    0.21
  -5 -10   1    5.33    0.16
  -5 -10   1    5.37    0.19
   4  10  -1    2.81    0.14
  -4 -10   1    3.00    0.13
  -4 -10   1    2.87    0.10
   3  10  -1    2.59    0.08
  -3 -10   1    2.52    0.09
  -3 -10   1    2.59    0.10
  -3 -10   1    2.69    0.12
   2  10  -1    0.71    0.04
  -2 -10   1    0.70    0.05
  -2 -10   1    0.57    0.04
   1  10  -1    3.20    0.10
  -1 -10   1    3.21    0.11
   0  10  -1    2.50    0.09
   0  10  -1    2.63    0.08
   0 -10   1    2.51    0.09
  -1  10  -1    2.33    0.09
   1 -10   1    2.44    0.08
  -2  10  -1    1.49    0.07
  11   9  -1    0.59    0.08
 -11  -9   1    0.62    0.05
  10   9  -1    1.22    0.10
 -10  -9   1    1.42    0.07
   9   9  -1    0.55    0.07
  -9  -9   1    0.59    0.05
   8   9  -1    1.28    0.09
  -8  -9   1    1.32    0.07
   7   9  -1    2.18    0.12
  -7  -9   1    2.24    0.10
   6   9  -1    3.22    0.15
  -6  -9   1    3.26    0.10
  -6  -9   1    3.22    0.13
   5   9  -1    7.71    0.28
  -5  -9   1    7.60    0.21
  -5  -9   1    7.81    0.27
  -5  -9   1    7.67    0.34
  -5  -9   1    7.52    0.25
  -5  -9   1    7.65    0.31
   4   9  -1    4.97    0.20
  -4  -9   1    5.01    0.15
  -4  -9   1    5.05    0.18
  -4  -9   1    4.99    0.24
  -4  -9   1    4.93    0.18
  -4  -9   1    4.81    0.21
   3   9  -1    7.19    0.18
  -3  -9   1    7.08    0.24
  -3  -9   1    7.17    0.20
  -3  -9   1    6.81    0.20
   2   9  -1    6.50    0.17
  -2  -9   1    6.46    0.18
  -2  -9   1    6.50    0.22
  -2  -9   1    6.40    0.18
   1   9  -1    5.48    0.13
   1   9  -1    5.30    0.15
  -1  -9   1    5.34    0.16
   0   9  -1    1.58    0.06
   0  -9   1    1.56    0.07
  -1   9  -1    0.80    0.05
  -1   9  -1    0.86    0.05
   1  -9   1    0.77    0.04
  -2   9  -1    2.52    0.14
  -2   9  -1    2.34    0.09
  -2   9  -1    2.31    0.09
   2  -9   1    2.39    0.08
  -3   9  -1    1.67    0.07
  -3   9  -1    1.83    0.12
  11   8  -1    1.90    0.13
 -11  -8   1    1.86    0.08
  10   8  -1    3.20    0.16
 -10  -8   1    3.26    0.12
   9   8  -1    1.74    0.11
  -9  -8   1    1.79    0.08
   8   8  -1    8.70    0.32
  -8  -8   1    8.80    0.27
   7   8  -1    7.16    0.27
  -7  -8   1    7.53    0.23
   6   8  -1    0.73    0.07
  -6  -8   1    0.69    0.04
  -6  -8   1    0.71    0.05
  -6  -8   1    0.73    0.07
   5   8  -1   10.88    0.37
  -5  -8   1   10.62    0.32
  -5  -8   1   10.82    0.28
  -5  -8   1   10.20    0.40
  -5  -8   1   10.96    0.44
   4   8  -1    6.50    0.23
  -4  -8   1    6.11    0.28
  -4  -8   1    5.99    0.25
  -4  -8   1    6.28    0.20
  -4  -8   1    6.08    0.22
  -4  -8   1    6.12    0.17
   3   8  -1    5.30    0.20
   3   8  -1    5.33    0.14
  -3  -8   1    5.22    0.22
  -3  -8   1    5.23    0.19
  -3  -8   1    4.97    0.18
  -3  -8   1    5.27    0.15
  -3  -8   1    5.22    0.15
  -3  -8   1    5.38    0.25
   2   8  -1    2.82    0.08
  -2  -8   1    2.62    0.15
  -2  -8   1    2.68    0.09
  -2  -8   1    2.68    0.09
  -2  -8   1    2.88    0.11
   1   8  -1    7.05    0.16
   1   8  -1    7.23    0.26
   1   8  -1    7.04    0.19
  -1  -8   1    7.23    0.24
  -1  -8   1    7.02    0.19
  -1  -8   1    7.03    0.32
  -1  -8   1    7.08    0.19
   0   8  -1    4.45    0.18
   0   8  -1    4.55    0.13
   0   8  -1    4.43    0.13
   0  -8   1    4.30    0.13
  -1   8  -1    2.34    0.08
  -1   8  -1    2.36    0.08
  -1   8  -1    2.37    0.12
   1  -8   1    2.36    0.08
  -2   8  -1    2.48    0.09
  -2   8  -1    2.56    0.09
  -2   8  -1    2.62    0.13
   2  -8   1    2.43    0.08
  -3   8  -1    0.82    0.05
  -3   8  -1    0.99    0.09
  -4   8  -1    0.77    0.09
  -4   8  -1    0.73    0.05
  11   7  -1    4.55    0.21
  10   7  -1    3.30    0.16
 -10  -7   1    3.25    0.11
   9   7  -1    2.41    0.13
  -9  -7   1    2.34    0.09
   8   7  -1    7.94    0.29
  -8  -7   1    7.69    0.24
   7   7  -1   34.95    1.08
  -7  -7   1   34.25    1.20
  -7  -7   1   35.31    0.97
   6   7  -1    0.65    0.06
   6   7  -1    0.60    0.06
  -6  -7   1    0.51    0.06
  -6  -7   1    0.47    0.05
   5   7  -1   15.61    0.56
   5   7  -1   15.98    0.51
  -5  -7   1   15.53    0.61
  -5  -7   1   15.51    0.56
  -5  -7   1   15.61    0.39
  -5  -7   1   15.26    0.45
   4   7  -1   10.76    0.36
   4   7  -1   10.69    0.39
  -4  -7   1   10.28    0.32
  -4  -7   1   10.88    0.27
  -4  -7   1   10.82    0.40
  -4  -7   1   10.80    0.43
   3   7  -1   19.84    0.46
   3   7  -1   19.78    0.61
   3   7  -1   18.35    0.62
  -3  -7   1   19.45    0.59
  -3  -7   1   19.41    0.48
  -3  -7   1   19.54    0.67
  -3  -7   1   18.73    0.74
  -3  -7   1   19.11    0.55
   2   7  -1    2.92    0.12
   2   7  -1    2.69    0.12
   2   7  -1    2.84    0.08
  -2  -7   1    2.72    0.11
  -2  -7   1    2.95    0.09
  -2  -7   1    2.84    0.09
  -2  -7   1    2.87    0.13
  -2  -7   1    2.94    0.15
  -2  -7   1    2.94    0.15
  -2  -7   1    2.87    0.11
   1   7  -1    8.65    0.20
   1   7  -1    9.15    0.22
   1   7  -1    8.80    0.23
   1   7  -1    8.68    0.30
  -1  -7   1    8.40    0.37
  -1  -7   1    8.96    0.28
  -1  -7   1    8.73    0.23
  -1  -7   1    9.33    0.37
  -1  -7   1    8.43    0.23
   0   7  -1   12.61    0.31
   0   7  -1   12.65    0.32
   0   7  -1   12.04    0.42
   0  -7   1   12.62    0.39
   0  -7   1   12.32    0.31
   0  -7   1   12.50    0.50
  -1   7  -1    9.71    0.26
  -1   7  -1    9.35    0.34
  -1   7  -1   10.40    0.25
   1  -7   1    9.85    0.25
  -2   7  -1    2.91    0.09
  -2   7  -1    2.64    0.15
  -2   7  -1    2.91    0.14
  -2   7  -1    2.80    0.09
   2  -7   1    2.76    0.08
  -3   7  -1    3.25    0.16
  -3   7  -1    3.35    0.11
  -4   7  -1    2.13    0.13
  -4   7  -1    1.96    0.08
  -5   7  -1    1.21    0.06
  -5   7  -1    1.30    0.10
  11   6  -1    3.82    0.19
  10   6  -1    0.85    0.08
   9   6  -1    3.71    0.17
  -9  -6   1    3.37    0.11
   8   6  -1    7.87    0.29
  -8  -6   1    7.79    0.31
  -8  -6   1    7.85    0.23
   7   6  -1   19.07    0.60
  -7  -6   1   18.70    0.67
  -7  -6   1   18.27    0.53
   6   6  -1    0.12    0.03
   6   6  -1    0.04    0.03
  -6  -6   1    0.11    0.02
  -6  -6   1    0.10    0.03
   5   6  -1   27.23    0.87
   5   6  -1   28.19    0.85
   5   6  -1   26.66    0.94
  -5  -6   1   27.83    1.03
  -5  -6   1   27.19    0.77
  -5  -6   1   27.53    0.95
   4   6  -1   20.03    0.70
   4   6  -1   20.84    0.63
   4   6  -1   18.95    0.64
  -4  -6   1   19.98    0.57
  -4  -6   1   20.21    0.78
  -4  -6   1   20.47    0.71
  -4  -6   1   20.76    0.50
  -4  -6   1   20.75    0.77
   3   6  -1    0.46    0.04
   3   6  -1    0.43    0.02
   3   6  -1    0.43    0.04
   3   6  -1    0.34    0.04
  -3  -6   1    0.41    0.05
  -3  -6   1    0.32    0.03
  -3  -6   1    0.54    0.05
  -3  -6   1    0.49    0.03
  -3  -6   1    0.38    0.04
   2   6  -1   11.78    0.39
   2   6  -1   11.74    0.39
   2   6  -1   12.45    0.30
  -2  -6   1   12.40    0.43
  -2  -6   1   11.96    0.31
  -2  -6   1   12.15    0.30
  -2  -6   1   12.48    0.38
  -2  -6   1   11.97    0.48
  -2  -6   1   12.76    0.48
  -2  -6   1   11.37    0.35
   1   6  -1   18.25    0.39
   1   6  -1   18.80    0.46
   1   6  -1   18.34    0.59
   1   6  -1   18.74    0.63
   1   6  -1   18.93    0.45
  -1  -6   1   18.07    0.71
  -1  -6   1   17.72    0.45
  -1  -6   1   18.16    0.46
  -1  -6   1   18.36    0.56
  -1  -6   1   18.89    0.71
  -1  -6   1   18.32    0.63
   0   6  -1    9.93    0.35
   0   6  -1    9.65    0.25
   0   6  -1    9.28    0.32
   0   6  -1    9.88    0.24
   0  -6   1    9.50    0.24
   0  -6   1    9.50    0.30
   0  -6   1    9.83    0.38
   0  -6   1    9.13    0.24
   0  -6   1    9.33    0.39
  -1   6  -1   10.27    0.26
  -1   6  -1   10.04    0.25
  -1   6  -1    9.65    0.34
  -1   6  -1   10.23    0.37
   1  -6   1   10.23    0.25
   1  -6   1    9.67    0.41
  -2   6  -1   10.84    0.41
  -2   6  -1   11.03    0.28
  -2   6  -1   10.80    0.38
  -2   6  -1   11.41    0.28
   2  -6   1   10.98    0.45
   2  -6   1   10.99    0.27
  -3   6  -1   14.04    0.48
  -3   6  -1   13.83    0.36
  -3   6  -1   14.25    0.51
  -4   6  -1    5.57    0.16
  -4   6  -1    5.79    0.23
  -5   6  -1    0.81    0.05
  -5   6  -1    0.96    0.09
  -6   6  -1    2.17    0.09
  -6   6  -1    2.45    0.14
  11   5  -1    0.91    0.09
  10   5  -1    1.71    0.11
   9   5  -1    7.42    0.28
   8   5  -1    7.05    0.26
  -8  -5   1    6.59    0.20
  -8  -5   1    6.92    0.28
   7   5  -1    0.05    0.03
  -7  -5   1   -0.01    0.01
  -7  -5   1    0.01    0.02
   6   5  -1   21.98    0.67
   6   5  -1   21.20    0.74
  -6  -5   1   21.53    0.82
  -6  -5   1   21.49    0.80
  -6  -5   1   20.95    0.74
  -6  -5   1   20.52    0.59
   5   5  -1   34.28    1.04
   5   5  -1   34.20    1.07
   5   5  -1   34.50    1.16
  -5  -5   1   34.67    1.26
  -5  -5   1   34.61    1.17
  -5  -5   1   32.61    0.95
  -5  -5   1   35.24    1.29
   4   5  -1   38.71    1.32
   4   5  -1   39.64    1.18
  -4  -5   1   38.72    1.46
  -4  -5   1   39.65    1.32
  -4  -5   1   38.12    1.08
  -4  -5   1   40.16    1.44
   3   5  -1    8.74    0.32
   3   5  -1    8.44    0.31
   3   5  -1    8.87    0.29
  -3  -5   1    9.44    0.35
  -3  -5   1    8.66    0.22
  -3  -5   1    8.85    0.32
  -3  -5   1    8.10    0.26
  -3  -5   1    8.90    0.36
   2   5  -1   43.02    1.38
   2   5  -1   42.74    1.41
   2   5  -1   41.81    1.00
   2   5  -1   41.77    1.26
  -2  -5   1   42.27    1.56
  -2  -5   1   41.57    1.02
  -2  -5   1   42.22    1.41
  -2  -5   1   41.53    1.54
   1   5  -1   18.55    0.62
   1   5  -1   20.72    0.69
   1   5  -1   20.83    0.78
   1   5  -1   20.90    0.49
   1   5  -1   20.31    0.43
  -1  -5   1   20.87    0.77
  -1  -5   1   20.38    0.50
  -1  -5   1   19.48    0.77
  -1  -5   1   21.16    0.69
  -1  -5   1   20.76    0.62
  -1  -5   1   20.36    0.49
   0   5  -1   12.32    0.31
   0   5  -1   12.62    0.44
   0   5  -1   12.51    0.48
   0   5  -1   12.72    0.31
   0   5  -1   11.95    0.40
   0  -5   1   12.57    0.38
   0  -5   1   12.11    0.48
   0  -5   1   12.19    0.31
   0  -5   1   12.72    0.43
   0  -5   1   12.70    0.48
   0  -5   1   12.02    0.31
  -1   5  -1    0.06    0.02
  -1   5  -1    0.10    0.03
   1  -5   1    0.04    0.02
   1  -5   1    0.06    0.02
   1  -5   1    0.08    0.02
   1  -5   1    0.13    0.02
  -2   5  -1    2.39    0.07
  -2   5  -1    2.43    0.07
  -2   5  -1    2.26    0.11
  -2   5  -1    2.38    0.12
   2  -5   1    2.46    0.13
   2  -5   1    2.43    0.07
  -3   5  -1    3.25    0.16
  -3   5  -1    3.51    0.10
  -3   5  -1    3.60    0.15
   3  -5   1    3.31    0.17
  -4   5  -1    9.27    0.25
  -4   5  -1    9.77    0.36
  -4   5  -1    9.88    0.35
  -5   5  -1   -0.02    0.02
  -5   5  -1    0.02    0.04
  -6   5  -1    8.63    0.33
  -6   5  -1    8.24    0.23
  -7   5  -1    1.79    0.12
  -7   5  -1    1.43    0.07
  10   4  -1    5.82    0.24
   9   4  -1    9.56    0.34
   8   4  -1    9.02    0.32
  -8  -4   1    9.13    0.35
   7   4  -1   22.08    0.69
  -7  -4   1   21.09    0.60
  -7  -4   1   21.86    0.83
  -7  -4   1   21.84    0.76
   6   4  -1   21.28    0.65
  -6  -4   1   21.43    0.80
  -6  -4   1   20.63    0.72
  -6  -4   1   19.67    0.58
  -6  -4   1   21.05    0.78
   5   4  -1   23.93    0.82
   5   4  -1   24.71    0.74
  -5  -4   1   24.09    0.82
  -5  -4   1   22.37    0.66
  -5  -4   1   24.57    0.91
  -5  -4   1   24.54    0.89
   4   4  -1   22.60    0.75
   4   4  -1   22.75    0.70
   4   4  -1   22.79    0.78
  -4  -4   1   23.53    0.78
  -4  -4   1   23.22    0.85
  -4  -4   1   21.93    0.63
  -4  -4   1   23.09    0.86
   3   4  -1   31.60    1.17
   3   4  -1   30.59    0.95
   3   4  -1   31.16    1.06
  -3  -4   1   32.30    1.15
  -3  -4   1   30.76    1.17
  -3  -4   1   32.16    1.06
   2   4  -1   14.26    0.48
   2   4  -1   13.74    0.47
   2   4  -1   13.56    0.43
   2   4  -1   13.69    0.33
   2   4  -1   13.72    0.54
  -2  -4   1   14.02    0.53
  -2  -4   1   14.29    0.48
  -2  -4   1   14.05    0.53
   1   4  -1   86.65    2.05
   1   4  -1   87.48    3.44
   1   4  -1   88.76    2.80
   1   4  -1   80.30    2.57
  -1  -4   1   82.91    3.13
  -1  -4   1   89.40    3.17
  -1  -4   1   89.30    2.88
  -1  -4   1   87.86    2.56
   0   4  -1   30.63    1.13
   0   4  -1   30.28    0.74
   0   4  -1   30.90    1.01
   0   4  -1   31.13    0.73
   0  -4   1   31.06    1.13
   0  -4   1   29.21    0.73
   0  -4   1   31.27    1.02
   0  -4   1   30.26    1.13
  -1   4  -1    0.07    0.02
  -1   4  -1    0.10    0.02
  -1   4  -1    0.10    0.01
  -1   4  -1    0.07    0.01
   1  -4   1    0.13    0.02
  -2   4  -1   56.69    1.83
  -2   4  -1   58.04    2.05
  -2   4  -1   54.05    1.74
  -2   4  -1   56.41    1.35
   2  -4   1   51.44    1.66
   2  -4   1   55.16    2.04
   2  -4   1   57.26    1.32
   2  -4   1   59.09    2.05
  -3   4  -1    8.93    0.31
  -3   4  -1    8.92    0.33
  -3   4  -1    8.88    0.23
   3  -4   1    9.03    0.37
  -4   4  -1    0.87    0.07
  -4   4  -1    0.82    0.04
  -4   4  -1    0.85    0.07
   4  -4   1    0.95    0.08
  -5   4  -1    0.35    0.03
  -6   4  -1   10.00    0.36
  -6   4  -1    9.36    0.25
  -7   4  -1    0.80    0.04
  -7   4  -1    1.03    0.09
  -8   4  -1    0.15    0.05
 -11  -3   1    1.41    0.11
   9   3  -1    6.71    0.26
   8   3  -1    9.75    0.34
   7   3  -1   17.71    0.56
  -7  -3   1   17.36    0.62
   6   3  -1    4.79    0.18
   6   3  -1    5.36    0.20
  -6  -3   1    4.42    0.14
  -6  -3   1    4.92    0.21
  -6  -3   1    4.85    0.20
  -6  -3   1    5.10    0.21
   5   3  -1   33.38    1.21
   5   3  -1   33.56    1.18
   5   3  -1   32.46    0.98
  -5  -3   1   30.54    0.89
  -5  -3   1   31.14    1.19
  -5  -3   1   32.48    1.09
  -5  -3   1   32.94    1.20
  -5  -3   1   32.02    1.20
   4   3  -1   44.55    1.57
   4   3  -1   42.25    1.27
   4   3  -1   42.75    1.42
   4   3  -1   42.82    1.54
  -4  -3   1   41.14    1.56
  -4  -3   1   43.03    1.42
  -4  -3   1   41.71    1.56
  -4  -3   1   41.71    1.54
  -4  -3   1   41.95    1.54
   3   3  -1   13.54    0.47
   3   3  -1   13.72    0.51
   3   3  -1   13.63    0.43
   3   3  -1   14.59    0.53
  -3  -3   1   13.74    0.51
  -3  -3   1   14.07    0.48
  -3  -3   1   13.21    0.51
  -3  -3   1   13.79    0.53
   2   3  -1    0.37    0.03
   2   3  -1    0.32    0.03
  -2  -3   1    0.32    0.03
  -2  -3   1    0.35    0.03
  -2  -3   1    0.29    0.03
   1   3  -1   73.59    2.78
   1   3  -1   79.00    2.48
   1   3  -1   76.28    3.14
  -1  -3   1   78.16    2.77
  -1  -3   1   76.43    2.56
  -1  -3   1   77.67    2.80
   0   3  -1   46.49    1.73
   0   3  -1   47.02    1.52
   0   3  -1   46.56    1.58
   0  -3   1   49.97    1.55
   0  -3   1   47.46    1.72
   0  -3   1   44.47    1.70
   0  -3   1   46.81    1.55
  -1   3  -1   16.00    0.60
  -1   3  -1   15.80    0.54
  -1   3  -1   15.70    0.54
   1  -3   1   16.31    0.60
   1  -3   1   15.70    0.60
   1  -3   1   15.54    0.39
   1  -3   1   17.15    0.54
   1  -3   1   16.08    0.54
  -2   3  -1   25.76    0.93
  -2   3  -1   24.36    0.61
  -2   3  -1   25.16    0.84
  -2   3  -1   23.87    0.80
   2  -3   1   25.92    0.60
   2  -3   1   25.64    0.94
   2  -3   1   26.22    0.93
  -3   3  -1   22.15    0.58
  -3   3  -1   23.50    0.80
  -3   3  -1   22.99    0.76
  -3   3  -1   24.85    0.89
   3  -3   1   24.77    0.90
   3  -3   1   26.13    0.88
   3  -3   1   23.47    0.72
  -4   3  -1   20.56    0.70
  -4   3  -1   20.20    0.51
  -4   3  -1   20.38    0.67
   4  -3   1   21.87    0.79
  -5   3  -1   11.01    0.37
  -5   3  -1   10.60    0.38
  -5   3  -1   10.28    0.27
   5  -3   1   10.84    0.44
  -6   3  -1    1.21    0.08
  -7   3  -1    4.16    0.19
  -8   3  -1    1.39    0.10
 -11  -2   1    0.87    0.09
 -10  -2   1    3.49    0.17
   9   2  -1    2.84    0.14
   8   2  -1    6.55    0.24
   7   2  -1   24.56    0.77
   6   2  -1   15.12    0.55
   6   2  -1   14.78    0.46
   6   2  -1   14.88    0.56
  -6  -2   1   14.48    0.56
  -6  -2   1   14.04    0.50
  -6  -2   1   13.55    0.55
  -6  -2   1   14.29    0.55
   5   2  -1    6.66    0.25
   5   2  -1    6.27    0.22
   5   2  -1    6.48    0.26
  -5  -2   1    6.13    0.26
  -5  -2   1    6.24    0.24
  -5  -2   1    6.17    0.26
  -5  -2   1    6.31    0.25
   4   2  -1   53.78    1.95
   4   2  -1   53.44    1.59
   4   2  -1   55.99    1.92
  -4  -2   1   50.93    1.94
  -4  -2   1   50.80    1.94
  -4  -2   1   53.44    1.92
  -4  -2   1   52.79    1.95
  -4  -2   1   54.36    1.77
   3   2  -1  105.19    3.78
   3   2  -1  104.02    3.73
   3   2  -1  101.34    3.07
  -3  -2   1  103.01    3.77
  -3  -2   1  105.08    3.43
  -3  -2   1  105.94    3.72
  -3  -2   1  102.51    3.99
  -3  -2   1   98.51    3.73
   2   2  -1    3.82    0.16
   2   2  -1    3.76    0.15
  -2  -2   1    3.71    0.15
  -2  -2   1    3.81    0.16
  -2  -2   1    3.88    0.14
   1   2  -1   25.14    0.81
   1   2  -1   24.43    0.89
   1   2  -1   23.44    0.88
  -1  -2   1   23.89    0.88
  -1  -2   1   24.31    0.81
   0   2  -1   72.79    2.66
   0   2  -1   74.66    2.34
   0   2  -1   74.88    2.40
   0   2  -1   71.78    2.63
   0  -2   1   67.55    2.62
  -1   2  -1   28.15    0.93
  -1   2  -1   28.11    1.00
  -1   2  -1   27.61    0.89
   1  -2   1   29.59    1.00
   1  -2   1   23.26    1.00
  -2   2  -1   35.02    1.19
  -2   2  -1   36.98    1.34
   2  -2   1   36.87    1.34
   2  -2   1   37.30    1.33
  -3   2  -1    9.25    0.33
  -3   2  -1    8.76    0.31
  -3   2  -1    9.61    0.36
   3  -2   1    9.93    0.36
   3  -2   1    9.81    0.37
  -4   2  -1   26.78    0.90
  -4   2  -1   28.21    0.94
   4  -2   1   30.21    1.06
  -5   2  -1    6.08    0.23
  -5   2  -1    6.12    0.23
   5  -2   1    6.42    0.27
  -6   2  -1    4.10    0.17
  -6   2  -1    4.42    0.18
   6  -2   1    4.57    0.21
  -7   2  -1    3.21    0.15
  -8   2  -1    0.86    0.08
  -9   2  -1    1.71    0.12
 -10  -1   1    2.98    0.16
  -9  -1   1    3.76    0.18
   8   1  -1    0.10    0.03
   7   1  -1   19.21    0.61
   6   1  -1   25.63    0.91
   6   1  -1   24.83    0.76
  -6  -1   1   24.62    0.83
  -6  -1   1   23.18    0.92
   5   1  -1   34.97    1.21
   5   1  -1   32.83    1.22
   5   1  -1   33.38    1.00
  -5  -1   1   33.15    1.22
  -5  -1   1   32.93    1.11
  -5  -1   1   33.43    1.22
  -5  -1   1   31.15    1.22
   4   1  -1   58.46    2.06
   4   1  -1   57.69    1.69
   4   1  -1   57.23    2.07
  -4  -1   1   56.66    2.07
  -4  -1   1   57.10    2.07
  -4  -1   1   56.27    2.05
  -4  -1   1   54.07    2.06
  -4  -1   1   56.52    1.88
   3   1  -1  238.24    8.34
   3   1  -1  224.56    7.03
   3   1  -1  224.21    8.60
  -3  -1   1  217.58    8.43
  -3  -1   1  227.22    8.52
  -3  -1   1  233.25    8.24
  -3  -1   1  212.23    8.43
  -3  -1   1  226.56    7.87
   2   1  -1  257.55    9.91
   2   1  -1  267.93    8.99
  -2  -1   1  266.63    9.03
  -2  -1   1  255.58    8.86
  -2  -1   1  272.63    9.60
  -2  -1   1  255.79    9.70
  -2  -1   1  263.90    9.94
   1   1  -1  107.07    4.62
   1   1  -1  127.45    4.23
  -1  -1   1  123.49    4.41
   0   1  -1    9.17    0.34
  -1   1  -1    5.96    0.21
  -1   1  -1    5.36    0.21
  -1   1  -1    5.52    0.19
  -1   1  -1    5.42    0.19
  -2   1  -1   46.73    1.74
  -2   1  -1   48.66    1.57
  -2   1  -1   46.86    1.54
   2  -1   1   50.56    1.73
   2  -1   1   45.69    1.74
  -3   1  -1    3.48    0.12
  -3   1  -1    3.37    0.13
  -3   1  -1    3.80    0.14
  -3   1  -1    3.13    0.12
  -3   1  -1    3.17    0.13
   3  -1   1    3.50    0.15
   3  -1   1    3.40    0.12
   3  -1   1    3.52    0.14
  -4   1  -1    5.41    0.20
  -4   1  -1    5.71    0.23
  -4   1  -1    5.58    0.20
  -4   1  -1    5.98    0.20
  -4   1  -1    5.49    0.20
  -4   1  -1    5.88    0.22
   4  -1   1    6.00    0.24
   4  -1   1    6.16    0.23
   4  -1   1    5.91    0.20
  -5   1  -1    6.34    0.23
  -5   1  -1    6.23    0.23
   5  -1   1    7.09    0.28
  -6   1  -1    8.78    0.32
   6  -1   1    9.25    0.38
  -7   1  -1    7.85    0.29
   7  -1   1    7.79    0.34
  -8   1  -1    2.44    0.13
  -9   1  -1    1.90    0.12
 -10   1  -1    1.40    0.11
 -10   0   1    1.80    0.12
  -9   0   1    5.47    0.23
  -8   0   1    1.55    0.10
   7   0  -1   15.23    0.49
   6   0  -1   16.85    0.53
   6   0  -1   16.87    0.64
   5   0  -1   23.69    0.89
   5   0  -1   24.20    0.74
  -5   0   1   24.17    0.81
   4   0  -1    1.77    0.09
   4   0  -1    1.87    0.08
  -4   0   1    1.80    0.08
  -4   0   1    1.88    0.08
  -4   0   1    2.06    0.08
   3   0  -1   83.47    3.13
   3   0  -1   87.82    2.57
   3   0  -1   89.44    3.12
   3   0  -1   86.47    3.03
  -3   0   1   87.01    3.14
  -3   0   1   85.37    2.85
  -3   0   1   87.22    3.13
  -3   0   1   87.82    2.92
  -3   0   1   80.58    3.11
   2   0  -1   10.63    0.43
   2   0  -1   11.94    0.39
  -2   0   1   11.74    0.43
  -2   0   1   11.64    0.43
  -2   0   1   12.15    0.43
  -2   0   1   11.82    0.39
   1   0  -1   85.48    3.00
  -2   0  -1   78.21    2.73
  -2   0  -1   77.48    2.48
  -2   0  -1   70.50    2.42
  -2   0  -1   73.66    2.74
  -3   0  -1   29.39    1.00
  -3   0  -1   30.81    1.00
  -3   0  -1   30.27    1.10
  -3   0  -1   29.16    0.97
  -3   0  -1   28.93    1.11
   3   0   1   30.09    1.00
   3   0   1   32.19    1.10
   3   0   1   30.60    1.11
  -4   0  -1   31.35    1.05
  -4   0  -1   34.57    1.23
  -4   0  -1   32.02    1.24
  -4   0  -1   33.54    1.09
  -4   0  -1   32.48    1.12
   4   0   1   34.64    1.23
   4   0   1   33.90    1.12
   4   0   1   36.25    1.24
  -5   0  -1   10.28    0.36
  -5   0  -1    9.64    0.35
  -5   0  -1   10.83    0.40
  -5   0  -1   10.06    0.40
   5   0   1   10.41    0.36
   5   0   1   10.58    0.41
   5   0   1   10.78    0.40
   5   0   1   10.70    0.33
  -6   0  -1    6.14    0.23
   6   0   1    6.80    0.28
  -7   0  -1   11.04    0.47
  -7   0  -1   11.32    0.39
   7   0   1   11.34    0.46
  -8   0  -1    1.23    0.09
  -9   0  -1    4.42    0.20
 -10   0  -1    2.67    0.15
  -9   1   1    0.97    0.09
  -8   1   1    5.56    0.23
  -7   1   1    8.03    0.30
   6  -1  -1   14.66    0.57
   6  -1  -1   15.12    0.47
  -6   1   1   14.27    0.49
   5  -1  -1   19.67    0.75
   5  -1  -1   20.19    0.62
   4  -1  -1    0.46    0.04
   4  -1  -1    0.34    0.04
  -4   1   1    0.45    0.02
  -4   1   1    0.39    0.02
  -4   1   1    0.40    0.03
  -4   1   1    0.31    0.03
   3  -1  -1  150.79    5.16
   3  -1  -1  161.94    5.67
   3  -1  -1  156.35    4.64
  -3   1   1  162.40    5.16
  -3   1   1  151.44    5.24
   2  -1  -1   13.33    0.45
   2  -1  -1   13.73    0.51
  -2   1   1   13.95    0.51
  -2   1   1   13.62    0.45
  -2   1   1   13.62    0.45
   1  -1  -1    0.02    0.01
   1  -1  -1    0.02    0.01
  -1   1   1    0.00    0.01
   0   1   1   27.42    1.01
  -1  -1  -1   74.26    2.70
  -1  -1  -1   79.26    2.51
  -1  -1  -1   69.58    2.48
  -1  -1  -1   65.32    2.72
   1   1   1   79.13    2.72
   1   1   1   80.48    2.74
  -2  -1  -1  146.54    5.26
  -2  -1  -1  153.51    5.20
  -2  -1  -1  142.86    4.76
  -2  -1  -1  139.45    5.73
  -2  -1  -1  144.01    5.25
   2   1   1  140.71    5.64
   2   1   1  141.23    5.69
  -3  -1  -1    0.48    0.03
  -3  -1  -1    0.43    0.03
  -3  -1  -1    0.42    0.03
  -3  -1  -1    0.51    0.03
  -3  -1  -1    0.47    0.04
   3   1   1    0.54    0.04
   3   1   1    0.48    0.03
   3   1   1    0.51    0.03
  -4  -1  -1  151.96    5.37
  -4  -1  -1  142.34    5.38
  -4  -1  -1  143.53    5.50
  -4  -1  -1  144.95    4.88
   4   1   1  147.90    5.38
   4   1   1  148.48    4.87
   4   1   1  152.52    5.83
  -5  -1  -1   18.99    0.69
  -5  -1  -1   17.36    0.70
  -5  -1  -1   18.48    0.63
  -5  -1  -1   17.88    0.70
   5   1   1   18.57    0.63
   5   1   1   18.79    0.70
   5   1   1   18.76    0.57
   5   1   1   19.21    0.70
  -6  -1  -1   10.43    0.44
  -6  -1  -1   10.87    0.38
  -6  -1  -1   10.80    0.43
  -6  -1  -1   10.28    0.36
   6   1   1   11.07    0.38
   6   1   1   11.11    0.42
   6   1   1   10.81    0.43
   6   1   1   11.19    0.35
  -7  -1  -1   11.02    0.48
  -7  -1  -1   11.97    0.40
   7   1   1   11.80    0.46
  -8  -1  -1    1.13    0.08
  -9  -1  -1    1.85    0.11
 -10  -1  -1    1.78    0.11
  -9   2   1    0.87    0.09
  -8   2   1    3.23    0.16
  -7   2   1    3.94    0.18
   6  -2  -1    9.15    0.39
  -6   2   1    9.47    0.33
   5  -2  -1    9.56    0.39
   5  -2  -1    9.74    0.32
  -5   2   1    9.70    0.34
   4  -2  -1   25.81    0.94
   4  -2  -1   25.26    0.77
  -4   2   1   24.38    0.80
   3  -2  -1  103.76    3.64
   3  -2  -1   97.60    2.97
  -3   2   1   97.97    3.09
  -3   2   1  102.48    3.24
   2  -2  -1   22.41    0.70
   2  -2  -1   23.38    0.86
  -2   2   1   23.74    0.77
   1  -2  -1    0.52    0.02
   1  -2  -1    0.40    0.03
   1  -2  -1    0.47    0.02
  -1   2   1    0.48    0.03
  -1   2   1    0.44    0.04
  -1   2   1    0.42    0.02
   0  -2  -1  879.37   29.09
   0  -2  -1  937.87   32.62
   0  -2  -1  862.84   29.55
   0   2   1  789.53   32.60
   0   2   1  800.58   32.67
   0   2   1  977.28   29.19
   0   2   1 1000.00   29.62
  -1  -2  -1    0.10    0.02
  -1  -2  -1    0.11    0.02
  -1  -2  -1    0.13    0.02
   1   2   1    0.14    0.02
   1   2   1    0.12    0.02
   1   2   1    0.13    0.02
  -2  -2  -1   19.29    0.63
  -2  -2  -1   19.93    0.72
  -2  -2  -1   20.07    0.72
  -2  -2  -1   20.27    0.65
  -2  -2  -1   18.34    0.71
  -2  -2  -1   18.82    0.72
   2   2   1   20.27    0.72
   2   2   1   18.01    0.72
   2   2   1   20.43    0.72
   2   2   1   17.29    0.65
  -3  -2  -1   44.24    1.62
  -3  -2  -1   43.66    1.61
  -3  -2  -1   44.91    1.47
  -3  -2  -1   44.06    1.60
  -3  -2  -1   43.29    1.61
   3   2   1   44.02    1.60
   3   2   1   44.01    1.60
   3   2   1   44.11    1.61
   3   2   1   43.81    1.46
   3   2   1   45.04    1.62
  -4  -2  -1  207.90    7.35
  -4  -2  -1  201.90    6.68
  -4  -2  -1  192.48    7.31
  -4  -2  -1  196.86    7.37
   4   2   1  204.52    7.36
   4   2   1  203.12    7.36
   4   2   1  198.34    5.97
   4   2   1  209.27    7.29
   4   2   1  200.79    6.67
  -5  -2  -1    0.11    0.02
  -5  -2  -1    0.13    0.03
  -5  -2  -1    0.16    0.02
  -5  -2  -1    0.11    0.02
   5   2   1    0.10    0.02
   5   2   1    0.13    0.02
   5   2   1    0.14    0.02
   5   2   1    0.18    0.02
  -6  -2  -1    0.07    0.02
  -6  -2  -1    0.11    0.03
   6   2   1    0.13    0.02
   6   2   1    0.11    0.02
   6   2   1    0.15    0.03
   6   2   1    0.09    0.02
  -7  -2  -1    9.84    0.44
  -7  -2  -1   10.68    0.39
   7   2   1   10.68    0.38
   7   2   1   11.32    0.35
   7   2   1   10.80    0.43
  -8  -2  -1   10.73    0.37
  -9  -2  -1    0.04    0.03
 -10  -2  -1    0.97    0.08
 -11  -2  -1    0.72    0.08
  -8   3   1    1.07    0.09
  -7   3   1    2.04    0.12
  -6   3   1    1.39    0.05
  -6   3   1    1.42    0.09
   5  -3  -1    6.46    0.29
  -5   3   1    6.94    0.25
  -5   3   1    7.06    0.18
   4  -3  -1   27.19    0.96
   4  -3  -1   23.77    0.78
  -4   3   1   25.90    0.82
  -4   3   1   25.63    0.62
  -4   3   1   25.16    0.85
   3  -3  -1   46.06    1.72
   3  -3  -1   44.95    1.41
  -3   3   1   46.91    1.46
  -3   3   1   47.87    1.13
  -3   3   1   49.01    1.54
   2  -3  -1   40.83    1.34
   2  -3  -1   35.73    0.87
   2  -3  -1   37.45    1.35
   2  -3  -1   35.64    1.10
  -2   3   1   36.55    0.89
  -2   3   1   34.95    1.15
  -2   3   1   35.97    1.34
  -2   3   1   37.33    1.21
   1  -3  -1   58.87    2.14
   1  -3  -1   56.37    1.74
   1  -3  -1   62.27    2.14
   1  -3  -1   56.59    1.39
   1  -3  -1   61.16    1.98
   1  -3  -1   59.44    2.14
   1  -3  -1   58.22    1.95
  -1   3   1   56.36    2.15
  -1   3   1   56.85    1.91
  -1   3   1   62.75    1.94
   0  -3  -1  272.40    8.70
   0  -3  -1  258.20   10.27
   0  -3  -1  272.82    9.15
   0  -3  -1  271.55    9.77
   0  -3  -1  256.44    9.26
   0  -3  -1  287.06   10.04
   0   3   1  281.85    8.72
   0   3   1  254.66   10.13
   0   3   1  275.60    9.21
  -1  -3  -1   20.87    0.74
  -1  -3  -1   19.34    0.73
  -1  -3  -1   20.64    0.65
  -1  -3  -1   18.41    0.73
  -1  -3  -1   18.51    0.67
   1   3   1   20.17    0.65
   1   3   1   19.58    0.73
   1   3   1   20.67    0.67
  -2  -3  -1   18.14    0.66
  -2  -3  -1   17.79    0.66
  -2  -3  -1   17.44    0.66
  -2  -3  -1   16.65    0.58
  -2  -3  -1   18.17    0.60
   2   3   1   17.37    0.60
   2   3   1   17.21    0.66
   2   3   1   17.94    0.66
   2   3   1   17.98    0.66
  -3  -3  -1   22.51    0.81
  -3  -3  -1   22.14    0.81
  -3  -3  -1   21.94    0.82
  -3  -3  -1   22.46    0.74
  -3  -3  -1   20.47    0.71
   3   3   1   21.06    0.81
   3   3   1   21.96    0.74
   3   3   1   21.40    0.66
   3   3   1   22.69    0.82
   3   3   1   20.85    0.71
  -4  -3  -1   36.78    1.34
  -4  -3  -1   35.05    1.34
  -4  -3  -1   35.97    1.33
  -4  -3  -1   37.25    1.22
   4   3   1   37.33    1.34
   4   3   1   35.95    1.21
   4   3   1   36.15    1.32
   4   3   1   34.36    1.33
   4   3   1   36.46    1.08
  -5  -3  -1   30.68    1.15
  -5  -3  -1   29.77    1.14
  -5  -3  -1   30.92    1.04
   5   3   1   31.12    0.93
   5   3   1   30.26    1.04
   5   3   1   31.28    1.14
   5   3   1   31.22    1.13
  -6  -3  -1    7.61    0.32
  -6  -3  -1    7.82    0.32
  -6  -3  -1    7.74    0.29
   6   3   1    7.73    0.31
   6   3   1    7.57    0.29
   6   3   1    7.94    0.26
   6   3   1    7.87    0.32
  -7  -3  -1    9.32    0.35
  -7  -3  -1    8.56    0.39
  -7  -3  -1    9.38    0.39
   7   3   1    9.43    0.34
   7   3   1    9.70    0.38
   7   3   1    9.49    0.31
   7   3   1    9.44    0.37
   8   3   1   29.98    0.93
  -9  -3  -1    2.66    0.13
 -10  -3  -1    1.31    0.10
 -11  -3  -1    3.75    0.18
  -8   4   1    0.72    0.09
  -8   4   1    0.76    0.04
  -7   4   1    2.81    0.09
  -7   4   1    3.01    0.16
  -6   4   1    5.79    0.16
  -6   4   1    6.42    0.25
  -5   4   1    3.44    0.10
  -5   4   1    3.55    0.16
   4  -4  -1    0.14    0.04
  -4   4   1    0.17    0.03
  -4   4   1    0.13    0.03
  -4   4   1    0.23    0.02
   3  -4  -1   18.71    0.68
   3  -4  -1   16.11    0.55
  -3   4   1   17.67    0.58
  -3   4   1   18.06    0.61
  -3   4   1   18.08    0.44
   2  -4  -1   21.51    0.51
   2  -4  -1   21.10    0.65
   2  -4  -1   21.02    0.80
  -2   4   1   21.23    0.72
  -2   4   1   21.03    0.68
  -2   4   1   21.73    0.52
   1  -4  -1    3.66    0.17
   1  -4  -1    3.76    0.16
   1  -4  -1    4.13    0.16
   1  -4  -1    4.23    0.14
   1  -4  -1    4.09    0.14
   1  -4  -1    3.86    0.13
   1  -4  -1    3.71    0.10
  -1   4   1    3.77    0.16
  -1   4   1    3.65    0.14
  -1   4   1    3.78    0.10
  -1   4   1    3.75    0.16
  -1   4   1    4.26    0.14
  -1   4   1    3.82    0.10
   0  -4  -1   35.48    1.08
   0  -4  -1   35.28    1.34
   0  -4  -1   36.25    1.21
   0  -4  -1   36.29    1.33
   0  -4  -1   36.20    0.87
   0  -4  -1   36.91    1.33
   0   4   1   34.77    0.88
   0   4   1   39.43    1.21
   0   4   1   36.96    0.86
   0   4   1   36.64    1.19
   0   4   1   35.38    1.34
  -1  -4  -1  112.27    4.51
  -1  -4  -1  116.06    3.67
  -1  -4  -1  112.68    3.36
  -1  -4  -1  113.64    3.77
  -1  -4  -1  112.38    4.17
  -1  -4  -1  117.88    4.16
   1   4   1  115.46    3.76
   1   4   1  114.48    3.67
   1   4   1  113.33    4.18
   1   4   1  109.87    2.69
  -2  -4  -1   76.47    2.67
  -2  -4  -1   72.11    2.38
  -2  -4  -1   75.54    2.45
  -2  -4  -1   72.55    2.69
  -2  -4  -1   73.25    2.18
  -2  -4  -1   72.17    2.69
   2   4   1   74.96    2.69
   2   4   1   72.30    1.74
   2   4   1   72.03    2.44
   2   4   1   75.22    2.38
  -3  -4  -1   22.78    0.79
  -3  -4  -1   24.69    0.90
  -3  -4  -1   24.21    0.90
  -3  -4  -1   23.87    0.90
  -3  -4  -1   24.23    0.82
   3   4   1   23.74    0.73
   3   4   1   23.99    0.82
   3   4   1   24.94    0.90
  -4  -4  -1   36.41    1.22
  -4  -4  -1   36.13    1.35
  -4  -4  -1   37.16    1.34
  -4  -4  -1   34.37    0.99
   4   4   1   36.25    1.34
   4   4   1   36.18    1.17
   4   4   1   36.36    1.22
   4   4   1   36.68    1.09
  -5  -4  -1   22.97    0.77
  -5  -4  -1   22.14    0.84
  -5  -4  -1   21.93    0.84
  -5  -4  -1   21.10    0.61
   5   4   1   22.34    0.76
   5   4   1   22.33    0.68
   5   4   1   22.19    0.84
  -6  -4  -1    7.63    0.32
  -6  -4  -1    7.49    0.29
  -6  -4  -1    7.55    0.32
   6   4   1    7.51    0.28
   6   4   1    7.55    0.31
   6   4   1    7.66    0.26
  -7  -4  -1   12.24    0.52
  -7  -4  -1   12.67    0.47
  -7  -4  -1   12.81    0.52
   7   4   1   14.00    0.42
   7   4   1   12.94    0.47
   7   4   1   12.84    0.50
  -8  -4  -1    6.56    0.27
   8   4   1    6.76    0.27
   8   4   1    6.96    0.25
   9   4   1    4.55    0.18
 -10  -4  -1    2.54    0.13
  -7   5   1    1.64    0.07
  -7   5   1    1.97    0.13
  -6   5   1    2.68    0.15
  -6   5   1    2.74    0.09
  -5   5   1    4.50    0.13
  -5   5   1    4.74    0.20
  -4   5   1   10.22    0.27
  -4   5   1   10.25    0.39
  -4   5   1   10.63    0.37
   3  -5  -1    9.80    0.35
   3  -5  -1   10.84    0.43
  -3   5   1   10.57    0.39
  -3   5   1   11.15    0.27
  -3   5   1   10.56    0.37
   2  -5  -1   10.38    0.41
   2  -5  -1    9.84    0.33
   2  -5  -1    9.99    0.25
  -2   5   1   10.10    0.26
  -2   5   1    9.90    0.37
  -2   5   1    9.77    0.34
  -2   5   1   10.33    0.25
   1  -5  -1   12.89    0.52
   1  -5  -1   13.11    0.41
   1  -5  -1   13.88    0.51
   1  -5  -1   13.60    0.33
  -1   5   1   13.70    0.33
  -1   5   1   12.85    0.43
  -1   5   1   12.85    0.47
  -1   5   1   13.61    0.33
   0  -5  -1   44.34    1.61
   0  -5  -1   42.27    1.06
   0  -5  -1   42.32    1.04
   0  -5  -1   42.94    1.46
   0  -5  -1   44.74    1.62
   0  -5  -1   44.94    1.61
   0  -5  -1   42.85    1.30
   0   5   1   42.66    1.61
   0   5   1   43.55    1.06
   0   5   1   47.38    1.46
   0   5   1   43.51    1.44
   0   5   1   44.40    1.04
  -1  -5  -1    8.65    0.31
  -1  -5  -1    8.81    0.31
  -1  -5  -1    8.99    0.36
  -1  -5  -1    9.09    0.35
  -1  -5  -1    8.78    0.23
  -1  -5  -1    8.81    0.28
  -1  -5  -1    8.73    0.35
  -1  -5  -1    8.81    0.22
   1   5   1    8.83    0.31
   1   5   1    8.84    0.32
   1   5   1    8.75    0.22
   1   5   1    8.68    0.35
  -2  -5  -1   36.83    0.88
  -2  -5  -1   36.02    1.22
  -2  -5  -1   35.96    1.19
  -2  -5  -1   37.66    1.34
  -2  -5  -1   36.70    1.35
  -2  -5  -1   35.79    1.08
  -2  -5  -1   36.24    1.35
   2   5   1   35.87    1.22
   2   5   1   36.05    0.86
   2   5   1   36.91    1.19
   2   5   1   36.93    1.35
   2   5   1   35.08    1.10
  -3  -5  -1   40.80    1.34
  -3  -5  -1   40.86    1.38
  -3  -5  -1   39.58    1.13
  -3  -5  -1   42.16    1.52
  -3  -5  -1   41.86    1.22
  -3  -5  -1   42.53    1.51
   3   5   1   41.36    1.23
   3   5   1   38.35    1.34
   3   5   1   41.02    1.37
  -4  -5  -1   48.79    1.79
  -4  -5  -1   49.25    1.80
  -4  -5  -1   48.54    1.63
  -4  -5  -1   46.97    1.34
   4   5   1   48.97    1.63
   4   5   1   49.42    1.46
  -5  -5  -1   27.30    0.78
  -5  -5  -1   29.02    0.97
  -5  -5  -1   27.81    1.07
  -5  -5  -1   28.42    1.06
   5   5   1   29.18    0.87
   5   5   1   27.79    0.96
  -6  -5  -1   15.37    0.60
  -6  -5  -1   15.14    0.55
  -6  -5  -1   15.51    0.60
  -6  -5  -1   14.72    0.43
   6   5   1   14.98    0.54
   6   5   1   15.54    0.49
  -7  -5  -1    8.48    0.37
  -7  -5  -1    8.63    0.25
  -7  -5  -1    8.99    0.34
   7   5   1    8.68    0.33
   7   5   1    9.11    0.30
  -8  -5  -1    3.35    0.17
   8   5   1    3.37    0.16
   8   5   1    3.74    0.15
  -9  -5  -1    2.30    0.13
   9   5   1    2.33    0.12
   9   5   1    2.21    0.12
  10   5   1    0.32    0.05
  -6   6   1    0.43    0.07
  -6   6   1    0.25    0.03
  -5   6   1    2.97    0.10
  -5   6   1    3.25    0.16
  -4   6   1    2.26    0.08
  -4   6   1    2.20    0.12
  -3   6   1    6.72    0.18
  -3   6   1    6.36    0.27
  -3   6   1    6.71    0.25
   2  -6  -1   12.40    0.50
   2  -6  -1   12.47    0.40
   2  -6  -1   12.38    0.31
  -2   6   1   11.84    0.45
  -2   6   1   12.59    0.32
  -2   6   1   12.82    0.31
  -2   6   1   11.91    0.42
   1  -6  -1   18.73    0.56
   1  -6  -1   18.35    0.70
   1  -6  -1   18.40    0.44
  -1   6   1   18.58    0.45
  -1   6   1   17.39    0.59
  -1   6   1   17.23    0.63
  -1   6   1   17.78    0.44
   0  -6  -1   18.11    0.46
   0  -6  -1   18.83    0.72
   0  -6  -1   18.24    0.46
   0  -6  -1   18.11    0.57
   0  -6  -1   19.93    0.71
   0   6   1   17.69    0.59
   0   6   1   18.74    0.46
   0   6   1   18.50    0.64
   0   6   1   18.94    0.45
  -1  -6  -1   30.69    0.75
  -1  -6  -1   30.71    1.15
  -1  -6  -1   29.45    1.15
  -1  -6  -1   30.65    0.74
  -1  -6  -1   30.72    0.92
  -1  -6  -1   30.47    1.04
   1   6   1   30.72    1.03
   1   6   1   30.51    0.74
   1   6   1   31.35    0.75
   1   6   1   32.28    1.04
  -2  -6  -1   38.90    0.92
  -2  -6  -1   38.37    1.40
  -2  -6  -1   36.69    1.40
  -2  -6  -1   37.06    0.90
  -2  -6  -1   37.55    1.27
  -2  -6  -1   36.98    1.05
  -2  -6  -1   37.13    1.12
   2   6   1   38.02    0.89
   2   6   1   37.74    1.26
  -3  -6  -1   16.34    0.50
  -3  -6  -1   16.48    0.64
  -3  -6  -1   15.82    0.47
  -3  -6  -1   16.62    0.41
  -3  -6  -1   16.47    0.64
  -3  -6  -1   16.44    0.57
   3   6   1   16.39    0.52
   3   6   1   16.26    0.57
  -4  -6  -1   30.08    0.71
  -4  -6  -1   28.77    0.88
  -4  -6  -1   28.79    0.82
  -4  -6  -1   28.93    1.11
  -4  -6  -1   29.54    1.00
  -4  -6  -1   29.36    1.10
   4   6   1   28.41    1.00
   4   6   1   29.82    0.90
  -5  -6  -1   14.99    0.60
  -5  -6  -1   14.93    0.43
  -5  -6  -1   15.22    0.54
  -5  -6  -1   14.94    0.59
   5   6   1   15.40    0.48
   5   6   1   14.71    0.53
  -6  -6  -1   10.53    0.43
  -6  -6  -1   10.35    0.39
  -6  -6  -1   10.21    0.30
   6   6   1   10.51    0.35
   6   6   1   10.25    0.39
  -7  -6  -1   15.81    0.64
  -7  -6  -1   16.12    0.46
  -7  -6  -1   16.12    0.58
   7   6   1   16.36    0.52
   7   6   1   16.07    0.58
  -8  -6  -1    9.01    0.36
  -8  -6  -1    9.06    0.27
   8   6   1    9.15    0.36
   8   6   1    9.46    0.32
   9   6   1    1.97    0.11
  10   6   1    2.26    0.12
  -5   7   1    2.88    0.10
  -5   7   1    3.06    0.16
  -4   7   1    0.65    0.04
  -4   7   1    0.65    0.08
  -3   7   1    2.74    0.09
  -3   7   1    2.75    0.14
   2  -7  -1    7.06    0.18
  -2   7   1    6.76    0.26
  -2   7   1    7.00    0.19
  -2   7   1    6.50    0.28
  -2   7   1    6.92    0.19
   1  -7  -1    9.81    0.32
   1  -7  -1    9.69    0.25
  -1   7   1    9.95    0.25
  -1   7   1    9.53    0.34
  -1   7   1   10.00    0.26
   0  -7  -1    7.61    0.20
   0  -7  -1    7.68    0.33
   0  -7  -1    7.25    0.20
   0  -7  -1    7.74    0.25
   0   7   1    7.19    0.20
   0   7   1    7.38    0.20
  -1  -7  -1   10.72    0.28
  -1  -7  -1   10.87    0.45
  -1  -7  -1   10.94    0.28
  -1  -7  -1   10.74    0.35
  -1  -7  -1   11.45    0.44
   1   7   1   10.92    0.27
  -2  -7  -1    5.27    0.19
  -2  -7  -1    5.52    0.16
  -2  -7  -1    5.78    0.19
  -2  -7  -1    5.51    0.22
  -2  -7  -1    5.90    0.26
  -2  -7  -1    5.54    0.25
  -2  -7  -1    5.66    0.16
   2   7   1    5.57    0.15
   2   7   1    5.54    0.22
  -3  -7  -1   15.81    0.56
  -3  -7  -1   15.87    0.40
  -3  -7  -1   15.44    0.46
  -3  -7  -1   15.81    0.62
  -3  -7  -1   15.83    0.49
  -3  -7  -1   15.93    0.62
   3   7   1   15.96    0.51
   3   7   1   15.51    0.55
   3   7   1   15.54    0.38
  -4  -7  -1   13.17    0.47
  -4  -7  -1   12.95    0.33
  -4  -7  -1   12.75    0.41
  -4  -7  -1   13.06    0.52
  -4  -7  -1   12.53    0.38
   4   7   1   12.91    0.47
   4   7   1   12.85    0.42
  -5  -7  -1    7.81    0.24
  -5  -7  -1    7.71    0.30
  -5  -7  -1    7.65    0.20
  -5  -7  -1    7.88    0.34
   5   7   1    7.98    0.27
   5   7   1    7.38    0.30
  -6  -7  -1    5.50    0.23
  -6  -7  -1    5.51    0.26
  -6  -7  -1    5.29    0.18
   6   7   1    5.63    0.23
   6   7   1    5.71    0.21
  -7  -7  -1   24.32    0.95
  -7  -7  -1   25.61    0.70
  -7  -7  -1   24.44    0.87
   7   7   1   24.24    0.87
   7   7   1   25.14    0.78
  -8  -7  -1    7.84    0.23
   8   7   1    7.53    0.28
  -9  -7  -1    5.54    0.18
   9   7   1    5.93    0.23
  10   7   1    2.96    0.15
  11   7   1    5.48    0.23
  -4   8   1    0.66    0.05
  -4   8   1    0.66    0.08
  -3   8   1    0.69    0.08
  -3   8   1    0.64    0.04
   2  -8  -1    4.78    0.13
  -2   8   1    4.56    0.14
  -2   8   1    4.43    0.14
   1  -8  -1    1.83    0.07
  -1   8   1    1.79    0.07
  -1   8   1    1.83    0.07
   0  -8  -1    6.76    0.19
   0  -8  -1    6.75    0.23
   0   8   1    6.87    0.19
   0   8   1    6.58    0.18
  -1  -8  -1   13.24    0.42
  -1  -8  -1   12.96    0.34
  -1  -8  -1   13.04    0.34
   1   8   1   13.02    0.33
  -2  -8  -1    8.74    0.24
  -2  -8  -1    9.41    0.24
  -2  -8  -1    8.95    0.39
  -2  -8  -1    8.84    0.30
   2   8   1    9.23    0.23
  -3  -8  -1   13.23    0.42
  -3  -8  -1   13.71    0.34
  -3  -8  -1   12.82    0.54
  -3  -8  -1   13.17    0.48
  -3  -8  -1   13.18    0.40
   3   8   1   13.63    0.32
   3   8   1   13.16    0.48
  -4  -8  -1   11.15    0.47
  -4  -8  -1   11.13    0.34
  -4  -8  -1   11.67    0.37
  -4  -8  -1   11.53    0.42
  -4  -8  -1   11.35    0.29
   4   8   1   10.97    0.42
   4   8   1   11.56    0.39
  -5  -8  -1    6.44    0.18
  -5  -8  -1    6.42    0.23
  -5  -8  -1    6.34    0.27
  -5  -8  -1    6.66    0.21
  -5  -8  -1    6.74    0.30
   5   8   1    6.52    0.24
   5   8   1    6.50    0.26
  -6  -8  -1    8.60    0.34
  -6  -8  -1    8.63    0.38
  -6  -8  -1    8.82    0.27
  -6  -8  -1    8.50    0.29
   6   8   1    8.43    0.34
   6   8   1    8.63    0.31
  -7  -8  -1    1.72    0.12
  -7  -8  -1    1.58    0.08
   7   8   1    1.76    0.10
  -8  -8  -1    3.63    0.13
   8   8   1    3.79    0.17
  -9  -8  -1    5.11    0.17
   9   8   1    5.00    0.21
 -10  -8  -1    2.61    0.10
  10   8   1    2.35    0.13
 -11  -8  -1    1.00    0.05
  11   8   1    1.04    0.09
  -3   9   1    1.77    0.08
   2  -9  -1    3.62    0.10
  -2   9   1    3.44    0.12
  -2   9   1    3.38    0.12
   1  -9  -1    1.11    0.05
  -1   9   1    1.06    0.05
  -1   9   1    1.15    0.06
   0  -9  -1    1.98    0.08
   0   9   1    1.82    0.07
  -1  -9  -1    3.37    0.13
  -1  -9  -1    3.26    0.11
  -1  -9  -1    3.29    0.11
   1   9   1    3.05    0.10
  -2  -9  -1   12.23    0.32
  -2  -9  -1   12.09    0.39
  -2  -9  -1   11.44    0.31
   2   9   1   12.01    0.30
  -3  -9  -1    5.38    0.16
  -3  -9  -1    5.65    0.16
  -3  -9  -1    5.44    0.20
   3   9   1    5.33    0.14
  -4  -9  -1    8.32    0.23
  -4  -9  -1    8.27    0.28
  -4  -9  -1    8.46    0.27
  -4  -9  -1    8.32    0.33
   4   9   1    8.39    0.32
  -5  -9  -1    7.71    0.22
  -5  -9  -1    8.12    0.26
  -5  -9  -1    7.87    0.32
  -5  -9  -1    7.96    0.27
   5   9   1    8.05    0.29
   5   9   1    7.78    0.31
  -6  -9  -1   31.95    0.78
  -6  -9  -1   30.82    0.97
  -6  -9  -1   32.69    0.90
   6   9   1   31.21    0.99
  -7  -9  -1    0.75    0.07
  -7  -9  -1    0.62    0.07
   7   9   1    0.65    0.07
  -8  -9  -1    3.15    0.12
   8   9   1    3.18    0.15
  -9  -9  -1    5.84    0.19
   9   9   1    5.54    0.24
 -10  -9  -1    0.85    0.06
  10   9   1    0.77    0.08
 -11  -9  -1    0.22    0.03
  11   9   1    0.33    0.06
  -2  10   1    0.82    0.05
   1 -10  -1    1.91    0.08
  -1  10   1    1.88    0.08
   0 -10  -1    1.89    0.08
   0  10   1    1.93    0.08
  -1 -10  -1    2.68    0.12
  -1 -10  -1    2.60    0.10
   1  10   1    2.48    0.09
  -2 -10  -1    4.61    0.15
  -2 -10  -1    4.67    0.14
  -2 -10  -1    4.73    0.18
   2  10   1    4.71    0.13
  -3 -10  -1    0.45    0.04
  -3 -10  -1    0.52    0.05
  -3 -10  -1    0.48    0.04
   3  10   1    0.43    0.03
  -4 -10  -1    4.15    0.16
  -4 -10  -1    4.19    0.13
  -4 -10  -1    4.29    0.16
  -5 -10  -1    4.80    0.15
  -5 -10  -1    5.07    0.19
  -5 -10  -1    4.90    0.18
  -6 -10  -1    2.95    0.10
  -6 -10  -1    2.94    0.13
  -6 -10  -1    3.25    0.13
   6  10   1    2.98    0.15
  -7 -10  -1    1.61    0.07
  -7 -10  -1    1.73    0.10
  -7 -10  -1    1.68    0.09
   7  10   1    1.74    0.11
  -8 -10  -1    5.15    0.20
  -8 -10  -1    5.34    0.18
   8  10   1    4.92    0.22
  -9 -10  -1    8.30    0.30
  -9 -10  -1    8.80    0.27
   9  10   1    8.05    0.32
 -10 -10  -1    0.56    0.05
  10  10   1    0.61    0.08
   0 -11  -1    1.36    0.07
   0  11   1    1.31    0.06
  -1 -11  -1    1.10    0.06
   1  11   1    1.06    0.05
  -2 -11  -1    1.68    0.08
  -2 -11  -1    1.83    0.10
   2  11   1    1.70    0.07
  -3 -11  -1    1.51    0.07
  -3 -11  -1    1.60    0.09
  -3 -11  -1    1.47    0.08
   3  11   1    1.51    0.06
  -4 -11  -1    2.06    0.11
  -4 -11  -1    2.04    0.08
  -5 -11  -1    1.97    0.08
  -5 -11  -1    2.15    0.11
  -5 -11  -1    2.20    0.11
  -6 -11  -1    1.46    0.07
  -6 -11  -1    1.44    0.09
  -6 -11  -1    1.35    0.09
  -7 -11  -1    3.08    0.11
  -7 -11  -1    2.90    0.14
  -7 -11  -1    3.37    0.14
   7  11   1    2.82    0.16
  -8 -11  -1    1.33    0.09
  -8 -11  -1    1.23    0.06
  -8 -11  -1    1.20    0.09
   8  11   1    1.13    0.10
  -9 -11  -1    2.60    0.14
  -9 -11  -1    3.01    0.13
   9  11   1    2.82    0.16
 -10 -11  -1    0.87    0.08
 -10 -11  -1    0.94    0.07
  10  11   1    0.90    0.09
  -2 -12  -1    3.68    0.13
   2  12   1    3.49    0.11
  -3 -12  -1    1.77    0.11
  -3 -12  -1    1.81    0.09
   3  12   1    1.86    0.07
  -4 -12  -1    1.26    0.07
  -4 -12  -1    1.36    0.09
  -5 -12  -1    2.51    0.12
  -6 -12  -1    1.97    0.11
  -6 -12  -1    2.28    0.12
  -6 -12  -1    1.88    0.09
  -7 -12  -1    1.34    0.09
  -7 -12  -1    1.62    0.10
  -7 -12  -1    1.34    0.07
  -8 -12  -1    0.97    0.06
  -8 -12  -1    1.07    0.08
  -8 -12  -1    0.89    0.08
   8  12   1    0.99    0.09
   8  12  -2    0.73    0.08
  -8 -12   2    0.74    0.07
  -8 -12   2    0.80    0.08
  -8 -12   2    0.67    0.05
   7  12  -2    0.38    0.06
  -7 -12   2    0.35    0.05
  -7 -12   2    0.31    0.05
   6  12  -2    0.64    0.08
  -6 -12   2    0.63    0.07
  -6 -12   2    0.66    0.05
  -5 -12   2    2.13    0.11
  -5 -12   2    1.91    0.08
  -4 -12   2    1.58    0.07
  -4 -12   2    1.49    0.07
   3  12  -2    1.05    0.05
  -3 -12   2    1.07    0.06
   2  12  -2    0.59    0.04
  -2 -12   2    0.60    0.06
   9  11  -2    1.56    0.12
  -9 -11   2    1.65    0.09
   8  11  -2    1.95    0.13
  -8 -11   2    2.16    0.10
  -8 -11   2    1.98    0.08
   7  11  -2    0.96    0.09
  -7 -11   2    0.81    0.07
  -7 -11   2    0.80    0.05
  -7 -11   2    0.93    0.08
   6  11  -2    1.94    0.12
  -6 -11   2    1.98    0.08
  -6 -11   2    1.94    0.10
  -6 -11   2    2.03    0.11
   5  11  -2    3.30    0.16
  -5 -11   2    3.31    0.15
  -5 -11   2    3.46    0.12
  -4 -11   2    0.48    0.04
  -4 -11   2    0.60    0.06
   3  11  -2    1.58    0.06
  -3 -11   2    1.63    0.07
  -3 -11   2    1.59    0.07
   2  11  -2    2.98    0.10
  -2 -11   2    2.93    0.11
   1  11  -2    4.15    0.13
  -1 -11   2    4.32    0.14
   0  11  -2    0.48    0.04
   0 -11   2    0.47    0.04
  10  10  -2    0.28    0.06
 -10 -10   2    0.27    0.04
   9  10  -2    0.74    0.08
  -9 -10   2    0.79    0.06
   8  10  -2    6.62    0.27
  -8 -10   2    6.99    0.23
  -8 -10   2    6.88    0.19
   7  10  -2    1.92    0.12
  -7 -10   2    1.99    0.08
  -7 -10   2    2.03    0.10
   6  10  -2    4.45    0.19
  -6 -10   2    4.38    0.14
  -6 -10   2    4.68    0.17
   5  10  -2    6.50    0.25
  -5 -10   2    6.53    0.22
  -5 -10   2    6.26    0.18
  -5 -10   2    6.50    0.24
   4  10  -2    3.52    0.16
  -4 -10   2    3.48    0.12
  -4 -10   2    3.69    0.15
   3  10  -2    3.14    0.09
  -3 -10   2    3.02    0.11
  -3 -10   2    3.05    0.13
  -3 -10   2    3.13    0.10
   2  10  -2    3.49    0.11
  -2 -10   2    3.52    0.11
  -2 -10   2    3.43    0.11
   1  10  -2    0.48    0.04
  -1 -10   2    0.39    0.04
   0  10  -2    2.64    0.08
   0  10  -2    2.39    0.09
   0 -10   2    2.44    0.09
  -1  10  -2    2.96    0.10
   1 -10   2    3.14    0.10
  -2  10  -2    2.03    0.08
 -11  -9   2    1.41    0.07
  10   9  -2    1.73    0.12
 -10  -9   2    1.88    0.09
   9   9  -2    0.87    0.08
  -9  -9   2    1.01    0.06
   8   9  -2    1.59    0.11
  -8  -9   2    1.62    0.08
   7   9  -2    0.88    0.08
  -7  -9   2    0.88    0.04
  -7  -9   2    0.96    0.06
   6   9  -2    6.37    0.25
  -6  -9   2    6.55    0.21
  -6  -9   2    6.38    0.18
   5   9  -2    2.34    0.12
  -5  -9   2    2.24    0.08
  -5  -9   2    2.27    0.11
   4   9  -2    2.45    0.12
  -4  -9   2    2.40    0.14
  -4  -9   2    2.58    0.11
  -4  -9   2    2.57    0.09
  -4  -9   2    2.49    0.13
  -4  -9   2    2.44    0.11
   3   9  -2    7.47    0.19
   3   9  -2    7.09    0.27
  -3  -9   2    6.92    0.20
  -3  -9   2    7.32    0.20
  -3  -9   2    7.21    0.25
   2   9  -2    4.96    0.14
  -2  -9   2    4.84    0.15
  -2  -9   2    4.85    0.14
   1   9  -2    3.42    0.10
   1   9  -2    3.49    0.15
   1   9  -2    3.35    0.09
  -1  -9   2    3.36    0.11
   0   9  -2    3.76    0.12
   0   9  -2    3.98    0.17
   0   9  -2    3.95    0.10
   0  -9   2    3.74    0.12
  -1   9  -2    1.01    0.05
  -1   9  -2    1.01    0.05
  -1   9  -2    1.11    0.08
   1  -9   2    1.01    0.05
  -2   9  -2    1.77    0.08
  -2   9  -2    1.81    0.08
  -2   9  -2    2.03    0.12
   2  -9   2    1.93    0.06
  -3   9  -2    2.18    0.09
  -3   9  -2    2.34    0.14
  11   8  -2    1.69    0.12
  10   8  -2    2.96    0.16
 -10  -8   2    3.25    0.12
   9   8  -2    1.65    0.11
  -9  -8   2    1.59    0.08
   8   8  -2    3.98    0.18
  -8  -8   2    3.84    0.14
   7   8  -2    2.90    0.14
  -7  -8   2    2.93    0.11
   6   8  -2    4.64    0.19
  -6  -8   2    4.58    0.20
  -6  -8   2    4.51    0.13
  -6  -8   2    4.67    0.16
   5   8  -2    6.55    0.24
  -5  -8   2    6.46    0.27
  -5  -8   2    6.59    0.21
  -5  -8   2    6.56    0.18
   4   8  -2    3.54    0.15
  -4  -8   2    3.58    0.11
  -4  -8   2    3.30    0.13
  -4  -8   2    3.32    0.16
  -4  -8   2    3.53    0.18
   3   8  -2    9.41    0.33
   3   8  -2    9.69    0.24
   3   8  -2    9.44    0.33
  -3  -8   2    9.64    0.40
  -3  -8   2    9.72    0.25
  -3  -8   2    9.26    0.36
  -3  -8   2    9.77    0.31
  -3  -8   2    9.54    0.30
  -3  -8   2    9.35    0.25
   2   8  -2    5.39    0.20
   2   8  -2    5.51    0.15
   2   8  -2    5.36    0.20
  -2  -8   2    5.40    0.25
  -2  -8   2    5.39    0.15
  -2  -8   2    5.50    0.19
  -2  -8   2    5.40    0.15
   1   8  -2   12.11    0.31
   1   8  -2   12.56    0.41
   1   8  -2   12.37    0.27
  -1  -8   2   12.17    0.31
  -1  -8   2   11.74    0.49
  -1  -8   2   12.11    0.31
   0   8  -2    3.14    0.10
   0   8  -2    3.21    0.14
   0   8  -2    3.15    0.10
   0  -8   2    3.10    0.10
  -1   8  -2    3.63    0.16
  -1   8  -2    3.37    0.11
  -1   8  -2    3.51    0.11
   1  -8   2    3.30    0.10
  -2   8  -2    4.54    0.20
  -2   8  -2    4.64    0.14
  -2   8  -2    4.65    0.14
   2  -8   2    4.80    0.13
  -3   8  -2    1.54    0.11
  -3   8  -2    1.56    0.07
  -4   8  -2    0.48    0.07
  -4   8  -2    0.42    0.04
  11   7  -2    0.36    0.07
  10   7  -2    2.15    0.13
 -10  -7   2    2.25    0.09
   9   7  -2    2.22    0.13
  -9  -7   2    2.27    0.09
   8   7  -2    8.19    0.30
  -8  -7   2    8.19    0.25
   7   7  -2    0.91    0.07
  -7  -7   2    0.90    0.05
   6   7  -2    5.86    0.22
   6   7  -2    5.79    0.21
  -6  -7   2    5.79    0.18
  -6  -7   2    5.61    0.24
   5   7  -2    5.64    0.22
   5   7  -2    6.30    0.23
  -5  -7   2    6.10    0.16
  -5  -7   2    5.99    0.19
  -5  -7   2    6.22    0.25
   4   7  -2   10.96    0.36
   4   7  -2   10.04    0.36
  -4  -7   2   11.39    0.43
  -4  -7   2   10.67    0.40
  -4  -7   2   10.48    0.32
  -4  -7   2   10.96    0.28
   3   7  -2   14.90    0.49
   3   7  -2   15.71    0.37
   3   7  -2   15.34    0.49
  -3  -7   2   15.33    0.54
  -3  -7   2   15.28    0.38
  -3  -7   2   14.96    0.59
  -3  -7   2   14.57    0.44
   2   7  -2    6.32    0.23
   2   7  -2    6.83    0.15
   2   7  -2    7.06    0.17
   2   7  -2    6.68    0.24
  -2  -7   2    6.85    0.18
  -2  -7   2    6.68    0.26
  -2  -7   2    7.02    0.22
  -2  -7   2    6.78    0.18
  -2  -7   2    6.45    0.29
   1   7  -2   17.99    0.59
   1   7  -2   18.41    0.45
   1   7  -2   18.54    0.46
   1   7  -2   18.28    0.39
  -1  -7   2   17.71    0.45
  -1  -7   2   18.67    0.56
  -1  -7   2   19.28    0.71
  -1  -7   2   17.20    0.70
  -1  -7   2   18.19    0.46
   0   7  -2   21.31    0.54
   0   7  -2   21.04    0.70
   0   7  -2   22.25    0.53
   0  -7   2   21.19    0.83
   0  -7   2   22.95    0.83
   0  -7   2   20.88    0.53
  -1   7  -2    9.68    0.35
  -1   7  -2    9.90    0.26
  -1   7  -2   10.03    0.26
   1  -7   2    9.81    0.25
  -2   7  -2    5.22    0.15
  -2   7  -2    5.11    0.21
  -2   7  -2    5.05    0.15
  -2   7  -2    5.20    0.23
   2  -7   2    5.11    0.14
  -3   7  -2    3.87    0.12
  -3   7  -2    3.98    0.18
  -4   7  -2    2.32    0.08
  -4   7  -2    2.20    0.13
  -5   7  -2    1.18    0.10
  -5   7  -2    1.09    0.06
  11   6  -2    0.51    0.07
  10   6  -2    4.28    0.20
   9   6  -2    0.03    0.03
  -9  -6   2    0.00    0.01
   8   6  -2    5.86    0.23
  -8  -6   2    5.90    0.18
   7   6  -2    9.94    0.35
  -7  -6   2    9.87    0.38
  -7  -6   2   10.08    0.29
   6   6  -2   12.61    0.42
   6   6  -2   12.62    0.42
  -6  -6   2   12.16    0.46
  -6  -6   2   12.59    0.36
   5   6  -2   12.63    0.41
   5   6  -2   11.83    0.41
  -5  -6   2   12.24    0.36
  -5  -6   2   12.96    0.48
  -5  -6   2   12.46    0.45
  -5  -6   2   12.73    0.31
   4   6  -2    4.24    0.16
   4   6  -2    4.74    0.17
  -4  -6   2    4.42    0.12
  -4  -6   2    4.28    0.14
  -4  -6   2    4.47    0.21
  -4  -6   2    4.59    0.20
  -4  -6   2    4.48    0.19
   3   6  -2   14.14    0.33
   3   6  -2   13.57    0.44
   3   6  -2   13.67    0.45
  -3  -6   2   13.69    0.49
  -3  -6   2   13.99    0.53
  -3  -6   2   13.62    0.34
  -3  -6   2   13.39    0.40
  -3  -6   2   13.74    0.54
   2   6  -2    0.47    0.04
   2   6  -2    0.63    0.04
   2   6  -2    0.53    0.02
  -2  -6   2    0.54    0.04
  -2  -6   2    0.50    0.05
  -2  -6   2    0.35    0.04
  -2  -6   2    0.45    0.03
  -2  -6   2    0.45    0.03
  -2  -6   2    0.54    0.05
   1   6  -2   18.53    0.60
   1   6  -2   15.50    0.53
   1   6  -2   16.93    0.55
   1   6  -2   17.36    0.42
   1   6  -2   17.69    0.43
   1   6  -2   17.00    0.37
  -1  -6   2   17.64    0.52
  -1  -6   2   17.42    0.59
  -1  -6   2   17.51    0.42
  -1  -6   2   16.92    0.43
  -1  -6   2   15.94    0.66
  -1  -6   2   18.06    0.67
   0   6  -2    2.70    0.13
   0   6  -2    2.81    0.08
   0   6  -2    2.65    0.11
   0   6  -2    2.49    0.08
   0  -6   2    2.62    0.10
   0  -6   2    2.62    0.14
   0  -6   2    2.52    0.08
   0  -6   2    2.76    0.08
   0  -6   2    2.78    0.14
  -1   6  -2    1.62    0.06
  -1   6  -2    1.58    0.09
  -1   6  -2    1.62    0.06
  -1   6  -2    1.52    0.10
   1  -6   2    1.70    0.10
   1  -6   2    1.54    0.10
   1  -6   2    1.91    0.06
  -2   6  -2   18.68    0.65
  -2   6  -2   18.94    0.47
  -2   6  -2   18.26    0.62
  -2   6  -2   20.03    0.46
   2  -6   2   17.12    0.72
   2  -6   2   18.97    0.45
  -3   6  -2   13.84    0.36
  -3   6  -2   14.29    0.51
  -3   6  -2   14.19    0.48
  -4   6  -2    2.91    0.09
  -4   6  -2    2.85    0.15
  -5   6  -2    4.67    0.14
  -5   6  -2    4.50    0.21
  -6   6  -2    3.47    0.18
  -6   6  -2    3.31    0.11
  11   5  -2    4.40    0.21
  10   5  -2    3.96    0.19
   9   5  -2    0.02    0.03
   8   5  -2    7.50    0.28
  -8  -5   2    7.33    0.22
  -8  -5   2    7.33    0.29
   7   5  -2   38.83    1.16
  -7  -5   2   38.05    1.29
  -7  -5   2   36.48    1.04
   6   5  -2    7.62    0.26
  -6  -5   2    7.40    0.32
  -6  -5   2    7.45    0.29
  -6  -5   2    7.25    0.22
   5   5  -2   10.62    0.35
   5   5  -2   10.27    0.35
  -5  -5   2   10.73    0.40
  -5  -5   2   10.18    0.30
  -5  -5   2   10.06    0.38
  -5  -5   2   10.53    0.42
   4   5  -2   22.48    0.69
   4   5  -2   21.56    0.71
  -4  -5   2   23.14    0.77
  -4  -5   2   21.31    0.62
  -4  -5   2   22.67    0.83
  -4  -5   2   22.82    0.85
   3   5  -2   90.43    2.96
   3   5  -2   92.37    2.25
   3   5  -2   95.81    2.85
   3   5  -2   97.15    3.09
  -3  -5   2   97.04    3.17
  -3  -5   2   93.04    2.62
  -3  -5   2  100.45    3.46
  -3  -5   2   97.80    3.50
  -3  -5   2   96.84    2.30
   2   5  -2    1.26    0.06
   2   5  -2    1.32    0.04
   2   5  -2    1.35    0.07
   2   5  -2    1.59    0.07
  -2  -5   2    1.40    0.08
  -2  -5   2    1.23    0.08
  -2  -5   2    1.14    0.04
  -2  -5   2    1.22    0.07
   1   5  -2    9.59    0.21
   1   5  -2    9.22    0.31
   1   5  -2    9.55    0.32
   1   5  -2    9.92    0.24
   1   5  -2   10.14    0.35
  -1  -5   2    9.42    0.38
  -1  -5   2    9.53    0.24
  -1  -5   2    9.92    0.34
  -1  -5   2    9.76    0.25
  -1  -5   2   10.13    0.39
  -1  -5   2    9.90    0.30
   0   5  -2   36.68    0.87
   0   5  -2   35.26    1.14
   0   5  -2   37.47    1.21
   0   5  -2   35.78    0.89
   0  -5   2   36.47    1.34
   0  -5   2   35.44    0.87
   0  -5   2   36.93    1.22
   0  -5   2   37.75    1.35
   0  -5   2   36.59    1.08
   0  -5   2   36.11    0.88
  -1   5  -2   28.62    0.68
  -1   5  -2   28.46    0.95
  -1   5  -2   27.44    0.90
  -1   5  -2   27.69    0.69
   1  -5   2   30.04    1.06
   1  -5   2   27.60    0.68
   1  -5   2   27.94    1.05
  -2   5  -2    0.02    0.01
  -2   5  -2    0.00    0.01
  -2   5  -2    0.02    0.02
  -2   5  -2    0.12    0.03
   2  -5   2    0.01    0.02
   2  -5   2    0.07    0.01
  -3   5  -2    2.70    0.13
  -3   5  -2    2.66    0.08
  -3   5  -2    2.77    0.13
   3  -5   2    2.62    0.15
  -4   5  -2    6.93    0.28
  -4   5  -2    6.95    0.27
  -4   5  -2    7.01    0.19
  -5   5  -2    8.81    0.23
  -5   5  -2    8.92    0.33
  -6   5  -2    0.67    0.04
  -6   5  -2    0.82    0.08
  -7   5  -2    1.40    0.11
  -7   5  -2    1.34    0.06
  11   4  -2    3.75    0.19
  10   4  -2    2.13    0.13
   9   4  -2    1.03    0.08
   8   4  -2    8.36    0.30
  -8  -4   2    8.44    0.32
   7   4  -2   20.12    0.62
  -7  -4   2   18.76    0.68
  -7  -4   2   19.75    0.75
  -7  -4   2   18.80    0.54
   6   4  -2    0.60    0.06
  -6  -4   2    0.58    0.06
  -6  -4   2    0.60    0.04
  -6  -4   2    0.54    0.05
   5   4  -2   17.71    0.55
   5   4  -2   17.12    0.56
  -5  -4   2   17.90    0.65
  -5  -4   2   16.96    0.49
  -5  -4   2   17.28    0.61
  -5  -4   2   17.62    0.67
   4   4  -2   36.91    1.17
   4   4  -2   38.09    1.36
   4   4  -2   36.89    1.13
  -4  -4   2   38.48    1.36
  -4  -4   2   37.56    1.26
  -4  -4   2   37.13    1.35
  -4  -4   2   36.36    1.03
  -4  -4   2   37.44    1.39
   3   4  -2    3.71    0.16
   3   4  -2    3.68    0.13
  -3  -4   2    3.55    0.16
  -3  -4   2    3.80    0.15
  -3  -4   2    3.64    0.15
   2   4  -2   13.09    0.41
   2   4  -2   13.40    0.32
   2   4  -2   13.28    0.52
  -2  -4   2   12.91    0.33
  -2  -4   2   13.44    0.51
  -2  -4   2   13.06    0.50
  -2  -4   2   13.63    0.46
   1   4  -2   54.15    2.02
   1   4  -2   56.48    1.31
   1   4  -2   53.02    1.64
   1   4  -2   56.58    1.79
  -1  -4   2   55.77    2.02
  -1  -4   2   56.86    1.83
  -1  -4   2   52.73    1.33
  -1  -4   2   55.32    2.00
   0   4  -2   59.96    1.90
   0   4  -2   57.32    2.14
   0   4  -2   56.34    1.80
   0   4  -2   58.70    1.41
   0   4  -2   59.94    1.38
   0  -4   2   59.44    1.93
   0  -4   2   58.34    1.38
   0  -4   2   56.97    2.12
   0  -4   2   58.32    2.14
  -1   4  -2   41.96    1.39
  -1   4  -2   44.44    1.65
  -1   4  -2   44.46    1.06
  -1   4  -2   43.31    1.08
  -1   4  -2   44.50    1.47
   1  -4   2   43.99    1.06
   1  -4   2   45.45    1.48
   1  -4   2   43.70    1.64
   1  -4   2   49.27    1.48
   1  -4   2   46.58    1.65
  -2   4  -2    3.00    0.14
  -2   4  -2    3.05    0.09
  -2   4  -2    2.77    0.12
  -2   4  -2    3.04    0.13
   2  -4   2    2.89    0.14
   2  -4   2    3.02    0.08
   2  -4   2    3.10    0.13
  -3   4  -2   35.33    1.14
  -3   4  -2   36.53    1.19
  -3   4  -2   35.88    0.87
   3  -4   2   35.94    1.33
  -4   4  -2   10.76    0.38
  -4   4  -2   10.82    0.39
  -4   4  -2   10.93    0.27
   4  -4   2   10.46    0.44
  -5   4  -2    0.59    0.03
  -5   4  -2    0.85    0.08
  -6   4  -2    3.41    0.10
  -6   4  -2    3.58    0.17
  -7   4  -2    1.90    0.07
  -7   4  -2    2.10    0.13
  -8   4  -2    1.79    0.13
  10   3  -2    2.61    0.14
   9   3  -2    2.21    0.12
   8   3  -2    4.82    0.20
   7   3  -2    1.35    0.08
  -7  -3   2    1.35    0.08
   6   3  -2   23.57    0.72
  -6  -3   2   23.08    0.87
  -6  -3   2   22.79    0.80
   5   3  -2   11.24    0.36
  -5  -3   2   11.11    0.42
  -5  -3   2   11.07    0.43
  -5  -3   2   11.20    0.39
  -5  -3   2   10.52    0.31
   4   3  -2    2.89    0.11
   4   3  -2    2.81    0.11
   4   3  -2    3.01    0.12
   4   3  -2    3.12    0.14
  -4  -3   2    2.64    0.09
  -4  -3   2    2.96    0.12
  -4  -3   2    2.90    0.12
  -4  -3   2    2.96    0.14
  -4  -3   2    3.04    0.12
   3   3  -2    6.33    0.21
   3   3  -2    6.50    0.27
   3   3  -2    6.46    0.25
  -3  -3   2    6.39    0.26
  -3  -3   2    6.60    0.25
  -3  -3   2    6.65    0.24
   2   3  -2   54.78    2.03
   2   3  -2   53.13    2.01
   2   3  -2   54.78    1.65
  -2  -3   2   56.51    2.03
  -2  -3   2   54.70    2.00
  -2  -3   2   58.52    1.84
   1   3  -2   27.87    1.05
   1   3  -2   28.14    1.06
  -1  -3   2   29.68    0.96
  -1  -3   2   29.33    1.05
  -1  -3   2   28.57    1.06
   0   3  -2   14.53    0.57
   0   3  -2   15.79    0.51
   0  -3   2   15.01    0.57
   0  -3   2   15.49    0.51
   0  -3   2   14.69    0.56
  -1   3  -2   15.34    0.52
  -1   3  -2   14.47    0.49
  -1   3  -2   15.61    0.52
  -1   3  -2   15.15    0.38
  -1   3  -2   14.80    0.58
   1  -3   2   15.41    0.58
   1  -3   2   15.23    0.58
   1  -3   2   16.08    0.52
   1  -3   2   15.74    0.37
  -2   3  -2   24.60    0.80
  -2   3  -2   23.24    0.58
  -2   3  -2   22.97    0.76
  -2   3  -2   24.27    0.90
  -2   3  -2   24.28    0.80
   2  -3   2   24.51    0.80
   2  -3   2   24.09    0.57
   2  -3   2   24.75    0.89
   2  -3   2   23.80    0.90
  -3   3  -2   29.69    0.75
  -3   3  -2   32.18    1.15
  -3   3  -2   29.90    0.98
  -3   3  -2   30.02    1.02
   3  -3   2   31.20    1.15
   3  -3   2   32.89    1.14
  -4   3  -2   21.48    0.71
  -4   3  -2   20.18    0.51
  -4   3  -2   20.87    0.68
   4  -3   2   21.95    0.81
  -5   3  -2    0.61    0.03
  -5   3  -2    0.86    0.07
  -5   3  -2    0.65    0.06
   5  -3   2    0.78    0.07
  -6   3  -2   22.71    0.75
  -7   3  -2    3.41    0.17
  -8   3  -2    2.30    0.14
 -11  -2   2    0.31    0.06
   9   2  -2    3.40    0.16
   8   2  -2    8.36    0.30
   7   2  -2   15.22    0.50
   6   2  -2   12.82    0.42
  -6  -2   2   12.77    0.45
   5   2  -2   28.87    0.88
   5   2  -2   30.25    1.04
   5   2  -2   29.58    1.07
  -5  -2   2   28.48    1.06
  -5  -2   2   27.39    1.05
  -5  -2   2   28.45    0.97
  -5  -2   2   27.21    1.04
  -5  -2   2   29.05    1.06
   4   2  -2   66.62    2.35
   4   2  -2   65.11    1.91
   4   2  -2   66.95    2.31
  -4  -2   2   63.15    2.31
  -4  -2   2   64.71    2.34
  -4  -2   2   61.18    2.32
  -4  -2   2   60.48    2.34
  -4  -2   2   64.80    2.13
   3   2  -2   34.10    1.25
   3   2  -2   33.02    1.02
  -3  -2   2   33.08    1.23
  -3  -2   2   34.88    1.14
  -3  -2   2   34.27    1.22
  -3  -2   2   34.80    1.25
   2   2  -2   50.27    1.90
   2   2  -2   53.81    1.88
  -2  -2   2   52.07    1.73
  -2  -2   2   52.84    1.91
  -2  -2   2   51.40    1.88
   1   2  -2    3.08    0.13
   1   2  -2    3.02    0.14
  -1  -2   2    2.64    0.12
  -1  -2   2    3.50    0.14
  -1  -2   2    3.51    0.13
   0   2  -2   34.63    1.32
   0   2  -2   35.14    1.19
   0   2  -2   37.66    1.31
   0  -2   2   36.26    1.30
  -1   2  -2   11.53    0.38
  -1   2  -2   11.11    0.37
  -1   2  -2   10.92    0.42
   1  -2   2   11.20    0.42
   1  -2   2   10.96    0.37
   1  -2   2   10.56    0.42
  -2   2  -2    3.82    0.16
  -2   2  -2    4.09    0.15
  -2   2  -2    3.74    0.14
  -2   2  -2    3.94    0.14
   2  -2   2    3.97    0.16
   2  -2   2    3.95    0.17
  -3   2  -2   32.17    1.07
  -3   2  -2   32.02    1.06
  -3   2  -2   31.06    1.19
  -3   2  -2   30.22    1.01
   3  -2   2   33.29    1.07
   3  -2   2   33.35    1.19
   3  -2   2   34.13    1.19
  -4   2  -2   31.12    1.15
  -4   2  -2   30.44    0.99
  -4   2  -2   30.98    1.03
   4  -2   2   31.98    1.15
   4  -2   2   31.54    1.16
  -5   2  -2    2.84    0.13
  -5   2  -2    2.65    0.12
   5  -2   2    2.85    0.15
  -6   2  -2   25.62    0.82
  -6   2  -2   24.76    0.84
   6  -2   2   25.45    0.97
  -7   2  -2    2.33    0.13
  -8   2  -2    1.40    0.10
  -9   2  -2    3.01    0.16
 -10  -1   2    3.58    0.18
   8   1  -2    4.70    0.19
   7   1  -2    4.20    0.17
   6   1  -2    7.34    0.26
  -6  -1   2    7.19    0.27
   5   1  -2   22.12    0.79
   5   1  -2   21.76    0.67
   5   1  -2   21.34    0.80
  -5  -1   2   21.79    0.80
  -5  -1   2   20.68    0.80
  -5  -1   2   21.38    0.73
  -5  -1   2   21.30    0.80
   4   1  -2   17.68    0.63
   4   1  -2   17.86    0.65
   4   1  -2   17.75    0.54
  -4  -1   2   16.67    0.64
  -4  -1   2   16.54    0.64
  -4  -1   2   17.54    0.64
  -4  -1   2   17.34    0.59
  -4  -1   2   16.94    0.63
   3   1  -2   21.06    0.77
   3   1  -2   21.38    0.75
   3   1  -2   20.42    0.63
  -3  -1   2   20.51    0.76
  -3  -1   2   20.64    0.77
  -3  -1   2   21.14    0.70
  -3  -1   2   20.03    0.75
   2   1  -2   73.34    2.72
  -2  -1   2   75.68    2.46
  -2  -1   2   73.57    2.72
   1   1  -2  220.48    8.48
   1   1  -2  224.06    7.69
  -1  -1   2  231.39    8.08
  -1  -1   2  214.00    8.43
   0   1  -2    9.81    0.37
   0   1  -2    9.33    0.33
   0   1  -2    9.82    0.36
   0  -1   2    9.83    0.36
  -1   1  -2   19.07    0.67
  -1   1  -2   21.64    0.74
  -1   1  -2   19.86    0.75
   1  -1   2   20.24    0.74
  -2   1  -2   14.78    0.55
  -2   1  -2   14.69    0.49
  -2   1  -2   13.98    0.49
   2  -1   2   14.99    0.55
   2  -1   2   14.98    0.49
   2  -1   2   14.83    0.55
  -3   1  -2   48.86    1.67
  -3   1  -2   52.07    1.85
  -3   1  -2   49.25    1.64
  -3   1  -2   48.31    1.57
   3  -1   2   51.55    1.67
   3  -1   2   50.39    1.85
   3  -1   2   54.26    1.85
  -4   1  -2   13.76    0.46
  -4   1  -2   14.03    0.47
  -4   1  -2   13.58    0.47
  -4   1  -2   13.71    0.48
  -4   1  -2   13.78    0.53
   4  -1   2   14.51    0.54
   4  -1   2   14.47    0.53
   4  -1   2   14.86    0.48
  -5   1  -2    1.79    0.09
  -5   1  -2    1.67    0.08
  -5   1  -2    1.71    0.09
   5  -1   2    1.84    0.10
  -6   1  -2    9.79    0.35
  -6   1  -2   10.61    0.36
   6  -1   2   10.68    0.43
  -7   1  -2   13.25    0.46
  -8   1  -2    4.33    0.19
  -9   1  -2    1.24    0.10
 -10   1  -2    0.48    0.07
 -10   0   2    2.13    0.13
  -9   0   2    1.94    0.12
   8   0  -2    4.47    0.19
   7   0  -2    7.27    0.26
   6   0  -2    6.39    0.23
   5   0  -2    0.21    0.03
   5   0  -2    0.18    0.03
   4   0  -2   20.49    0.78
   4   0  -2   21.74    0.65
   4   0  -2   20.94    0.78
  -4   0   2   21.75    0.78
  -4   0   2   20.86    0.78
  -4   0   2   21.31    0.71
   3   0  -2   57.70    2.02
   3   0  -2   53.75    1.66
   3   0  -2   57.15    2.04
  -3   0   2   55.94    1.85
  -3   0   2   55.96    2.03
  -3   0   2   54.42    2.01
  -3   0   2   55.66    2.03
   2   0  -2   11.49    0.42
   2   0  -2   10.83    0.39
   2   0  -2   11.42    0.42
  -2   0   2   11.83    0.39
  -2   0   2   11.89    0.42
  -2   0   2   11.22    0.42
   1   0  -2    7.10    0.27
   1   0  -2    6.86    0.25
  -1   0   2    7.48    0.26
  -1   0   2    6.81    0.25
  -1   0   2    7.39    0.27
   0   0  -2  104.31    3.74
   0   0   2   90.13    3.67
  -1   0  -2  130.94    5.12
  -1   0  -2  135.31    5.04
  -1   0  -2  133.10    4.56
  -2   0  -2   15.23    0.50
  -2   0  -2   14.44    0.55
  -2   0  -2   16.31    0.55
   2   0   2   12.15    0.55
   2   0   2   16.22    0.55
  -3   0  -2   22.25    0.73
  -3   0  -2   22.39    0.81
  -3   0  -2   21.07    0.72
   3   0   2   21.62    0.74
   3   0   2   22.74    0.82
   3   0   2   22.19    0.82
  -4   0  -2   83.38    2.93
  -4   0  -2   78.70    2.60
  -4   0  -2   76.30    2.95
  -4   0  -2   81.20    2.67
  -4   0  -2   76.84    2.48
   4   0   2   83.17    2.76
   4   0   2   83.66    2.93
   4   0   2   81.48    2.94
  -5   0  -2    2.51    0.11
  -5   0  -2    2.34    0.10
  -5   0  -2    2.51    0.10
  -5   0  -2    2.44    0.13
  -5   0  -2    2.34    0.12
  -5   0  -2    2.38    0.09
   5   0   2    2.61    0.13
   5   0   2    2.69    0.12
   5   0   2    2.57    0.10
  -6   0  -2    6.79    0.31
  -6   0  -2    6.78    0.25
   6   0   2    7.21    0.30
  -7   0  -2    3.29    0.14
  -7   0  -2    2.97    0.17
   7   0   2    3.11    0.17
  -8   0  -2    4.97    0.21
  -9   0  -2    4.20    0.19
 -10   0  -2    2.05    0.13
  -9   1   2    2.79    0.15
  -8   1   2    0.96    0.09
   7  -1  -2    8.28    0.30
  -7   1   2    8.22    0.31
   6  -1  -2    9.68    0.33
   5  -1  -2   13.02    0.42
   5  -1  -2   12.48    0.49
   4  -1  -2   31.82    0.99
   4  -1  -2   33.59    1.20
  -4   1   2   32.91    1.09
   3  -1  -2   22.45    0.86
   3  -1  -2   23.22    0.78
   3  -1  -2   23.83    0.71
  -3   1   2   23.89    0.78
   2  -1  -2   16.39    0.57
   2  -1  -2   14.38    0.52
   2  -1  -2   15.77    0.47
  -2   1   2   15.77    0.52
  -2   1   2   14.79    0.57
   1  -1  -2   65.54    2.26
   1  -1  -2   71.56    2.53
  -1   1   2   68.76    2.26
  -1   1   2   66.24    2.48
  -1   1   2   69.72    2.49
   0  -1  -2    0.05    0.01
   0   1   2    0.06    0.01
   0   1   2    0.06    0.01
   0   1   2    0.07    0.01
  -1  -1  -2    7.87    0.29
  -1  -1  -2    7.94    0.26
  -1  -1  -2    7.98    0.29
   1   1   2    7.75    0.29
   1   1   2    6.64    0.28
  -2  -1  -2   10.60    0.39
  -2  -1  -2   10.20    0.39
  -2  -1  -2   10.87    0.35
  -2  -1  -2   10.59    0.38
   2   1   2   10.20    0.38
   2   1   2    8.48    0.38
   2   1   2   10.36    0.39
  -3  -1  -2    0.02    0.01
  -3  -1  -2    0.03    0.02
   3   1   2    0.05    0.01
   3   1   2    0.02    0.01
  -4  -1  -2   14.03    0.48
  -4  -1  -2   13.74    0.53
  -4  -1  -2   13.68    0.54
  -4  -1  -2   14.09    0.54
   4   1   2   14.29    0.48
   4   1   2   14.61    0.53
   4   1   2   13.71    0.53
  -5  -1  -2    7.57    0.32
  -5  -1  -2    7.36    0.31
  -5  -1  -2    7.59    0.30
  -5  -1  -2    7.18    0.26
  -5  -1  -2    7.72    0.28
   5   1   2    7.79    0.24
   5   1   2    7.81    0.31
   5   1   2    7.64    0.30
   5   1   2    7.73    0.27
  -6  -1  -2   10.11    0.36
  -6  -1  -2    9.89    0.34
  -6  -1  -2    9.43    0.41
  -6  -1  -2    9.88    0.40
   6   1   2   10.34    0.36
   6   1   2   10.25    0.40
   6   1   2   10.51    0.41
  -7  -1  -2    3.88    0.20
  -7  -1  -2    4.02    0.16
   7   1   2    4.09    0.19
  -8  -1  -2    6.13    0.30
  -8  -1  -2    6.56    0.24
   8   1   2    6.47    0.29
  -9  -1  -2    4.12    0.18
 -10  -1  -2    2.25    0.13
  -9   2   2    1.78    0.12
  -8   2   2    0.11    0.04
  -7   2   2    6.81    0.27
   6  -2  -2   18.64    0.62
  -6   2   2   20.06    0.64
   5  -2  -2   18.83    0.70
   5  -2  -2   17.09    0.58
  -5   2   2   18.68    0.45
   4  -2  -2    1.34    0.08
   4  -2  -2    1.23    0.07
  -4   2   2    1.35    0.04
   3  -2  -2   55.02    2.00
   3  -2  -2   54.78    1.81
   3  -2  -2   52.64    1.64
  -3   2   2   54.98    1.32
  -3   2   2   57.38    1.81
   2  -2  -2   57.07    2.03
   2  -2  -2   53.17    1.32
   2  -2  -2   59.90    1.67
   2  -2  -2   49.26    1.84
  -2   2   2   60.32    1.84
   1  -2  -2  108.26    3.72
   1  -2  -2  103.38    3.72
   1  -2  -2  101.08    3.04
   1  -2  -2  102.30    3.38
  -1   2   2   93.52    3.70
  -1   2   2  105.05    3.40
  -1   2   2  103.39    3.77
   0  -2  -2  197.18    7.62
   0  -2  -2  209.40    6.53
   0  -2  -2  204.77    6.91
   0   2   2  199.28    7.54
   0   2   2  209.61    6.53
   0   2   2  205.68    6.95
   0   2   2  191.06    7.32
  -1  -2  -2  165.33    6.32
  -1  -2  -2  175.40    5.34
   1   2   2  163.80    5.72
   1   2   2  165.68    5.99
   1   2   2  167.41    6.03
   1   2   2  155.26    6.19
  -2  -2  -2   53.11    1.96
  -2  -2  -2   55.25    2.01
  -2  -2  -2   53.74    1.95
  -2  -2  -2   53.36    1.85
  -2  -2  -2   52.40    1.94
   2   2   2   53.24    1.94
   2   2   2   53.17    1.82
   2   2   2   53.21    1.95
   2   2   2   51.88    2.01
  -3  -2  -2   12.07    0.45
  -3  -2  -2   11.76    0.45
  -3  -2  -2   11.65    0.39
  -3  -2  -2   11.88    0.45
   3   2   2   11.68    0.41
   3   2   2   11.28    0.45
   3   2   2   12.26    0.44
  -4  -2  -2   11.52    0.40
  -4  -2  -2   11.36    0.45
  -4  -2  -2   11.45    0.44
  -4  -2  -2   11.50    0.45
   4   2   2   11.57    0.44
   4   2   2   10.94    0.35
   4   2   2   11.50    0.40
   4   2   2   11.63    0.44
  -5  -2  -2   21.34    0.69
  -5  -2  -2   21.72    0.82
  -5  -2  -2   22.02    0.75
  -5  -2  -2   21.48    0.83
   5   2   2   21.61    0.74
   5   2   2   21.91    0.82
   5   2   2   21.74    0.66
   5   2   2   22.41    0.81
  -6  -2  -2   30.20    1.15
  -6  -2  -2   30.64    1.16
  -6  -2  -2   30.43    1.04
  -6  -2  -2   30.28    0.97
   6   2   2   30.52    1.04
   6   2   2   30.78    1.15
   6   2   2   30.47    0.93
   6   2   2   32.62    1.14
  -7  -2  -2   16.77    0.65
  -7  -2  -2   15.26    0.65
  -7  -2  -2   16.50    0.58
  -7  -2  -2   15.92    0.54
   7   2   2   16.53    0.64
   7   2   2   17.48    0.64
   7   2   2   16.84    0.58
  -8  -2  -2    0.83    0.08
  -8  -2  -2    0.82    0.07
   8   2   2    0.94    0.08
  -9  -2  -2    2.63    0.13
 -10  -2  -2    3.15    0.16
 -11  -2  -2    1.36    0.11
  -8   3   2    2.15    0.13
  -7   3   2    1.04    0.05
  -7   3   2    1.38    0.09
  -6   3   2    1.60    0.10
  -6   3   2    1.48    0.05
   5  -3  -2    3.72    0.16
   5  -3  -2    4.15    0.20
  -5   3   2    4.19    0.11
  -5   3   2    4.57    0.18
   4  -3  -2    1.57    0.10
   4  -3  -2    1.32    0.08
  -4   3   2    1.58    0.09
  -4   3   2    1.57    0.05
   3  -3  -2   51.03    1.60
   3  -3  -2   55.85    1.95
  -3   3   2   52.97    1.66
   2  -3  -2   10.04    0.25
   2  -3  -2   10.44    0.33
   2  -3  -2   11.36    0.41
   2  -3  -2    8.73    0.35
  -2   3   2   11.14    0.35
  -2   3   2   10.31    0.36
  -2   3   2   10.13    0.26
  -2   3   2    9.91    0.34
   1  -3  -2   33.20    1.25
   1  -3  -2   35.56    1.13
   1  -3  -2   33.20    0.82
   1  -3  -2   34.00    1.02
   1  -3  -2   37.34    1.25
   1  -3  -2   34.35    1.26
  -1   3   2   36.30    1.14
  -1   3   2   33.99    1.12
  -1   3   2   32.02    0.83
  -1   3   2   32.37    1.25
   0  -3  -2   36.85    1.41
   0  -3  -2   35.53    1.14
   0  -3  -2   38.08    1.41
   0  -3  -2   38.81    1.26
   0  -3  -2   41.08    1.41
   0   3   2   40.58    1.41
   0   3   2   40.23    1.28
   0   3   2   36.33    1.41
   0   3   2   38.96    1.26
  -1  -3  -2  178.41    5.55
  -1  -3  -2  168.54    6.26
  -1  -3  -2  175.43    6.25
  -1  -3  -2  165.76    5.06
  -1  -3  -2  171.43    6.24
   1   3   2  181.17    5.55
   1   3   2  165.46    5.99
   1   3   2  166.69    6.26
   1   3   2  171.13    6.25
  -2  -3  -2   29.55    1.05
  -2  -3  -2   29.12    1.06
  -2  -3  -2   29.44    0.93
  -2  -3  -2   27.66    0.85
  -2  -3  -2   29.58    1.06
   2   3   2   24.34    0.93
   2   3   2   28.37    0.86
   2   3   2   28.60    1.05
   2   3   2   29.45    0.96
   2   3   2   29.33    1.06
  -3  -3  -2   28.63    0.94
  -3  -3  -2   29.87    0.98
  -3  -3  -2   29.39    1.08
  -3  -3  -2   28.92    1.07
  -3  -3  -2   28.63    1.07
   3   3   2   27.87    0.87
   3   3   2   28.75    0.94
   3   3   2   29.21    0.97
   3   3   2   29.66    1.08
   3   3   2   28.38    1.07
  -4  -3  -2  112.30    3.63
  -4  -3  -2  113.31    4.00
  -4  -3  -2  108.66    4.34
  -4  -3  -2  106.36    4.02
   4   3   2  107.59    3.26
   4   3   2  111.73    4.02
   4   3   2  112.13    3.96
   4   3   2  104.09    4.04
   4   3   2  110.26    3.65
  -5  -3  -2   23.26    0.78
  -5  -3  -2   22.20    0.86
  -5  -3  -2   22.85    0.87
   5   3   2   22.93    0.86
   5   3   2   23.18    0.85
   5   3   2   22.69    0.70
   5   3   2   22.55    0.78
  -6  -3  -2   11.12    0.44
  -6  -3  -2   10.18    0.44
  -6  -3  -2   11.02    0.40
   6   3   2   10.92    0.35
   6   3   2   11.15    0.43
   6   3   2   10.66    0.39
   6   3   2   10.74    0.42
  -7  -3  -2    7.86    0.36
  -7  -3  -2    8.53    0.29
  -7  -3  -2    8.66    0.36
  -7  -3  -2    8.69    0.33
   7   3   2    8.72    0.29
   7   3   2    9.12    0.36
   7   3   2    8.60    0.32
   7   3   2    8.43    0.35
  -8  -3  -2    7.41    0.26
  -8  -3  -2    6.56    0.32
   8   3   2    7.15    0.30
  -9  -3  -2   11.61    0.40
 -10  -3  -2    3.08    0.15
 -11  -3  -2    0.23    0.05
  -8   4   2    1.49    0.12
  -8   4   2    1.43    0.06
  -7   4   2    1.23    0.10
  -7   4   2    1.18    0.05
  -6   4   2    6.65    0.19
  -6   4   2    7.15    0.27
   5  -4  -2    3.74    0.20
  -5   4   2    4.31    0.18
  -5   4   2    3.78    0.11
   4  -4  -2    0.50    0.05
   4  -4  -2    0.68    0.06
  -4   4   2    0.71    0.03
   3  -4  -2   15.91    0.62
   3  -4  -2   15.65    0.51
  -3   4   2   16.23    0.55
  -3   4   2   16.06    0.52
   2  -4  -2    9.88    0.39
   2  -4  -2    9.52    0.31
   2  -4  -2    9.53    0.24
  -2   4   2    9.91    0.24
  -2   4   2    9.21    0.32
  -2   4   2    9.60    0.35
  -2   4   2    9.74    0.24
   1  -4  -2    1.48    0.07
   1  -4  -2    1.49    0.07
   1  -4  -2    1.54    0.05
   1  -4  -2    1.40    0.07
   1  -4  -2    1.26    0.08
  -1   4   2    1.36    0.08
  -1   4   2    1.45    0.05
  -1   4   2    1.51    0.06
  -1   4   2    1.27    0.07
  -1   4   2    1.21    0.04
  -1   4   2    1.20    0.06
   0  -4  -2   83.42    2.45
   0  -4  -2   80.25    2.00
   0  -4  -2   85.20    3.01
   0  -4  -2   81.42    3.03
   0  -4  -2   86.41    3.02
   0  -4  -2   82.78    1.96
   0   4   2   80.57    1.96
   0   4   2   79.87    2.00
   0   4   2   83.86    2.68
   0   4   2   89.26    2.74
   0   4   2   78.53    3.03
  -1  -4  -2   12.49    0.48
  -1  -4  -2   12.54    0.48
  -1  -4  -2   13.23    0.43
  -1  -4  -2   12.32    0.39
  -1  -4  -2   13.05    0.49
  -1  -4  -2   12.56    0.32
   1   4   2   11.93    0.31
   1   4   2   12.88    0.43
   1   4   2   13.23    0.44
   1   4   2   12.09    0.48
  -2  -4  -2   35.05    1.31
  -2  -4  -2   36.96    1.19
  -2  -4  -2   34.34    1.06
  -2  -4  -2   35.10    1.16
  -2  -4  -2   35.46    1.31
  -2  -4  -2   36.98    1.31
   2   4   2   35.18    0.84
   2   4   2   35.30    1.19
   2   4   2   35.87    1.31
   2   4   2   34.53    1.16
   2   4   2   35.56    1.31
  -3  -4  -2   12.44    0.47
  -3  -4  -2   11.53    0.37
  -3  -4  -2   12.74    0.47
  -3  -4  -2   11.89    0.40
  -3  -4  -2   12.35    0.43
  -3  -4  -2   11.84    0.47
   3   4   2   11.23    0.46
   3   4   2   11.98    0.42
   3   4   2   12.30    0.47
   3   4   2   11.92    0.38
  -4  -4  -2   86.08    2.79
  -4  -4  -2   86.32    3.08
  -4  -4  -2   83.66    2.71
  -4  -4  -2   79.26    2.30
  -4  -4  -2   82.85    3.05
   4   4   2   87.99    2.71
   4   4   2   85.99    2.79
   4   4   2   79.01    3.07
   4   4   2   85.07    2.50
  -5  -4  -2    1.00    0.06
  -5  -4  -2    0.97    0.07
  -5  -4  -2    1.00    0.07
  -5  -4  -2    0.86    0.04
   5   4   2    0.93    0.07
   5   4   2    0.89    0.06
   5   4   2    0.92    0.05
  -6  -4  -2    0.06    0.02
  -6  -4  -2    0.04    0.02
  -6  -4  -2    0.05    0.02
   6   4   2    0.09    0.02
   6   4   2    0.06    0.02
   6   4   2    0.02    0.02
   6   4   2    0.05    0.02
  -7  -4  -2    4.92    0.25
  -7  -4  -2    5.31    0.22
   7   4   2    5.30    0.23
   7   4   2    5.23    0.21
   7   4   2    5.46    0.19
  -8  -4  -2    9.27    0.35
  -8  -4  -2    8.73    0.40
   8   4   2    9.25    0.38
   8   4   2    8.92    0.35
   8   4   2    9.39    0.31
  -7   5   2    1.14    0.10
  -7   5   2    0.94    0.05
  -6   5   2    2.19    0.08
  -6   5   2    2.08    0.13
  -5   5   2    4.37    0.13
  -5   5   2    4.69    0.20
  -4   5   2    8.46    0.23
  -4   5   2    8.81    0.31
   3  -5  -2   18.62    0.43
   3  -5  -2   17.53    0.57
   3  -5  -2   17.53    0.70
  -3   5   2   18.39    0.45
  -3   5   2   18.16    0.59
  -3   5   2   17.92    0.63
   2  -5  -2   10.16    0.41
   2  -5  -2   10.04    0.33
   2  -5  -2   10.34    0.25
  -2   5   2    9.87    0.37
  -2   5   2   10.55    0.26
  -2   5   2    9.66    0.34
  -2   5   2   10.34    0.26
   1  -5  -2   14.59    0.58
   1  -5  -2   14.94    0.36
   1  -5  -2   14.67    0.46
  -1   5   2   14.69    0.37
  -1   5   2   14.45    0.51
  -1   5   2   13.69    0.47
  -1   5   2   15.44    0.36
   0  -5  -2   33.39    1.11
   0  -5  -2   33.92    1.23
   0  -5  -2   34.04    1.24
   0  -5  -2   32.50    1.22
   0  -5  -2   33.05    1.00
   0  -5  -2   33.26    0.81
   0  -5  -2   33.38    0.80
   0   5   2   33.12    1.10
   0   5   2   32.86    0.79
   0   5   2   35.24    1.11
   0   5   2   32.85    0.81
   0   5   2   30.83    1.22
  -1  -5  -2   13.92    0.49
  -1  -5  -2   14.13    0.53
  -1  -5  -2   14.42    0.35
  -1  -5  -2   13.69    0.55
  -1  -5  -2   14.12    0.43
  -1  -5  -2   13.60    0.54
  -1  -5  -2   13.86    0.35
   1   5   2   14.55    0.48
   1   5   2   13.78    0.34
   1   5   2   13.45    0.53
   1   5   2   13.85    0.48
  -2  -5  -2   14.80    0.57
  -2  -5  -2   14.97    0.51
  -2  -5  -2   14.91    0.57
  -2  -5  -2   14.78    0.58
  -2  -5  -2   14.23    0.45
  -2  -5  -2   15.18    0.37
  -2  -5  -2   15.05    0.52
   2   5   2   14.45    0.36
   2   5   2   14.58    0.57
   2   5   2   15.26    0.51
   2   5   2   14.70    0.51
  -3  -5  -2    4.58    0.21
  -3  -5  -2    4.57    0.12
  -3  -5  -2    4.25    0.15
  -3  -5  -2    4.59    0.18
  -3  -5  -2    4.28    0.17
  -3  -5  -2    4.51    0.20
  -3  -5  -2    4.28    0.14
   3   5   2    4.40    0.19
   3   5   2    4.38    0.17
   3   5   2    4.51    0.16
   3   5   2    4.46    0.18
  -4  -5  -2   25.63    0.86
  -4  -5  -2   25.07    0.79
  -4  -5  -2   27.13    0.99
  -4  -5  -2   26.63    0.90
  -4  -5  -2   26.82    0.99
  -4  -5  -2   25.71    0.73
   4   5   2   25.65    0.98
   4   5   2   26.58    0.80
   4   5   2   26.26    0.89
  -5  -5  -2   25.72    0.97
  -5  -5  -2   24.60    0.71
  -5  -5  -2   25.73    0.98
  -5  -5  -2   26.17    0.89
   5   5   2   25.50    0.97
   5   5   2   25.24    0.88
   5   5   2   26.44    0.79
  -6  -5  -2    6.67    0.30
  -6  -5  -2    6.80    0.27
  -6  -5  -2    6.54    0.20
   6   5   2    6.67    0.26
   6   5   2    6.94    0.24
  -7  -5  -2    1.27    0.05
  -7  -5  -2    1.23    0.08
  -7  -5  -2    1.20    0.09
   7   5   2    1.28    0.07
   7   5   2    1.13    0.08
  -8  -5  -2   21.33    0.86
  -8  -5  -2   21.90    0.78
   8   5   2   22.79    0.70
   8   5   2   22.48    0.78
   9   5   2    1.36    0.09
  -6   6   2    1.73    0.07
  -6   6   2    1.59    0.12
  -5   6   2    2.19    0.08
  -5   6   2    2.40    0.13
  -4   6   2    1.63    0.06
  -4   6   2    1.66    0.11
   3  -6  -2    7.06    0.26
  -3   6   2    7.29    0.30
  -3   6   2    7.69    0.20
  -3   6   2    7.49    0.28
   2  -6  -2    7.67    0.33
   2  -6  -2    7.42    0.19
   2  -6  -2    7.66    0.26
  -2   6   2    7.09    0.29
  -2   6   2    7.41    0.20
  -2   6   2    7.37    0.27
  -2   6   2    7.77    0.20
   1  -6  -2    4.52    0.13
   1  -6  -2    4.20    0.21
   1  -6  -2    4.63    0.16
  -1   6   2    4.41    0.17
  -1   6   2    4.41    0.13
  -1   6   2    4.59    0.13
  -1   6   2    4.46    0.19
   0  -6  -2   11.94    0.30
   0  -6  -2   11.95    0.30
   0  -6  -2   11.59    0.37
   0  -6  -2   11.72    0.48
   0   6   2   11.50    0.42
   0   6   2   12.18    0.30
   0   6   2   11.44    0.29
  -1  -6  -2   26.00    0.78
  -1  -6  -2   25.31    0.63
  -1  -6  -2   25.62    0.88
  -1  -6  -2   25.33    0.97
  -1  -6  -2   25.04    0.98
  -1  -6  -2   25.84    0.64
   1   6   2   27.21    0.87
   1   6   2   26.20    0.63
   1   6   2   25.27    0.62
  -2  -6  -2   13.93    0.34
  -2  -6  -2   13.45    0.48
  -2  -6  -2   13.90    0.34
  -2  -6  -2   13.06    0.39
  -2  -6  -2   13.52    0.53
  -2  -6  -2   13.27    0.54
  -2  -6  -2   13.39    0.42
   2   6   2   13.32    0.47
   2   6   2   13.01    0.33
  -3  -6  -2    4.17    0.14
  -3  -6  -2    4.46    0.18
  -3  -6  -2    4.15    0.15
  -3  -6  -2    4.43    0.12
  -3  -6  -2    4.33    0.20
  -3  -6  -2    4.28    0.21
   3   6   2    4.13    0.17
  -4  -6  -2   33.85    0.96
  -4  -6  -2   34.77    1.18
  -4  -6  -2   33.80    1.04
  -4  -6  -2   33.88    1.29
  -4  -6  -2   35.61    0.84
  -4  -6  -2   34.83    1.30
   4   6   2   33.48    1.17
   4   6   2   35.38    1.05
  -5  -6  -2   31.48    1.09
  -5  -6  -2   31.44    1.19
  -5  -6  -2   32.28    0.96
  -5  -6  -2   30.90    0.88
   5   6   2   31.14    1.08
   5   6   2   32.51    0.97
  -6  -6  -2    7.85    0.24
  -6  -6  -2    8.02    0.35
  -6  -6  -2    8.46    0.32
   6   6   2    7.90    0.31
   6   6   2    8.36    0.28
  -7  -6  -2    6.37    0.29
  -7  -6  -2    6.12    0.19
  -7  -6  -2    6.27    0.26
   7   6   2    6.18    0.23
   7   6   2    6.17    0.25
  -8  -6  -2   15.21    0.43
  -8  -6  -2   15.29    0.56
  -8  -6  -2   15.12    0.62
   8   6   2   14.64    0.55
   8   6   2   15.65    0.50
   9   6   2    5.23    0.21
  10   6   2    0.81    0.07
  -5   7   2    0.17    0.05
  -5   7   2    0.13    0.03
  -4   7   2    0.86    0.08
  -4   7   2    0.94    0.05
  -3   7   2    3.74    0.17
  -3   7   2    4.08    0.12
   2  -7  -2    5.82    0.16
   2  -7  -2    5.69    0.22
  -2   7   2    5.66    0.22
  -2   7   2    5.96    0.16
  -2   7   2    5.73    0.16
   1  -7  -2    7.62    0.20
   1  -7  -2    7.42    0.26
  -1   7   2    7.45    0.20
  -1   7   2    7.93    0.21
   0  -7  -2   10.00    0.32
   0  -7  -2    9.74    0.25
   0  -7  -2    9.80    0.25
   0  -7  -2    9.47    0.41
   0   7   2    9.18    0.25
   0   7   2    9.93    0.25
  -1  -7  -2    6.82    0.18
  -1  -7  -2    6.48    0.22
  -1  -7  -2    6.52    0.30
  -1  -7  -2    6.79    0.18
   1   7   2    6.38    0.17
  -2  -7  -2   20.71    0.50
  -2  -7  -2   19.96    0.71
  -2  -7  -2   21.35    0.51
  -2  -7  -2   19.59    0.59
  -2  -7  -2   20.12    0.80
  -2  -7  -2   20.39    0.63
  -2  -7  -2   20.45    0.79
   2   7   2   20.56    0.49
   2   7   2   20.45    0.71
  -3  -7  -2    7.73    0.27
  -3  -7  -2    6.40    0.22
  -3  -7  -2    6.69    0.30
  -3  -7  -2    6.89    0.19
  -3  -7  -2    6.69    0.31
  -3  -7  -2    6.70    0.23
   3   7   2    7.68    0.27
   3   7   2    6.54    0.17
  -4  -7  -2    3.33    0.17
  -4  -7  -2    3.11    0.12
  -4  -7  -2    3.21    0.10
  -4  -7  -2    3.26    0.12
  -4  -7  -2    3.28    0.15
   4   7   2    3.09    0.14
   4   7   2    3.31    0.14
  -5  -7  -2    4.62    0.22
  -5  -7  -2    4.59    0.17
  -5  -7  -2    4.63    0.13
  -5  -7  -2    4.44    0.15
  -5  -7  -2    4.46    0.20
   5   7   2    4.50    0.20
   5   7   2    4.74    0.18
  -6  -7  -2   10.11    0.43
  -6  -7  -2   10.29    0.31
  -6  -7  -2   10.50    0.34
  -6  -7  -2   10.39    0.40
   6   7   2   10.22    0.35
   6   7   2   10.27    0.39
  -7  -7  -2    3.36    0.17
  -7  -7  -2    3.57    0.19
  -7  -7  -2    3.14    0.12
   7   7   2    3.63    0.15
   7   7   2    3.23    0.16
  -8  -7  -2    7.00    0.32
  -8  -7  -2    6.61    0.21
   8   7   2    6.71    0.25
  -9  -7  -2    2.98    0.11
   9   7   2    3.06    0.15
  10   7   2    1.88    0.11
  11   7   2    3.11    0.16
  -4   8   2    1.87    0.08
  -3   8   2    1.57    0.07
   2  -8  -2    0.69    0.04
  -2   8   2    0.73    0.05
  -2   8   2    0.72    0.05
   1  -8  -2    5.11    0.20
   1  -8  -2    5.47    0.15
  -1   8   2    5.40    0.15
  -1   8   2    5.52    0.16
   0  -8  -2    6.92    0.19
   0  -8  -2    6.64    0.24
   0   8   2    6.97    0.19
   0   8   2    6.63    0.18
  -1  -8  -2   11.95    0.39
  -1  -8  -2   12.64    0.32
  -1  -8  -2   12.28    0.32
   1   8   2   12.42    0.31
  -2  -8  -2   13.02    0.42
  -2  -8  -2   13.30    0.34
  -2  -8  -2   13.48    0.34
  -2  -8  -2   12.42    0.54
   2   8   2   13.09    0.32
  -3  -8  -2    5.07    0.18
  -3  -8  -2    5.24    0.22
  -3  -8  -2    5.20    0.18
  -3  -8  -2    5.23    0.15
  -3  -8  -2    5.01    0.25
   3   8   2    5.14    0.21
   3   8   2    5.18    0.13
  -4  -8  -2   16.99    0.43
  -4  -8  -2   16.81    0.50
  -4  -8  -2   16.75    0.68
  -4  -8  -2   16.87    0.53
  -4  -8  -2   16.89    0.61
   4   8   2   16.62    0.60
  -5  -8  -2   12.74    0.33
  -5  -8  -2   12.74    0.38
  -5  -8  -2   12.78    0.48
  -5  -8  -2   12.60    0.53
  -5  -8  -2   12.74    0.41
   5   8   2   12.47    0.47
   5   8   2   13.02    0.43
  -6  -8  -2    0.30    0.04
  -6  -8  -2    0.29    0.03
  -6  -8  -2    0.40    0.05
  -6  -8  -2    0.41    0.06
   6   8   2    0.39    0.05
   6   8   2    0.40    0.05
  -7  -8  -2    0.49    0.05
  -7  -8  -2    0.57    0.07
  -7  -8  -2    0.45    0.05
   7   8   2    0.63    0.06
  -8  -8  -2    5.31    0.17
   8   8   2    5.15    0.21
  -9  -8  -2    0.79    0.06
   9   8   2    0.98    0.08
 -10  -8  -2    0.42    0.04
  10   8   2    0.58    0.07
 -11  -8  -2    3.89    0.13
  11   8   2    3.67    0.18
  -3   9   2    1.29    0.07
   2  -9  -2    2.20    0.08
  -2   9   2    2.28    0.09
  -2   9   2    2.34    0.09
   1  -9  -2    3.94    0.12
  -1   9   2    3.88    0.12
   0  -9  -2    1.46    0.09
   0  -9  -2    1.43    0.07
   0   9   2    1.48    0.06
  -1  -9  -2    2.47    0.09
  -1  -9  -2    2.52    0.09
  -1  -9  -2    2.69    0.11
   1   9   2    2.40    0.08
  -2  -9  -2    2.58    0.10
  -2  -9  -2    2.86    0.12
  -2  -9  -2    2.69    0.10
   2   9   2    2.68    0.08
  -3  -9  -2    9.17    0.24
  -3  -9  -2    8.83    0.30
   3   9   2    8.74    0.22
  -4  -9  -2    5.60    0.19
  -4  -9  -2    5.34    0.23
  -4  -9  -2    5.12    0.16
  -4  -9  -2    5.48    0.19
   4   9   2    4.97    0.22
  -5  -9  -2    5.49    0.16
  -5  -9  -2    5.64    0.24
  -5  -9  -2    5.82    0.21
  -5  -9  -2    5.62    0.20
   5   9   2    5.45    0.24
  -6  -9  -2    5.29    0.20
  -6  -9  -2    5.20    0.15
  -6  -9  -2    5.35    0.19
   6   9   2    5.64    0.22
  -7  -9  -2   18.50    0.52
  -7  -9  -2   16.94    0.56
   7   9   2   17.47    0.58
  -8  -9  -2    4.11    0.15
  -8  -9  -2    3.84    0.16
   8   9   2    3.95    0.18
  -9  -9  -2    1.25    0.07
  -9  -9  -2    1.34    0.09
   9   9   2    1.43    0.10
 -10  -9  -2    1.98    0.09
  10   9   2    1.91    0.12
 -11  -9  -2    3.06    0.11
  11   9   2    3.03    0.16
  -2  10   2    1.36    0.07
   1 -10  -2    1.11    0.06
  -1  10   2    1.00    0.06
   0 -10  -2    1.05    0.06
   0  10   2    0.90    0.05
  -1 -10  -2    2.51    0.10
  -1 -10  -2    2.53    0.12
   1  10   2    2.30    0.08
  -2 -10  -2    2.21    0.11
  -2 -10  -2    2.00    0.09
  -2 -10  -2    2.10    0.08
   2  10   2    2.10    0.07
  -3 -10  -2    3.87    0.16
  -3 -10  -2    3.86    0.13
  -3 -10  -2    4.12    0.13
   3  10   2    3.76    0.11
  -4 -10  -2    1.65    0.09
  -4 -10  -2    1.50    0.07
  -4 -10  -2    1.50    0.10
  -5 -10  -2    2.46    0.12
  -5 -10  -2    2.21    0.09
  -5 -10  -2    2.52    0.11
  -6 -10  -2    5.98    0.22
  -6 -10  -2    6.31    0.21
  -6 -10  -2    5.86    0.17
   6  10   2    5.88    0.24
  -7 -10  -2    1.83    0.08
  -7 -10  -2    2.12    0.11
  -7 -10  -2    2.02    0.11
   7  10   2    2.04    0.12
  -8 -10  -2    2.83    0.13
  -8 -10  -2    2.78    0.12
   8  10   2    2.94    0.15
  -9 -10  -2    2.57    0.13
  -9 -10  -2    2.35    0.11
   9  10   2    2.47    0.14
 -10 -10  -2    2.76    0.14
 -10 -10  -2    2.72    0.11
  10  10   2    2.63    0.15
   0 -11  -2    2.17    0.09
   0  11   2    2.16    0.09
  -1 -11  -2    1.99    0.09
   1  11   2    1.95    0.08
  -2 -11  -2    1.74    0.08
  -2 -11  -2    1.92    0.10
   2  11   2    1.75    0.07
  -3 -11  -2    1.93    0.10
  -3 -11  -2    1.94    0.09
  -3 -11  -2    1.77    0.08
   3  11   2    1.80    0.06
  -4 -11  -2    2.41    0.12
  -4 -11  -2    2.36    0.09
  -5 -11  -2    1.14    0.09
  -5 -11  -2    0.92    0.06
  -5 -11  -2    0.94    0.07
  -6 -11  -2    5.98    0.21
  -6 -11  -2    5.06    0.16
  -6 -11  -2    5.47    0.21
  -7 -11  -2    0.04    0.03
  -7 -11  -2    0.03    0.03
  -7 -11  -2    0.10    0.04
  -8 -11  -2    1.98    0.11
  -8 -11  -2    2.08    0.11
  -8 -11  -2    1.87    0.08
   8  11   2    1.89    0.13
  -9 -11  -2    2.48    0.13
  -9 -11  -2    2.63    0.12
   9  11   2    2.40    0.15
 -10 -11  -2    1.21    0.09
 -10 -11  -2    1.14    0.08
  10  11   2    1.14    0.10
  -2 -12  -2    2.68    0.11
   2  12   2    2.71    0.09
  -3 -12  -2    2.18    0.10
  -3 -12  -2    2.19    0.09
  -3 -12  -2    2.12    0.12
  -4 -12  -2    1.69    0.10
  -4 -12  -2    1.60    0.08
  -5 -12  -2    1.63    0.10
  -5 -12  -2    1.40    0.07
  -6 -12  -2    3.73    0.16
  -6 -12  -2    3.25    0.12
  -6 -12  -2    3.42    0.15
  -7 -12  -2    0.52    0.06
  -7 -12  -2    0.51    0.06
  -7 -12  -2    0.62    0.05
  -8 -12  -2    0.89    0.08
  -8 -12  -2    0.78    0.05
  -8 -12  -2    0.81    0.07
   7  12  -3    0.84    0.08
  -7 -12   3    0.78    0.05
  -7 -12   3    0.75    0.07
  -7 -12   3    0.75    0.08
   6  12  -3    1.21    0.10
  -6 -12   3    1.18    0.09
  -6 -12   3    1.06    0.06
  -5 -12   3    1.23    0.07
  -4 -12   3    1.92    0.08
  -4 -12   3    2.02    0.09
   3  12  -3    1.34    0.06
  -3 -12   3    1.37    0.07
   9  11  -3    2.55    0.15
  -9 -11   3    2.83    0.10
  -9 -11   3    2.83    0.12
   8  11  -3    2.11    0.13
  -8 -11   3    2.25    0.11
  -8 -11   3    2.22    0.09
   7  11  -3    2.96    0.16
  -7 -11   3    3.04    0.11
  -7 -11   3    3.13    0.13
   6  11  -3    2.60    0.14
  -6 -11   3    2.80    0.13
  -6 -11   3    2.82    0.13
  -6 -11   3    2.57    0.10
   5  11  -3    0.93    0.08
  -5 -11   3    0.98    0.06
  -5 -11   3    1.09    0.08
  -4 -11   3    2.34    0.09
   3  11  -3    1.19    0.05
  -3 -11   3    1.11    0.06
  -3 -11   3    1.17    0.06
   2  11  -3    1.87    0.07
  -2 -11   3    1.99    0.08
   1  11  -3    2.90    0.10
  -1 -11   3    2.78    0.10
   0  11  -3    1.40    0.06
   0 -11   3    1.49    0.07
  10  10  -3    0.00    0.03
 -10 -10   3   -0.02    0.02
   9  10  -3    2.77    0.16
  -9 -10   3    2.97    0.12
   8  10  -3    2.69    0.15
  -8 -10   3    2.71    0.09
  -8 -10   3    2.74    0.12
   7  10  -3    2.05    0.12
  -7 -10   3    1.92    0.08
  -7 -10   3    2.00    0.10
   6  10  -3    1.74    0.11
  -6 -10   3    1.79    0.09
  -6 -10   3    1.78    0.07
   5  10  -3    5.38    0.22
  -5 -10   3    5.67    0.20
  -5 -10   3    5.46    0.16
  -5 -10   3    5.61    0.21
   4  10  -3    8.21    0.31
  -4 -10   3    8.36    0.23
  -4 -10   3    8.61    0.29
   3  10  -3    2.00    0.07
  -3 -10   3    1.99    0.08
  -3 -10   3    2.03    0.08
   2  10  -3    0.60    0.04
  -2 -10   3    0.64    0.05
  -2 -10   3    0.68    0.05
   1  10  -3    6.28    0.18
  -1 -10   3    6.68    0.18
   0  10  -3    0.86    0.04
   0  10  -3    0.88    0.08
   0  10  -3    0.77    0.05
   0 -10   3    0.82    0.05
  -1  10  -3    2.78    0.15
  -1  10  -3    2.55    0.10
  -1  10  -3    2.78    0.08
   1 -10   3    2.67    0.09
  -2  10  -3    1.20    0.06
  -2  10  -3    1.31    0.11
  10   9  -3    0.85    0.09
 -10  -9   3    0.96    0.07
   9   9  -3    1.36    0.10
  -9  -9   3    1.45    0.08
   8   9  -3    2.99    0.16
  -8  -9   3    3.35    0.13
   7   9  -3    1.38    0.09
  -7  -9   3    1.31    0.08
  -7  -9   3    1.31    0.06
   6   9  -3    2.54    0.13
  -6  -9   3    2.71    0.11
  -6  -9   3    2.67    0.09
   5   9  -3    8.37    0.31
  -5  -9   3    8.43    0.23
  -5  -9   3    8.74    0.27
   4   9  -3    5.17    0.21
  -4  -9   3    5.26    0.18
  -4  -9   3    5.36    0.19
  -4  -9   3    5.09    0.15
  -4  -9   3    4.92    0.22
   3   9  -3    3.28    0.15
   3   9  -3    3.53    0.10
   3   9  -3    3.31    0.15
  -3  -9   3    3.55    0.11
  -3  -9   3    3.37    0.14
  -3  -9   3    3.41    0.18
  -3  -9   3    3.44    0.11
   2   9  -3    4.70    0.19
   2   9  -3    4.76    0.13
  -2  -9   3    4.80    0.14
  -2  -9   3    4.49    0.14
   1   9  -3   11.41    0.30
   1   9  -3   11.80    0.41
   1   9  -3   11.67    0.26
  -1  -9   3   11.49    0.30
   0   9  -3    0.46    0.04
   0   9  -3    0.52    0.03
   0   9  -3    0.58    0.07
   0  -9   3    0.47    0.04
  -1   9  -3    1.43    0.06
  -1   9  -3    1.50    0.06
  -1   9  -3    1.58    0.10
   1  -9   3    1.46    0.06
  -2   9  -3    2.15    0.08
  -2   9  -3    2.23    0.13
  -2   9  -3    2.22    0.08
  -3   9  -3    1.12    0.10
  -3   9  -3    1.08    0.06
  11   8  -3    2.01    0.13
  10   8  -3    1.03    0.09
 -10  -8   3    0.95    0.06
   9   8  -3    1.20    0.10
  -9  -8   3    1.35    0.07
   8   8  -3    8.34    0.32
  -8  -8   3    8.72    0.27
   7   8  -3    2.50    0.13
  -7  -8   3    2.39    0.10
   6   8  -3    6.18    0.25
   6   8  -3    6.66    0.25
  -6  -8   3    6.75    0.18
  -6  -8   3    7.00    0.22
   5   8  -3    9.45    0.35
   5   8  -3   10.33    0.35
  -5  -8   3    9.93    0.39
  -5  -8   3   10.56    0.27
  -5  -8   3   10.63    0.31
   4   8  -3   12.93    0.45
   4   8  -3   13.35    0.44
  -4  -8   3   13.79    0.34
  -4  -8   3   13.29    0.49
  -4  -8   3   13.49    0.40
   3   8  -3    6.33    0.23
   3   8  -3    6.12    0.23
   3   8  -3    6.28    0.16
  -3  -8   3    6.36    0.17
  -3  -8   3    6.16    0.21
  -3  -8   3    6.09    0.25
  -3  -8   3    5.92    0.27
  -3  -8   3    6.24    0.17
  -3  -8   3    6.41    0.22
   2   8  -3   15.70    0.52
   2   8  -3   16.00    0.38
   2   8  -3   15.02    0.50
  -2  -8   3   15.70    0.40
  -2  -8   3   15.49    0.39
  -2  -8   3   15.35    0.61
   1   8  -3    7.56    0.27
   1   8  -3    7.47    0.17
   1   8  -3    7.61    0.20
  -1  -8   3    7.51    0.20
  -1  -8   3    7.44    0.20
  -1  -8   3    7.46    0.33
   0   8  -3    3.93    0.12
   0   8  -3    3.95    0.17
   0   8  -3    3.98    0.12
   0   8  -3    3.94    0.10
   0  -8   3    4.00    0.12
  -1   8  -3    3.44    0.11
  -1   8  -3    3.42    0.16
  -1   8  -3    3.54    0.11
   1  -8   3    3.46    0.10
  -2   8  -3    3.77    0.12
  -2   8  -3    3.91    0.12
  -2   8  -3    3.73    0.17
   2  -8   3    3.88    0.11
  -3   8  -3    0.69    0.05
  -3   8  -3    0.68    0.08
  -4   8  -3    1.32    0.06
  -4   8  -3    1.39    0.11
  11   7  -3    1.67    0.12
  10   7  -3    1.44    0.11
   9   7  -3    2.54    0.14
  -9  -7   3    2.59    0.10
   8   7  -3    7.76    0.30
  -8  -7   3    8.38    0.25
   7   7  -3    3.77    0.16
   7   7  -3    4.00    0.17
  -7  -7   3    3.91    0.14
   6   7  -3    8.97    0.31
   6   7  -3    8.49    0.31
  -6  -7   3    8.55    0.34
  -6  -7   3    9.10    0.23
  -6  -7   3    8.96    0.27
   5   7  -3    1.35    0.08
   5   7  -3    1.42    0.08
  -5  -7   3    1.63    0.09
  -5  -7   3    1.43    0.07
  -5  -7   3    1.51    0.05
   4   7  -3    8.10    0.30
   4   7  -3    8.85    0.30
  -4  -7   3    8.55    0.27
  -4  -7   3    8.42    0.33
  -4  -7   3    9.09    0.23
   3   7  -3   12.46    0.30
   3   7  -3   12.14    0.40
   3   7  -3   12.06    0.41
  -3  -7   3   12.02    0.36
  -3  -7   3   11.97    0.31
  -3  -7   3   12.02    0.48
  -3  -7   3   11.78    0.44
  -3  -7   3   12.49    0.31
   2   7  -3    5.02    0.19
   2   7  -3    5.16    0.13
   2   7  -3    4.91    0.12
   2   7  -3    4.86    0.18
  -2  -7   3    5.10    0.17
  -2  -7   3    5.02    0.14
  -2  -7   3    4.92    0.20
  -2  -7   3    4.99    0.14
  -2  -7   3    4.75    0.22
   1   7  -3   11.55    0.39
   1   7  -3   11.93    0.29
   1   7  -3   11.45    0.25
   1   7  -3   11.48    0.30
  -1  -7   3   11.53    0.30
  -1  -7   3   11.10    0.29
  -1  -7   3   11.55    0.46
   0   7  -3   21.30    0.52
   0   7  -3   20.84    0.68
   0   7  -3   21.70    0.51
   0   7  -3   21.03    0.45
   0  -7   3   19.09    0.79
   0  -7   3   20.42    0.51
  -1   7  -3   15.59    0.41
  -1   7  -3   15.78    0.54
  -1   7  -3   16.61    0.40
   1  -7   3   16.05    0.39
  -2   7  -3    6.90    0.19
  -2   7  -3    6.86    0.29
  -2   7  -3    6.83    0.26
  -2   7  -3    6.97    0.19
   2  -7   3    6.74    0.18
  -3   7  -3    6.31    0.18
  -3   7  -3    6.66    0.26
  -4   7  -3    3.91    0.19
  -4   7  -3    4.18    0.17
  -4   7  -3    3.98    0.13
  -5   7  -3    1.22    0.10
  -5   7  -3    1.18    0.06
  -5   7  -3    1.45    0.10
  11   6  -3    1.44    0.11
  10   6  -3    1.77    0.12
   9   6  -3    0.63    0.07
   8   6  -3    1.98    0.12
  -8  -6   3    1.99    0.08
   7   6  -3    4.13    0.17
  -7  -6   3    3.54    0.17
  -7  -6   3    3.65    0.13
   6   6  -3   15.16    0.53
   6   6  -3   16.42    0.52
  -6  -6   3   16.25    0.46
  -6  -6   3   15.94    0.57
   5   6  -3   10.53    0.35
   5   6  -3   10.05    0.36
  -5  -6   3   10.75    0.26
  -5  -6   3   10.59    0.31
  -5  -6   3   10.25    0.39
   4   6  -3    9.28    0.32
   4   6  -3    9.36    0.31
  -4  -6   3    8.98    0.28
  -4  -6   3    9.75    0.37
  -4  -6   3    9.28    0.35
  -4  -6   3    9.22    0.24
   3   6  -3   14.48    0.35
   3   6  -3   14.15    0.47
   3   6  -3   14.21    0.46
  -3  -6   3   14.47    0.51
  -3  -6   3   14.84    0.57
  -3  -6   3   14.48    0.36
  -3  -6   3   14.60    0.55
  -3  -6   3   13.92    0.42
  -3  -6   3   14.40    0.36
   2   6  -3   12.91    0.28
   2   6  -3   12.45    0.42
   2   6  -3   12.80    0.41
   2   6  -3   13.27    0.32
  -2  -6   3   13.05    0.51
  -2  -6   3   13.01    0.32
  -2  -6   3   13.00    0.46
  -2  -6   3   12.66    0.50
  -2  -6   3   12.79    0.33
   1   6  -3   23.17    0.75
   1   6  -3   23.89    0.56
   1   6  -3   21.53    0.71
   1   6  -3   23.46    0.58
   1   6  -3   23.16    0.50
  -1  -6   3   24.77    0.89
  -1  -6   3   23.71    0.80
  -1  -6   3   24.46    0.71
  -1  -6   3   22.57    0.88
  -1  -6   3   23.32    0.57
  -1  -6   3   23.29    0.58
   0   6  -3    1.62    0.06
   0   6  -3    1.72    0.10
   0   6  -3    1.71    0.06
   0   6  -3    1.62    0.08
   0  -6   3    1.67    0.06
   0  -6   3    1.73    0.06
   0  -6   3    1.82    0.10
   0  -6   3    1.77    0.10
  -1   6  -3    4.97    0.14
  -1   6  -3    5.07    0.21
  -1   6  -3    4.72    0.19
  -1   6  -3    4.90    0.14
   1  -6   3    4.95    0.13
   1  -6   3    5.08    0.22
   1  -6   3    4.60    0.22
  -2   6  -3   16.28    0.41
  -2   6  -3   16.11    0.55
  -2   6  -3   16.48    0.49
  -2   6  -3   16.49    0.58
   2  -6   3   16.76    0.40
  -3   6  -3   11.70    0.43
  -3   6  -3   11.38    0.30
  -3   6  -3   11.33    0.41
  -4   6  -3    2.14    0.08
  -4   6  -3    2.34    0.13
  -5   6  -3    3.53    0.18
  -5   6  -3    3.66    0.11
  -6   6  -3    3.46    0.18
  -6   6  -3    3.31    0.11
  11   5  -3    0.48    0.07
  10   5  -3    2.17    0.13
   9   5  -3    2.79    0.14
   8   5  -3    6.80    0.26
  -8  -5   3    6.33    0.27
   7   5  -3    0.18    0.04
  -7  -5   3    0.20    0.04
  -7  -5   3    0.16    0.02
   6   5  -3   26.38    0.80
   6   5  -3   25.59    0.82
  -6  -5   3   25.09    0.88
  -6  -5   3   25.17    0.72
   5   5  -3    6.75    0.23
   5   5  -3    6.20    0.23
  -5  -5   3    6.43    0.20
  -5  -5   3    6.75    0.28
  -5  -5   3    6.55    0.26
   4   5  -3   29.97    0.92
   4   5  -3   28.46    0.95
  -4  -5   3   30.09    0.73
  -4  -5   3   29.79    0.84
  -4  -5   3   31.05    1.02
  -4  -5   3   30.25    1.13
  -4  -5   3   30.64    1.10
   3   5  -3   29.67    0.72
   3   5  -3   28.70    0.95
   3   5  -3   30.39    0.92
  -3  -5   3   30.15    0.84
  -3  -5   3   30.61    1.11
  -3  -5   3   30.73    1.14
  -3  -5   3   31.17    0.74
  -3  -5   3   30.43    1.03
   2   5  -3   34.47    0.80
   2   5  -3   33.26    1.02
   2   5  -3   33.23    1.06
  -2  -5   3   34.27    0.81
  -2  -5   3   33.60    0.82
  -2  -5   3   33.68    1.14
  -2  -5   3   33.89    1.24
  -2  -5   3   33.58    1.26
   1   5  -3   47.05    1.08
   1   5  -3   43.50    1.35
   1   5  -3   44.80    0.95
   1   5  -3   47.05    1.49
   1   5  -3   45.21    1.10
   1   5  -3   44.36    1.41
  -1  -5   3   46.84    1.68
  -1  -5   3   44.74    1.08
  -1  -5   3   45.23    1.10
  -1  -5   3   44.98    1.66
  -1  -5   3   45.21    1.51
   0   5  -3   38.25    0.91
   0   5  -3   39.33    1.24
   0   5  -3   38.39    0.89
   0   5  -3   36.99    1.17
   0   5  -3   31.46    1.11
   0  -5   3   36.16    1.37
   0  -5   3   36.90    0.91
   0  -5   3   38.93    1.25
   0  -5   3   40.15    1.39
   0  -5   3   36.14    0.89
   0  -5   3   37.76    1.11
  -1   5  -3   14.34    0.49
  -1   5  -3   14.21    0.34
  -1   5  -3   13.51    0.41
  -1   5  -3   13.69    0.35
  -1   5  -3   13.64    0.46
   1  -5   3   13.95    0.54
   1  -5   3   13.75    0.34
   1  -5   3   14.44    0.54
  -2   5  -3    5.00    0.17
  -2   5  -3    5.16    0.21
  -2   5  -3    5.01    0.14
  -2   5  -3    5.04    0.20
   2  -5   3    5.13    0.13
   2  -5   3    4.83    0.23
   2  -5   3    5.27    0.22
  -3   5  -3    6.22    0.24
  -3   5  -3    6.25    0.17
  -3   5  -3    6.56    0.25
   3  -5   3    6.13    0.28
  -4   5  -3    4.54    0.13
  -4   5  -3    4.75    0.20
  -5   5  -3    2.15    0.13
  -5   5  -3    2.13    0.07
  -6   5  -3    1.89    0.07
  -6   5  -3    1.94    0.12
  -7   5  -3    2.10    0.13
  -7   5  -3    1.78    0.07
  11   4  -3    0.25    0.06
  10   4  -3    4.93    0.22
   9   4  -3    0.08    0.04
   8   4  -3    4.99    0.20
  -8  -4   3    4.76    0.21
   7   4  -3    4.40    0.18
  -7  -4   3    4.35    0.19
   6   4  -3   24.42    0.76
  -6  -4   3   24.40    0.92
  -6  -4   3   24.28    0.84
  -6  -4   3   23.65    0.68
   5   4  -3    1.59    0.08
   5   4  -3    1.79    0.09
  -5  -4   3    1.76    0.10
  -5  -4   3    1.65    0.09
  -5  -4   3    1.72    0.07
   4   4  -3   13.29    0.42
   4   4  -3   12.40    0.43
  -4  -4   3   13.24    0.46
  -4  -4   3   13.54    0.51
  -4  -4   3   13.23    0.49
  -4  -4   3   13.30    0.48
  -4  -4   3   12.73    0.37
   3   4  -3   70.76    2.10
   3   4  -3   65.85    2.18
   3   4  -3   70.34    2.56
  -3  -4   3   74.41    2.55
  -3  -4   3   71.97    2.35
  -3  -4   3   71.30    2.59
  -3  -4   3   71.69    1.70
  -3  -4   3   68.69    1.94
   2   4  -3    4.00    0.14
   2   4  -3    4.08    0.15
   2   4  -3    3.93    0.10
  -2  -4   3    3.97    0.18
  -2  -4   3    3.88    0.11
  -2  -4   3    4.17    0.17
  -2  -4   3    4.17    0.16
   1   4  -3   65.63    2.08
   1   4  -3   64.79    1.99
   1   4  -3   67.48    1.59
  -1  -4   3   67.11    2.43
  -1  -4   3   68.66    1.59
  -1  -4   3   67.38    1.62
  -1  -4   3   68.16    2.46
  -1  -4   3   68.36    2.23
   0   4  -3   29.94    0.75
   0   4  -3   30.57    0.73
   0   4  -3   31.91    1.01
   0   4  -3   29.23    0.96
   0  -4   3   30.11    0.73
   0  -4   3   31.93    1.03
   0  -4   3   30.99    1.13
   0  -4   3   30.44    1.14
  -1   4  -3   16.88    0.56
  -1   4  -3   18.01    0.42
  -1   4  -3   17.92    0.60
  -1   4  -3   17.12    0.43
   1  -4   3   16.75    0.66
   1  -4   3   17.75    0.66
   1  -4   3   17.30    0.42
   1  -4   3   18.30    0.59
  -2   4  -3   39.66    1.11
  -2   4  -3   38.85    1.25
  -2   4  -3   40.24    1.31
  -2   4  -3   40.02    0.96
   2  -4   3   39.42    1.46
   2  -4   3   39.56    0.94
   2  -4   3   40.28    1.47
  -3   4  -3   26.09    0.64
  -3   4  -3   26.09    0.84
  -3   4  -3   26.47    0.88
   3  -4   3   26.16    0.99
  -4   4  -3    4.10    0.18
  -4   4  -3    4.05    0.12
  -4   4  -3    4.31    0.18
   4  -4   3    4.07    0.20
  -5   4  -3   10.22    0.27
  -5   4  -3   10.58    0.38
  -6   4  -3    7.54    0.29
  -6   4  -3    7.07    0.19
  -7   4  -3    2.65    0.15
  -7   4  -3    2.48    0.08
  -8   4  -3    1.48    0.11
  11   3  -3    1.96    0.13
  10   3  -3    3.68    0.18
   9   3  -3    0.11    0.04
   8   3  -3    4.90    0.20
   7   3  -3   32.29    0.98
  -7  -3   3   30.91    1.08
   6   3  -3    0.08    0.03
  -6  -3   3    0.09    0.02
  -6  -3   3    0.09    0.03
   5   3  -3    2.24    0.10
  -5  -3   3    2.15    0.11
  -5  -3   3    2.38    0.11
   4   3  -3    0.95    0.06
   4   3  -3    0.98    0.06
   4   3  -3    1.03    0.07
  -4  -3   3    1.00    0.07
  -4  -3   3    0.92    0.04
  -4  -3   3    1.05    0.04
  -4  -3   3    1.14    0.05
  -4  -3   3    0.95    0.06
   3   3  -3   75.62    2.46
   3   3  -3   81.79    2.37
   3   3  -3   74.52    3.01
   3   3  -3   82.84    2.88
  -3  -3   3   82.92    2.65
  -3  -3   3   82.30    2.88
  -3  -3   3   79.73    2.92
   2   3  -3   11.39    0.46
   2   3  -3   11.92    0.29
   2   3  -3   11.22    0.44
   2   3  -3   11.68    0.37
  -2  -3   3   11.82    0.46
  -2  -3   3   12.57    0.44
  -2  -3   3   12.52    0.42
   1   3  -3    9.00    0.38
   1   3  -3    9.62    0.24
   1   3  -3    9.64    0.37
  -1  -3   3   10.21    0.38
  -1  -3   3    9.92    0.34
  -1  -3   3    9.56    0.36
   0   3  -3   63.70    2.54
   0  -3   3   71.21    2.55
   0  -3   3   69.30    1.64
   0  -3   3   71.21    2.43
   0  -3   3   72.58    2.52
  -1   3  -3  120.32    3.82
  -1   3  -3  128.59    4.03
  -1   3  -3  122.24    3.00
  -1   3  -3  116.98    4.52
   1  -3   3  127.42    4.10
   1  -3   3  122.99    2.93
   1  -3   3  130.70    4.51
   1  -3   3  124.29    4.53
  -2   3  -3   11.48    0.29
  -2   3  -3   11.81    0.46
  -2   3  -3   11.31    0.34
  -2   3  -3   11.53    0.39
  -2   3  -3   11.91    0.41
   2  -3   3   11.77    0.46
   2  -3   3   11.78    0.45
   2  -3   3   11.99    0.28
   2  -3   3   11.97    0.40
  -3   3  -3   34.61    1.25
  -3   3  -3   34.24    1.11
  -3   3  -3   32.60    1.06
  -3   3  -3   33.63    0.82
   3  -3   3   34.38    1.25
   3  -3   3   32.50    1.25
  -4   3  -3   19.25    0.48
  -4   3  -3   19.44    0.64
  -4   3  -3   20.11    0.66
   4  -3   3   19.03    0.75
  -5   3  -3   31.33    1.01
  -5   3  -3   29.60    0.74
  -5   3  -3   30.93    0.98
   5  -3   3   29.49    1.15
  -6   3  -3    0.09    0.04
  -7   3  -3    4.39    0.20
  -8   3  -3    4.65    0.21
  10   2  -3    0.92    0.09
   9   2  -3    0.10    0.04
   8   2  -3    5.07    0.21
   7   2  -3   14.01    0.47
   6   2  -3    0.51    0.05
  -6  -2   3    0.55    0.05
   5   2  -3   12.47    0.41
   5   2  -3   13.08    0.49
  -5  -2   3   12.29    0.44
  -5  -2   3   12.53    0.48
  -5  -2   3   12.01    0.48
   4   2  -3   84.83    2.53
   4   2  -3   86.56    3.10
  -4  -2   3   86.44    3.10
  -4  -2   3   83.96    2.82
  -4  -2   3   84.63    3.06
  -4  -2   3   83.62    3.05
   3   2  -3   55.09    1.75
   3   2  -3   56.51    2.07
   3   2  -3   56.76    1.68
  -3  -2   3   57.28    1.88
  -3  -2   3   57.04    2.07
   2   2  -3    2.40    0.09
   2   2  -3    2.50    0.09
   2   2  -3    2.38    0.11
  -2  -2   3    2.42    0.11
  -2  -2   3    2.33    0.09
  -2  -2   3    2.42    0.10
   1   2  -3    8.52    0.37
   1   2  -3    9.90    0.35
  -1  -2   3   10.07    0.33
  -1  -2   3    9.59    0.37
  -1  -2   3    9.54    0.35
   0   2  -3  100.81    3.95
   0   2  -3  110.89    3.93
   0  -2   3  110.52    3.60
   0  -2   3  109.43    4.27
   0  -2   3  110.27    3.98
  -1   2  -3  100.16    3.78
   1  -2   3  106.57    3.42
   1  -2   3  103.09    3.73
   1  -2   3  106.86    3.78
   1  -2   3  100.52    2.44
  -2   2  -3   17.84    0.71
  -2   2  -3   18.16    0.60
  -2   2  -3   19.08    0.63
   2  -2   3   18.23    0.71
   2  -2   3   19.91    0.71
   2  -2   3   19.98    0.63
  -3   2  -3   64.10    2.08
  -3   2  -3   61.54    1.98
  -3   2  -3   60.48    2.34
   3  -2   3   66.37    2.11
   3  -2   3   67.17    2.33
   3  -2   3   64.25    2.34
  -4   2  -3   41.74    1.35
  -4   2  -3   39.89    1.29
  -4   2  -3   41.27    1.52
   4  -2   3   41.10    1.52
   4  -2   3   41.93    1.52
  -5   2  -3   14.51    0.48
  -5   2  -3   13.93    0.49
   5  -2   3   14.45    0.57
  -6   2  -3    2.63    0.12
  -6   2  -3    2.90    0.14
  -7   2  -3    4.86    0.21
  -8   2  -3    5.90    0.25
  -9   2  -3    0.11    0.05
   9   1  -3    0.65    0.07
   8   1  -3    1.37    0.09
   7   1  -3    0.71    0.07
   6   1  -3   13.72    0.45
  -6  -1   3   13.57    0.48
   5   1  -3    3.07    0.13
  -5  -1   3    3.15    0.13
   4   1  -3    2.71    0.11
   4   1  -3    2.66    0.12
   4   1  -3    2.62    0.10
  -4  -1   3    2.64    0.12
  -4  -1   3    2.39    0.11
  -4  -1   3    2.50    0.11
   3   1  -3   45.77    1.36
   3   1  -3   45.01    1.66
   3   1  -3   44.43    1.41
  -3  -1   3   46.17    1.66
  -3  -1   3   44.59    1.63
  -3  -1   3   46.08    1.51
   2   1  -3  171.29    6.73
   2   1  -3  183.12    5.47
  -2  -1   3  197.03    6.73
  -2  -1   3  187.91    6.12
   1   1  -3   74.25    2.64
   1   1  -3   63.84    2.67
  -1  -1   3   76.58    2.44
  -1  -1   3   73.80    2.67
  -1  -1   3   77.52    2.64
   0   1  -3   40.92    1.48
   0   1  -3   39.78    1.50
   0  -1   3   41.41    1.49
   0  -1   3   40.92    1.47
  -1   1  -3  125.18    4.77
  -1   1  -3  127.32    4.56
   1  -1   3  121.32    4.80
   1  -1   3  127.01    4.13
   1  -1   3  122.60    4.56
  -2   1  -3   27.38    1.05
   2  -1   3   27.15    1.05
   2  -1   3   30.58    1.05
   2  -1   3   29.07    0.95
  -3   1  -3   34.94    1.00
  -3   1  -3   36.72    1.18
  -3   1  -3   35.49    1.13
  -3   1  -3   36.09    1.33
   3  -1   3   36.03    1.33
   3  -1   3   36.11    1.34
   3  -1   3   38.78    1.21
  -4   1  -3   17.25    0.64
  -4   1  -3   16.72    0.57
  -4   1  -3   16.46    0.55
   4  -1   3   17.35    0.65
   4  -1   3   17.70    0.58
   4  -1   3   17.10    0.65
  -5   1  -3    0.13    0.03
   5  -1   3    0.08    0.03
  -6   1  -3   35.99    1.12
  -6   1  -3   34.06    1.15
   6  -1   3   35.82    1.32
  -7   1  -3    7.99    0.30
  -8   1  -3    9.03    0.34
  -9   1  -3    1.02    0.09
 -10   1  -3    4.60    0.22
 -10   0   3    1.32    0.11
   8   0  -3    2.73    0.14
   7   0  -3    5.17    0.21
   6   0  -3    7.68    0.27
   5   0  -3    5.73    0.21
  -5   0   3    5.76    0.22
   4   0  -3   11.76    0.44
   4   0  -3   12.06    0.44
   4   0  -3   11.51    0.38
  -4   0   3   11.98    0.44
  -4   0   3   11.82    0.44
  -4   0   3   12.14    0.41
  -4   0   3   11.34    0.45
   3   0  -3   15.16    0.48
   3   0  -3   15.43    0.56
   3   0  -3   15.66    0.57
  -3   0   3   15.51    0.57
  -3   0   3   14.60    0.57
  -3   0   3   15.79    0.53
   2   0  -3    2.81    0.10
   2   0  -3    2.51    0.11
   2   0  -3    2.79    0.11
  -2   0   3    3.06    0.11
  -2   0   3    2.65    0.11
  -2   0   3    2.80    0.11
   1   0  -3    0.50    0.03
   1   0  -3    0.64    0.03
   1   0  -3    0.51    0.04
  -1   0   3    0.62    0.03
  -1   0   3    0.51    0.03
  -1   0   3    0.53    0.03
   0   0  -3   73.39    2.62
   0   0  -3   73.98    2.59
   0   0   3   74.33    2.60
   0   0   3   64.39    2.38
   0   0   3   72.35    2.59
   0   0   3   70.96    2.62
  -1   0  -3   12.77    0.48
  -1   0  -3   13.51    0.47
   1   0   3   11.87    0.43
   1   0   3   12.90    0.47
   1   0   3   12.64    0.48
  -2   0  -3    0.56    0.04
   2   0   3    0.64    0.04
   2   0   3    0.48    0.04
   2   0   3    0.46    0.03
  -3   0  -3   90.29    3.27
  -3   0  -3   91.09    3.29
   3   0   3   93.45    2.99
   3   0   3   87.87    3.27
   3   0   3   87.68    3.30
  -4   0  -3   62.12    2.16
  -4   0  -3   57.69    1.83
  -4   0  -3   56.88    1.62
  -4   0  -3   57.76    1.91
  -4   0  -3   57.58    2.17
   4   0   3   60.17    2.17
   4   0   3   60.47    2.16
   4   0   3   61.31    1.96
  -5   0  -3    7.20    0.30
  -5   0  -3    6.29    0.28
  -5   0  -3    6.31    0.23
  -5   0  -3    6.63    0.24
  -5   0  -3    6.84    0.25
   5   0   3    7.05    0.29
   5   0   3    6.99    0.25
   5   0   3    6.69    0.28
  -6   0  -3   29.43    0.92
  -6   0  -3   28.43    1.11
   6   0   3   29.00    1.09
  -7   0  -3    8.92    0.31
  -7   0  -3    8.68    0.39
   7   0   3    8.60    0.37
  -8   0  -3    8.73    0.32
  -9   0  -3    4.01    0.18
 -10   0  -3    3.64    0.18
  -9   1   3    1.10    0.10
  -8   1   3    5.75    0.24
   7  -1  -3    2.92    0.14
   6  -1  -3    5.69    0.22
   5  -1  -3    8.62    0.30
   4  -1  -3   10.93    0.37
   4  -1  -3   11.06    0.43
  -4   1   3   11.63    0.39
  -4   1   3   11.30    0.28
   3  -1  -3    4.98    0.18
   3  -1  -3    5.00    0.20
  -3   1   3    4.88    0.18
   2  -1  -3    2.76    0.11
   2  -1  -3    2.48    0.11
   2  -1  -3    2.83    0.07
   2  -1  -3    2.78    0.12
  -2   1   3    2.74    0.11
  -2   1   3    2.92    0.11
   1  -1  -3   28.92    1.05
   1  -1  -3   29.17    1.05
   1  -1  -3   28.44    0.86
  -1   1   3   28.46    1.05
  -1   1   3   29.60    0.96
  -1   1   3   28.10    1.05
   0  -1  -3   16.57    0.60
   0   1   3   16.20    0.60
   0   1   3   16.05    0.60
   0   1   3   16.12    0.55
  -1  -1  -3   88.83    3.13
  -1  -1  -3   87.75    3.42
   1   1   3   86.82    3.14
   1   1   3   87.62    3.10
   1   1   3   83.80    3.13
   1   1   3   84.52    3.16
  -2  -1  -3    3.02    0.12
  -2  -1  -3    3.00    0.13
   2   1   3    2.97    0.13
   2   1   3    2.92    0.11
   2   1   3    2.79    0.13
  -3  -1  -3  125.53    4.39
  -3  -1  -3  118.76    4.40
   3   1   3  114.85    4.78
   3   1   3  124.03    3.99
   3   1   3  117.41    4.38
  -4  -1  -3   51.15    1.90
  -4  -1  -3   50.08    1.42
  -4  -1  -3   49.83    1.90
  -4  -1  -3   53.98    1.89
   4   1   3   52.99    1.72
   4   1   3   51.76    1.90
   4   1   3   52.16    1.89
  -5  -1  -3   10.22    0.34
  -5  -1  -3    9.96    0.41
  -5  -1  -3   10.28    0.42
  -5  -1  -3   10.06    0.29
  -5  -1  -3   10.24    0.37
   5   1   3   10.30    0.41
   5   1   3   10.51    0.41
   5   1   3   10.76    0.36
   5   1   3   10.12    0.32
  -6  -1  -3   12.55    0.51
  -6  -1  -3   11.93    0.50
  -6  -1  -3   12.32    0.42
  -6  -1  -3   12.76    0.45
   6   1   3   12.51    0.50
   6   1   3   13.05    0.44
   6   1   3   12.49    0.49
  -7  -1  -3    9.75    0.33
  -7  -1  -3    9.19    0.41
   7   1   3    9.83    0.40
  -8  -1  -3    8.02    0.29
  -9  -1  -3    0.84    0.08
 -10  -1  -3    1.32    0.07
 -10  -1  -3    1.29    0.10
  -9   2   3    0.31    0.06
  -8   2   3    0.89    0.08
   7  -2  -3    0.80    0.07
  -7   2   3    0.89    0.08
   6  -2  -3    6.57    0.26
  -6   2   3    7.63    0.19
   5  -2  -3    2.21    0.11
  -5   2   3    2.34    0.07
   4  -2  -3   15.18    0.50
   4  -2  -3   15.76    0.59
  -4   2   3   15.64    0.38
   3  -2  -3   30.72    0.95
   3  -2  -3   30.99    1.15
  -3   2   3   32.23    1.04
  -3   2   3   30.78    0.76
   2  -2  -3   22.12    0.84
   2  -2  -3   23.24    0.69
   2  -2  -3   21.29    0.54
  -2   2   3   22.37    0.55
  -2   2   3   23.99    0.76
   1  -2  -3    4.29    0.18
   1  -2  -3    4.42    0.17
   1  -2  -3    4.59    0.12
   1  -2  -3    4.36    0.15
   1  -2  -3    4.17    0.17
  -1   2   3    4.50    0.17
  -1   2   3    4.39    0.16
   0  -2  -3   83.45    3.17
   0  -2  -3   91.63    2.80
   0  -2  -3   88.92    3.17
   0  -2  -3   88.14    3.16
   0  -2  -3   82.02    2.57
   0   2   3   90.12    2.87
   0   2   3   84.39    3.16
   0   2   3   85.05    3.16
  -1  -2  -3   29.59    1.09
  -1  -2  -3   30.08    1.08
  -1  -2  -3   29.10    1.09
   1   2   3   28.92    1.08
   1   2   3   29.55    0.98
  -2  -2  -3    1.59    0.08
  -2  -2  -3    1.62    0.08
  -2  -2  -3    1.47    0.08
   2   2   3    1.48    0.08
   2   2   3    1.36    0.07
  -3  -2  -3   64.68    2.35
  -3  -2  -3   64.05    2.36
  -3  -2  -3   67.26    2.36
   3   2   3   63.51    2.14
   3   2   3   65.08    2.34
   3   2   3   62.53    2.36
  -4  -2  -3   89.01    3.24
  -4  -2  -3   93.18    3.22
  -4  -2  -3   85.58    3.21
  -4  -2  -3   88.01    2.85
   4   2   3   86.71    3.22
   4   2   3   88.50    2.93
   4   2   3   89.25    3.20
   4   2   3   86.78    2.62
  -5  -2  -3    6.59    0.28
  -5  -2  -3    6.62    0.19
  -5  -2  -3    6.69    0.25
  -5  -2  -3    6.42    0.29
  -5  -2  -3    6.59    0.22
   5   2   3    6.77    0.28
   5   2   3    6.75    0.28
   5   2   3    6.60    0.22
   5   2   3    6.67    0.25
  -6  -2  -3   21.42    0.86
  -6  -2  -3   22.88    0.77
  -6  -2  -3   22.20    0.85
  -6  -2  -3   22.50    0.71
   6   2   3   22.69    0.77
   6   2   3   22.06    0.84
   6   2   3   22.67    0.85
   6   2   3   22.13    0.68
  -7  -2  -3   12.42    0.46
  -7  -2  -3   12.62    0.51
  -7  -2  -3   12.33    0.52
  -7  -2  -3   12.66    0.42
   7   2   3   12.90    0.45
   7   2   3   13.19    0.51
   7   2   3   12.41    0.50
  -8  -2  -3   13.39    0.45
  -9  -2  -3    1.42    0.09
 -10  -2  -3    1.65    0.11
 -11  -2  -3    3.22    0.17
  -8   3   3    0.63    0.04
  -8   3   3    0.68    0.08
  -7   3   3    1.41    0.10
  -7   3   3    1.39    0.06
   6  -3  -3    0.46    0.06
  -6   3   3    0.52    0.07
  -6   3   3    0.54    0.03
   5  -3  -3    0.89    0.07
  -5   3   3    1.10    0.08
  -5   3   3    1.09    0.04
   4  -3  -3   15.35    0.58
   4  -3  -3   14.53    0.49
  -4   3   3   15.17    0.37
   3  -3  -3    1.33    0.07
   3  -3  -3    1.33    0.08
  -3   3   3    1.29    0.05
   2  -3  -3    7.16    0.19
   2  -3  -3    7.62    0.31
   2  -3  -3    7.40    0.25
  -2   3   3    7.07    0.19
  -2   3   3    8.14    0.26
   1  -3  -3   62.59    2.19
   1  -3  -3   58.25    1.42
   1  -3  -3   60.56    1.79
   1  -3  -3   61.15    2.19
   1  -3  -3   57.49    2.20
  -1   3   3   56.45    1.45
  -1   3   3   62.79    2.19
  -1   3   3   58.28    1.42
  -1   3   3   63.67    1.99
   0  -3  -3   22.13    0.53
   0  -3  -3   22.30    0.82
   0  -3  -3   22.43    0.81
   0  -3  -3   20.68    0.81
   0  -3  -3   21.69    0.66
   0   3   3   22.33    0.81
   0   3   3   20.93    0.52
   0   3   3   22.30    0.73
  -1  -3  -3   33.33    1.22
  -1  -3  -3   31.47    0.98
  -1  -3  -3   32.45    1.22
  -1  -3  -3   35.61    1.08
  -1  -3  -3   33.90    1.21
   1   3   3   31.86    0.78
   1   3   3   32.63    1.22
   1   3   3   33.17    1.10
  -2  -3  -3    1.65    0.06
  -2  -3  -3    1.63    0.09
  -2  -3  -3    1.65    0.07
  -2  -3  -3    1.68    0.09
  -2  -3  -3    1.70    0.08
   2   3   3    1.57    0.08
   2   3   3    1.83    0.08
  -3  -3  -3    7.70    0.32
  -3  -3  -3    7.65    0.24
  -3  -3  -3    7.78    0.32
  -3  -3  -3    8.21    0.31
  -3  -3  -3    7.97    0.27
   3   3   3    7.85    0.25
   3   3   3    7.30    0.31
   3   3   3    7.92    0.28
  -4  -3  -3    2.29    0.09
  -4  -3  -3    2.13    0.08
  -4  -3  -3    2.23    0.08
  -4  -3  -3    2.30    0.12
   4   3   3    2.24    0.10
   4   3   3    2.27    0.09
   4   3   3    2.13    0.11
   4   3   3    2.62    0.12
  -5  -3  -3   15.39    0.59
  -5  -3  -3   14.64    0.59
  -5  -3  -3   15.43    0.53
  -5  -3  -3   14.46    0.42
   5   3   3   15.36    0.58
   5   3   3   15.07    0.58
   5   3   3   15.05    0.47
   5   3   3   15.15    0.53
  -6  -3  -3   10.40    0.42
  -6  -3  -3   10.32    0.38
  -6  -3  -3    9.97    0.33
  -6  -3  -3    9.75    0.42
   6   3   3   10.30    0.37
   6   3   3   10.24    0.41
   6   3   3   10.04    0.33
   6   3   3   10.16    0.41
  -7  -3  -3    4.86    0.17
  -7  -3  -3    4.65    0.20
  -7  -3  -3    4.51    0.23
   7   3   3    4.66    0.19
   7   3   3    4.67    0.21
   7   3   3    4.65    0.17
  -8  -3  -3   23.81    0.96
  -8  -3  -3   25.42    0.79
   8   3   3   24.79    0.94
  -9  -3  -3   12.70    0.44
  -7   4   3    2.52    0.14
  -7   4   3    2.37    0.08
  -6   4   3    7.68    0.30
   5  -4  -3    4.96    0.22
  -5   4   3    6.40    0.23
  -5   4   3    6.05    0.16
   4  -4  -3    1.03    0.07
   4  -4  -3    0.95    0.08
  -4   4   3    0.94    0.07
  -4   4   3    1.04    0.04
   3  -4  -3    4.94    0.12
   3  -4  -3    4.93    0.22
   3  -4  -3    4.87    0.19
  -3   4   3    4.99    0.19
  -3   4   3    5.21    0.14
   2  -4  -3   17.47    0.42
   2  -4  -3   17.93    0.67
   2  -4  -3   16.85    0.54
  -2   4   3   16.80    0.56
  -2   4   3   17.51    0.43
  -2   4   3   17.60    0.42
   1  -4  -3   27.32    0.66
   1  -4  -3   27.93    1.03
   1  -4  -3   26.92    1.01
   1  -4  -3   28.60    1.00
   1  -4  -3   28.42    0.83
  -1   4   3   29.65    0.92
  -1   4   3   26.67    0.91
  -1   4   3   24.99    0.86
  -1   4   3   27.05    0.66
  -1   4   3   26.07    0.67
   0  -4  -3   64.57    2.26
   0  -4  -3   61.55    1.84
   0  -4  -3   60.13    1.50
   0  -4  -3   60.02    2.26
   0  -4  -3   61.15    1.47
   0  -4  -3   61.72    2.27
   0   4   3   61.05    1.47
   0   4   3   60.10    1.50
   0   4   3   64.48    2.26
   0   4   3   62.55    2.02
   0   4   3   64.85    2.05
  -1  -4  -3  108.82    3.35
  -1  -4  -3  100.74    3.80
  -1  -4  -3  104.32    3.78
  -1  -4  -3  102.07    3.76
  -1  -4  -3  104.94    2.50
  -1  -4  -3  105.99    3.07
   1   4   3  100.26    3.90
   1   4   3  105.63    3.35
   1   4   3  104.52    3.54
   1   4   3   99.95    2.45
   1   4   3  103.31    3.78
  -2  -4  -3   29.05    1.07
  -2  -4  -3   29.71    0.95
  -2  -4  -3   29.02    0.70
  -2  -4  -3   27.98    1.08
  -2  -4  -3   29.00    1.08
  -2  -4  -3   28.40    0.86
   2   4   3   27.66    1.07
   2   4   3   28.69    1.08
   2   4   3   30.25    0.95
   2   4   3   29.64    0.97
   2   4   3   28.17    0.68
  -3  -4  -3   16.24    0.48
  -3  -4  -3   17.14    0.57
  -3  -4  -3   17.19    0.65
  -3  -4  -3   17.21    0.65
  -3  -4  -3   16.92    0.51
   3   4   3   16.93    0.53
   3   4   3   16.65    0.64
   3   4   3   17.15    0.59
  -4  -4  -3    2.94    0.15
  -4  -4  -3    3.00    0.13
  -4  -4  -3    2.72    0.10
  -4  -4  -3    2.89    0.11
  -4  -4  -3    2.80    0.10
  -4  -4  -3    3.05    0.15
   4   4   3    2.90    0.13
   4   4   3    2.92    0.11
   4   4   3    2.83    0.14
  -5  -4  -3   22.91    0.77
  -5  -4  -3   21.15    0.62
  -5  -4  -3   22.34    0.85
  -5  -4  -3   22.13    0.72
  -5  -4  -3   22.68    0.85
   5   4   3   21.89    0.85
   5   4   3   22.45    0.68
   5   4   3   22.28    0.77
  -6  -4  -3   20.96    0.60
  -6  -4  -3   21.61    0.76
  -6  -4  -3   22.62    0.84
  -6  -4  -3   21.23    0.84
   6   4   3   21.41    0.75
   6   4   3   22.46    0.67
   6   4   3   21.97    0.82
   6   4   3   21.61    0.83
  -7  -4  -3    8.15    0.32
  -7  -4  -3    7.94    0.36
   7   4   3    8.66    0.28
   7   4   3    8.37    0.32
   7   4   3    8.32    0.34
  -8  -4  -3    1.28    0.11
  -8  -4  -3    1.26    0.09
   8   4   3    1.29    0.09
   8   4   3    1.37    0.08
   8   4   3    1.45    0.09
  -7   5   3    0.76    0.05
  -7   5   3    0.86    0.09
  -6   5   3    1.78    0.12
  -6   5   3    1.56    0.07
  -5   5   3    2.67    0.14
  -5   5   3    2.40    0.08
   4  -5  -3    1.54    0.10
  -4   5   3    1.71    0.06
  -4   5   3    1.81    0.10
   3  -5  -3    9.64    0.34
   3  -5  -3    9.89    0.24
   3  -5  -3    9.86    0.41
  -3   5   3    9.98    0.34
  -3   5   3    9.94    0.26
   2  -5  -3    7.00    0.30
   2  -5  -3    6.68    0.24
   2  -5  -3    6.82    0.18
  -2   5   3    6.56    0.24
  -2   5   3    6.71    0.18
  -2   5   3    6.93    0.18
  -2   5   3    6.34    0.26
   1  -5  -3   14.95    0.36
   1  -5  -3   14.58    0.45
   1  -5  -3   14.58    0.57
  -1   5   3   14.52    0.35
  -1   5   3   13.66    0.50
  -1   5   3   13.73    0.46
  -1   5   3   14.11    0.36
   0  -5  -3    0.88    0.04
   0  -5  -3    0.88    0.07
   0  -5  -3    0.96    0.06
   0  -5  -3    0.81    0.05
   0  -5  -3    0.95    0.04
   0  -5  -3    0.86    0.06
   0   5   3    0.78    0.06
   0   5   3    0.83    0.04
   0   5   3    0.83    0.06
   0   5   3    0.89    0.05
   0   5   3    0.87    0.04
  -1  -5  -3   56.53    2.12
  -1  -5  -3   58.78    2.12
  -1  -5  -3   57.19    1.72
  -1  -5  -3   56.77    2.12
  -1  -5  -3   59.25    1.40
  -1  -5  -3   58.56    1.38
   1   5   3   58.28    2.12
   1   5   3   57.89    1.92
   1   5   3   55.84    1.37
   1   5   3   59.40    1.89
  -2  -5  -3   21.73    0.83
  -2  -5  -3   21.82    0.84
  -2  -5  -3   22.33    0.54
  -2  -5  -3   22.12    0.66
  -2  -5  -3   21.32    0.62
   2   5   3   22.44    0.75
   2   5   3   22.51    0.73
   2   5   3   21.38    0.82
   2   5   3   21.19    0.52
  -3  -5  -3    2.10    0.10
  -3  -5  -3    2.18    0.12
  -3  -5  -3    1.90    0.11
  -3  -5  -3    1.99    0.06
  -3  -5  -3    1.95    0.08
  -3  -5  -3    1.86    0.08
   3   5   3    2.06    0.10
   3   5   3    1.85    0.10
  -4  -5  -3   44.06    1.57
  -4  -5  -3   40.73    1.16
  -4  -5  -3   43.39    1.42
  -4  -5  -3   41.22    1.25
  -4  -5  -3   41.48    1.56
   4   5   3   39.66    1.55
   4   5   3   43.00    1.27
   4   5   3   42.07    1.41
  -5  -5  -3   24.71    0.91
  -5  -5  -3   23.44    0.82
  -5  -5  -3   23.32    0.77
  -5  -5  -3   23.01    0.66
  -5  -5  -3   22.47    0.71
  -5  -5  -3   24.06    0.90
   5   5   3   22.74    0.89
   5   5   3   24.07    0.73
   5   5   3   23.61    0.81
  -6  -5  -3   15.81    0.46
  -6  -5  -3   16.96    0.66
  -6  -5  -3   16.47    0.59
   6   5   3   15.95    0.58
   6   5   3   16.96    0.52
  -7  -5  -3    6.41    0.26
  -7  -5  -3    6.10    0.19
  -7  -5  -3    6.00    0.29
   7   5   3    6.23    0.26
   7   5   3    6.83    0.23
  -8  -5  -3    2.63    0.16
  -8  -5  -3    2.69    0.14
   8   5   3    2.91    0.13
   8   5   3    2.67    0.14
  -6   6   3    0.67    0.08
  -6   6   3    0.72    0.05
  -5   6   3    1.55    0.07
  -5   6   3    1.68    0.11
  -4   6   3    1.97    0.07
  -4   6   3    1.88    0.11
   3  -6  -3    4.80    0.13
   3  -6  -3    4.59    0.19
  -3   6   3    4.98    0.20
  -3   6   3    5.03    0.14
   2  -6  -3    5.14    0.14
   2  -6  -3    4.89    0.24
   2  -6  -3    5.06    0.19
  -2   6   3    4.52    0.21
  -2   6   3    4.70    0.19
  -2   6   3    4.98    0.14
  -2   6   3    5.08    0.14
   1  -6  -3    4.42    0.17
   1  -6  -3    4.78    0.23
   1  -6  -3    4.63    0.13
  -1   6   3    4.40    0.20
  -1   6   3    4.49    0.13
  -1   6   3    4.80    0.13
   0  -6  -3    9.18    0.29
   0  -6  -3    9.19    0.23
   0  -6  -3    8.73    0.23
   0  -6  -3    8.61    0.38
   0   6   3    9.02    0.23
   0   6   3    8.31    0.23
  -1  -6  -3    8.66    0.23
  -1  -6  -3    8.85    0.32
  -1  -6  -3    8.28    0.37
  -1  -6  -3    8.58    0.28
  -1  -6  -3    8.87    0.23
  -1  -6  -3    8.73    0.35
   1   6   3    8.95    0.32
   1   6   3    8.76    0.22
   1   6   3    8.35    0.22
  -2  -6  -3    6.61    0.22
  -2  -6  -3    6.59    0.28
  -2  -6  -3    6.40    0.29
  -2  -6  -3    6.76    0.18
  -2  -6  -3    6.78    0.18
  -2  -6  -3    6.35    0.21
  -2  -6  -3    6.79    0.26
   2   6   3    6.42    0.17
   2   6   3    6.74    0.25
  -3  -6  -3    1.34    0.08
  -3  -6  -3    1.33    0.05
  -3  -6  -3    1.25    0.09
  -3  -6  -3    1.30    0.06
  -3  -6  -3    1.34    0.09
  -3  -6  -3    1.22    0.06
   3   6   3    1.31    0.08
  -4  -6  -3   27.73    0.66
  -4  -6  -3   26.54    0.76
  -4  -6  -3   27.54    0.94
  -4  -6  -3   26.77    0.82
  -4  -6  -3   26.80    1.03
  -4  -6  -3   25.93    1.03
   4   6   3   26.89    0.93
   4   6   3   27.16    1.02
   4   6   3   28.18    0.84
  -5  -6  -3    8.41    0.33
  -5  -6  -3    8.21    0.25
  -5  -6  -3    8.64    0.28
  -5  -6  -3    8.44    0.37
   5   6   3    8.12    0.32
   5   6   3    8.87    0.29
  -6  -6  -3    6.86    0.28
  -6  -6  -3    6.80    0.23
  -6  -6  -3    6.65    0.21
  -6  -6  -3    6.90    0.31
   6   6   3    6.84    0.24
   6   6   3    6.70    0.27
  -7  -6  -3    6.29    0.30
  -7  -6  -3    6.06    0.19
  -7  -6  -3    6.14    0.26
   7   6   3    6.21    0.26
   7   6   3    6.53    0.23
  -8  -6  -3   12.39    0.36
  -8  -6  -3   12.61    0.53
   8   6   3   12.81    0.42
   9   6   3    3.40    0.15
  -5   7   3    0.90    0.09
  -5   7   3    0.84    0.05
  -4   7   3    0.64    0.04
  -4   7   3    0.53    0.07
  -3   7   3    2.63    0.09
   2  -7  -3    5.61    0.22
   2  -7  -3    5.57    0.15
  -2   7   3    5.78    0.16
  -2   7   3    5.61    0.16
   1  -7  -3    9.08    0.24
   1  -7  -3    9.33    0.31
  -1   7   3    9.08    0.24
  -1   7   3    8.85    0.24
   0  -7  -3    4.96    0.14
   0  -7  -3    4.99    0.18
   0  -7  -3    5.00    0.25
   0  -7  -3    4.93    0.14
   0   7   3    5.02    0.14
   0   7   3    5.03    0.14
  -1  -7  -3    7.91    0.21
  -1  -7  -3    7.47    0.35
  -1  -7  -3    8.01    0.21
  -1  -7  -3    8.00    0.26
   1   7   3    7.61    0.20
  -2  -7  -3   10.47    0.34
  -2  -7  -3   10.73    0.43
  -2  -7  -3   10.43    0.44
  -2  -7  -3   11.09    0.28
  -2  -7  -3   10.28    0.32
  -2  -7  -3   10.73    0.28
  -2  -7  -3   10.26    0.39
   2   7   3   10.46    0.26
   2   7   3   10.51    0.39
  -3  -7  -3    3.17    0.12
  -3  -7  -3    3.19    0.15
  -3  -7  -3    3.32    0.13
  -3  -7  -3    3.04    0.17
  -3  -7  -3    3.35    0.10
  -3  -7  -3    3.31    0.17
   3   7   3    3.16    0.08
   3   7   3    3.39    0.15
  -4  -7  -3    0.91    0.06
  -4  -7  -3    1.05    0.09
  -4  -7  -3    1.01    0.04
  -4  -7  -3    1.00    0.07
  -4  -7  -3    0.99    0.06
   4   7   3    0.94    0.07
  -5  -7  -3    2.03    0.09
  -5  -7  -3    2.14    0.07
  -5  -7  -3    1.97    0.13
  -5  -7  -3    1.98    0.11
  -5  -7  -3    2.04    0.09
   5   7   3    1.95    0.11
   5   7   3    2.15    0.11
  -6  -7  -3    4.27    0.16
  -6  -7  -3    4.22    0.22
  -6  -7  -3    4.07    0.14
  -6  -7  -3    4.04    0.19
   6   7   3    4.34    0.17
   6   7   3    4.14    0.19
  -7  -7  -3    1.68    0.08
  -7  -7  -3    1.71    0.09
  -7  -7  -3    1.89    0.13
  -7  -7  -3    1.77    0.11
   7   7   3    1.74    0.11
   7   7   3    1.93    0.10
  -8  -7  -3   11.53    0.34
   8   7   3   11.83    0.40
  -9  -7  -3    3.34    0.11
   9   7   3    3.29    0.15
 -10  -7  -3    4.60    0.15
  10   7   3    4.59    0.20
  -4   8   3    1.05    0.06
  -3   8   3    1.65    0.07
   2  -8  -3    1.78    0.06
   2  -8  -3    1.63    0.10
  -2   8   3    1.66    0.07
  -2   8   3    1.60    0.07
   1  -8  -3    1.08    0.05
   1  -8  -3    1.05    0.08
  -1   8   3    1.06    0.05
  -1   8   3    1.13    0.05
   0  -8  -3    3.43    0.14
   0  -8  -3    3.48    0.11
   0   8   3    3.30    0.11
  -1  -8  -3    8.77    0.23
  -1  -8  -3    8.38    0.29
  -1  -8  -3    8.64    0.23
   1   8   3    8.48    0.22
  -2  -8  -3    6.98    0.20
  -2  -8  -3    7.06    0.20
  -2  -8  -3    6.98    0.24
   2   8   3    6.99    0.18
  -3  -8  -3    4.96    0.17
  -3  -8  -3    4.53    0.14
  -3  -8  -3    4.79    0.17
  -3  -8  -3    4.40    0.23
  -3  -8  -3    4.67    0.20
   3   8   3    4.50    0.20
   3   8   3    4.61    0.12
  -4  -8  -3   15.77    0.39
  -4  -8  -3   15.38    0.48
  -4  -8  -3   15.30    0.45
  -4  -8  -3   14.81    0.55
  -4  -8  -3   14.48    0.62
   4   8   3   14.82    0.55
  -5  -8  -3   18.91    0.59
  -5  -8  -3   18.39    0.67
  -5  -8  -3   19.36    0.47
  -5  -8  -3   18.10    0.75
  -5  -8  -3   18.95    0.55
   5   8   3   18.46    0.67
  -6  -8  -3    4.39    0.15
  -6  -8  -3    4.18    0.20
  -6  -8  -3    4.25    0.16
   6   8   3    4.19    0.20
   6   8   3    4.38    0.18
  -7  -8  -3    0.39    0.05
  -7  -8  -3    0.47    0.05
   7   8   3    0.46    0.06
  -8  -8  -3    5.64    0.22
  -8  -8  -3    6.03    0.19
   8   8   3    6.19    0.24
  -9  -8  -3    3.42    0.15
  -9  -8  -3    3.62    0.13
   9   8   3    3.49    0.16
 -10  -8  -3    0.55    0.05
  10   8   3    0.60    0.07
 -11  -8  -3    0.36    0.04
  11   8   3    0.57    0.07
  -3   9   3    1.02    0.06
  -3   9   3    1.18    0.06
   2  -9  -3    1.14    0.05
  -2   9   3    1.03    0.06
  -2   9   3    1.19    0.06
   1  -9  -3    1.71    0.07
   1  -9  -3    1.72    0.10
  -1   9   3    1.59    0.07
   0  -9  -3    2.46    0.09
   0  -9  -3    2.51    0.12
   0   9   3    2.42    0.09
  -1  -9  -3    1.19    0.08
  -1  -9  -3    1.21    0.06
   1   9   3    1.31    0.05
  -2  -9  -3    5.40    0.16
  -2  -9  -3    5.26    0.16
  -2  -9  -3    5.14    0.19
   2   9   3    5.27    0.15
  -3  -9  -3    3.27    0.11
  -3  -9  -3    3.33    0.13
   3   9   3    3.23    0.09
  -4  -9  -3    2.45    0.09
  -4  -9  -3    2.63    0.12
  -4  -9  -3    2.51    0.14
  -4  -9  -3    2.75    0.11
   4   9   3    2.41    0.13
  -5  -9  -3    5.20    0.16
  -5  -9  -3    5.54    0.20
  -5  -9  -3    5.73    0.20
  -6  -9  -3   10.16    0.27
  -6  -9  -3    9.90    0.33
  -6  -9  -3    9.94    0.32
  -7  -9  -3    1.99    0.10
  -7  -9  -3    1.69    0.10
   7   9   3    2.00    0.12
  -8  -9  -3    5.20    0.20
  -8  -9  -3    5.59    0.19
   8   9   3    5.28    0.22
  -9  -9  -3    2.92    0.12
  -9  -9  -3    2.90    0.13
   9   9   3    2.68    0.15
 -10  -9  -3    1.57    0.08
 -10  -9  -3    1.70    0.10
  10   9   3    1.58    0.11
 -11  -9  -3    0.87    0.08
 -11  -9  -3    0.73    0.05
  11   9   3    0.78    0.08
   1 -10  -3    2.08    0.08
  -1  10   3    1.93    0.08
   0 -10  -3    0.81    0.07
   0 -10  -3    0.72    0.05
   0  10   3    0.73    0.05
  -1 -10  -3    1.41    0.09
  -1 -10  -3    1.44    0.07
   1  10   3    1.47    0.06
  -2 -10  -3    3.40    0.12
  -2 -10  -3    3.52    0.12
  -2 -10  -3    3.31    0.14
   2  10   3    3.36    0.10
  -3 -10  -3    0.83    0.05
  -3 -10  -3    0.78    0.05
  -3 -10  -3    0.79    0.06
   3  10   3    0.74    0.04
  -4 -10  -3    1.68    0.07
  -4 -10  -3    1.84    0.10
  -4 -10  -3    1.68    0.09
  -5 -10  -3    4.26    0.17
  -5 -10  -3    4.12    0.13
  -5 -10  -3    4.35    0.17
  -6 -10  -3    0.66    0.05
  -6 -10  -3    0.77    0.06
  -6 -10  -3    0.68    0.07
  -7 -10  -3    1.17    0.08
  -7 -10  -3    1.10    0.08
  -7 -10  -3    1.10    0.06
   7  10   3    1.02    0.09
  -8 -10  -3    4.07    0.17
  -8 -10  -3    4.30    0.16
   8  10   3    4.01    0.19
  -9 -10  -3    1.13    0.08
  -9 -10  -3    1.25    0.09
   9  10   3    1.18    0.09
 -10 -10  -3    0.63    0.06
 -10 -10  -3    0.61    0.07
  10  10   3    0.61    0.08
   0 -11  -3    1.82    0.08
   0  11   3    1.72    0.08
  -1 -11  -3    2.51    0.13
  -1 -11  -3    2.53    0.10
   1  11   3    2.44    0.09
  -2 -11  -3    0.83    0.06
  -2 -11  -3    1.03    0.08
   2  11   3    1.04    0.05
  -3 -11  -3    2.24    0.11
  -3 -11  -3    2.27    0.09
  -3 -11  -3    2.33    0.09
   3  11   3    2.16    0.07
  -4 -11  -3    1.96    0.08
  -4 -11  -3    2.04    0.11
  -5 -11  -3    2.07    0.12
  -5 -11  -3    2.12    0.11
  -5 -11  -3    1.80    0.08
  -6 -11  -3    0.12    0.03
  -6 -11  -3    0.09    0.04
  -6 -11  -3    0.15    0.04
  -7 -11  -3    3.49    0.12
  -7 -11  -3    3.71    0.15
  -7 -11  -3    3.38    0.15
  -8 -11  -3    1.71    0.10
  -8 -11  -3    1.45    0.07
  -8 -11  -3    1.50    0.09
  -9 -11  -3    1.07    0.08
  -9 -11  -3    1.03    0.08
   9  11   3    1.07    0.10
   2  12   3    1.21    0.06
  -3 -12  -3    2.91    0.12
  -3 -12  -3    2.81    0.14
  -4 -12  -3    0.85    0.07
  -4 -12  -3    0.89    0.06
  -5 -12  -3    1.51    0.08
  -5 -12  -3    1.60    0.10
  -6 -12  -3    3.08    0.15
  -6 -12  -3    3.51    0.16
  -6 -12  -3    2.95    0.11
  -7 -12  -3    1.88    0.11
  -7 -12  -3    2.13    0.12
  -7 -12  -3    1.90    0.09
  -8 -12  -3    0.63    0.05
  -8 -12  -3    0.54    0.07
  -8 -12  -3    0.53    0.06
  -6 -12   4    0.56    0.05
  -5 -12   4    1.07    0.06
  -4 -12   4    1.23    0.07
  -4 -12   4    1.35    0.07
   3  12  -4    1.41    0.06
  -3 -12   4    1.35    0.07
   8  11  -4    2.28    0.14
  -8 -11   4    2.37    0.09
  -8 -11   4    2.44    0.12
   7  11  -4    1.75    0.12
  -7 -11   4    1.84    0.10
  -7 -11   4    1.87    0.08
   6  11  -4    2.40    0.14
  -6 -11   4    2.59    0.13
  -6 -11   4    2.57    0.10
  -6 -11   4    2.69    0.12
  -5 -11   4    2.28    0.09
  -4 -11   4    1.36    0.07
   3  11  -4    0.81    0.04
  -3 -11   4    0.78    0.05
  -3 -11   4    0.75    0.05
   2  11  -4    2.12    0.08
  -2 -11   4    2.06    0.08
   1  11  -4    1.96    0.08
  -1 -11   4    2.06    0.08
   0 -11   4    1.64    0.07
   9  10  -4    0.03    0.04
  -9 -10   4    0.04    0.03
   8  10  -4    3.45    0.17
  -8 -10   4    3.44    0.11
  -8 -10   4    3.64    0.14
   7  10  -4    2.77    0.15
  -7 -10   4    2.81    0.12
  -7 -10   4    2.71    0.10
   6  10  -4    2.59    0.14
  -6 -10   4    2.84    0.12
  -6 -10   4    2.87    0.10
   5  10  -4    2.45    0.13
  -5 -10   4    2.55    0.12
  -5 -10   4    2.39    0.09
  -4 -10   4    3.96    0.13
   3  10  -4    2.48    0.08
  -3 -10   4    2.34    0.09
  -3 -10   4    2.47    0.09
   2  10  -4    3.92    0.17
   2  10  -4    3.83    0.12
  -2 -10   4    3.82    0.12
   1  10  -4    0.24    0.05
   1  10  -4    0.16    0.03
  -1 -10   4    0.20    0.03
   0  10  -4    1.59    0.11
   0  10  -4    1.51    0.06
   0  10  -4    1.41    0.06
   0 -10   4    1.45    0.06
  -1  10  -4    1.80    0.12
  -1  10  -4    1.68    0.07
  -1  10  -4    1.85    0.07
   1 -10   4    1.79    0.07
  10   9  -4    1.15    0.10
 -10  -9   4    1.26    0.08
   9   9  -4    2.21    0.14
  -9  -9   4    2.40    0.11
   8   9  -4    2.89    0.16
  -8  -9   4    3.33    0.13
  -8  -9   4    3.11    0.10
   7   9  -4    6.36    0.26
  -7  -9   4    6.74    0.19
  -7  -9   4    6.82    0.22
   6   9  -4    3.59    0.17
  -6  -9   4    3.64    0.14
  -6  -9   4    3.75    0.12
   5   9  -4    1.18    0.08
   5   9  -4    1.07    0.08
  -5  -9   4    1.05    0.07
  -5  -9   4    1.06    0.05
   4   9  -4   11.69    0.40
   4   9  -4   11.31    0.39
  -4  -9   4   11.37    0.30
  -4  -9   4   11.30    0.35
   3   9  -4    3.55    0.10
   3   9  -4    3.58    0.16
  -3  -9   4    3.47    0.11
  -3  -9   4    3.47    0.11
   2   9  -4    2.11    0.07
   2   9  -4    2.13    0.12
  -2  -9   4    2.09    0.08
  -2  -9   4    2.22    0.08
   1   9  -4    1.05    0.04
   1   9  -4    1.14    0.08
   1   9  -4    1.08    0.05
  -1  -9   4    1.01    0.06
   0   9  -4    4.38    0.13
   0   9  -4    4.53    0.12
   0   9  -4    4.59    0.19
   0  -9   4    4.51    0.13
  -1   9  -4    1.46    0.05
  -1   9  -4    1.48    0.07
  -1   9  -4    1.51    0.10
  -1   9  -4    1.50    0.06
   1  -9   4    1.39    0.06
  -2   9  -4    0.22    0.03
  -2   9  -4    0.33    0.06
  -2   9  -4    0.25    0.03
  -3   9  -4    1.99    0.08
  -3   9  -4    1.96    0.13
  10   8  -4    1.26    0.10
   9   8  -4    4.43    0.21
  -9  -8   4    4.80    0.17
   8   8  -4    1.87    0.12
  -8  -8   4    1.97    0.09
   7   8  -4    3.39    0.16
   7   8  -4    3.68    0.17
  -7  -8   4    3.56    0.14
  -7  -8   4    3.63    0.11
   6   8  -4    2.57    0.13
   6   8  -4    3.03    0.14
  -6  -8   4    3.04    0.09
  -6  -8   4    3.00    0.12
   5   8  -4    6.87    0.26
   5   8  -4    6.74    0.26
  -5  -8   4    7.02    0.23
  -5  -8   4    7.27    0.19
   4   8  -4   16.73    0.55
   4   8  -4   16.06    0.53
  -4  -8   4   16.01    0.59
  -4  -8   4   16.52    0.49
  -4  -8   4   17.03    0.42
   3   8  -4    3.25    0.09
   3   8  -4    3.10    0.14
   3   8  -4    3.17    0.14
  -3  -8   4    3.28    0.10
  -3  -8   4    3.09    0.10
  -3  -8   4    3.09    0.15
   2   8  -4    6.19    0.24
   2   8  -4    6.38    0.17
  -2  -8   4    6.39    0.18
  -2  -8   4    6.40    0.18
  -2  -8   4    6.07    0.27
   1   8  -4   31.69    0.67
   1   8  -4   31.45    0.75
   1   8  -4   30.85    1.00
  -1  -8   4   30.75    0.76
   0   8  -4    2.47    0.09
   0   8  -4    2.39    0.07
   0   8  -4    2.47    0.12
   0   8  -4    2.54    0.08
   0  -8   4    2.33    0.08
  -1   8  -4    2.97    0.08
  -1   8  -4    2.83    0.10
  -1   8  -4    2.95    0.10
  -1   8  -4    2.96    0.14
   1  -8   4    3.07    0.09
  -2   8  -4    2.33    0.08
  -2   8  -4    2.29    0.13
  -2   8  -4    2.27    0.08
   2  -8   4    2.22    0.07
  -3   8  -4    3.73    0.12
  -3   8  -4    3.85    0.18
  -4   8  -4    0.21    0.05
  -4   8  -4    0.19    0.03
  10   7  -4    0.54    0.08
   9   7  -4    2.39    0.14
   8   7  -4    6.92    0.28
  -8  -7   4    7.56    0.23
   7   7  -4    7.55    0.29
   7   7  -4    7.87    0.29
  -7  -7   4    7.69    0.24
   6   7  -4    2.24    0.11
   6   7  -4    2.04    0.11
  -6  -7   4    2.11    0.09
  -6  -7   4    2.09    0.07
   5   7  -4    7.53    0.27
   5   7  -4    7.47    0.28
  -5  -7   4    7.56    0.30
  -5  -7   4    7.87    0.20
  -5  -7   4    7.77    0.24
   4   7  -4   15.43    0.51
   4   7  -4   15.95    0.53
  -4  -7   4   16.53    0.40
  -4  -7   4   15.49    0.46
  -4  -7   4   16.12    0.57
   3   7  -4    4.55    0.12
   3   7  -4    4.58    0.17
   3   7  -4    4.43    0.18
  -3  -7   4    4.27    0.20
  -3  -7   4    4.40    0.16
  -3  -7   4    4.49    0.13
  -3  -7   4    4.37    0.19
  -3  -7   4    4.54    0.13
   2   7  -4    3.08    0.09
   2   7  -4    3.07    0.08
   2   7  -4    2.95    0.13
   2   7  -4    2.92    0.12
  -2  -7   4    2.95    0.09
  -2  -7   4    3.03    0.09
  -2  -7   4    2.94    0.14
  -2  -7   4    2.83    0.15
   1   7  -4   14.93    0.37
   1   7  -4   15.19    0.33
   1   7  -4   14.95    0.50
  -1  -7   4   15.22    0.38
  -1  -7   4   14.65    0.37
  -1  -7   4   14.57    0.58
   0   7  -4    6.34    0.17
   0   7  -4    5.99    0.23
   0   7  -4    6.20    0.17
   0   7  -4    5.87    0.14
   0  -7   4    6.10    0.27
   0  -7   4    6.10    0.17
  -1   7  -4   12.86    0.45
  -1   7  -4   13.26    0.33
  -1   7  -4   13.06    0.34
   1  -7   4   12.76    0.32
  -2   7  -4    5.37    0.22
  -2   7  -4    5.36    0.24
  -2   7  -4    5.38    0.16
   2  -7   4    5.67    0.14
  -3   7  -4    4.03    0.13
  -3   7  -4    4.20    0.19
  -4   7  -4    2.73    0.14
  -4   7  -4    2.73    0.10
  -4   7  -4    2.87    0.15
  -5   7  -4    1.33    0.11
  -5   7  -4    1.48    0.10
  -5   7  -4    1.27    0.06
  11   6  -4    1.85    0.13
  10   6  -4    0.64    0.08
   9   6  -4    1.57    0.11
   8   6  -4    7.04    0.27
   7   6  -4    6.28    0.25
  -7  -6   4    6.42    0.20
   6   6  -4    8.87    0.33
   6   6  -4    9.46    0.33
  -6  -6   4    9.42    0.24
  -6  -6   4    9.19    0.28
  -6  -6   4    9.16    0.35
   5   6  -4   16.17    0.56
   5   6  -4   17.10    0.54
  -5  -6   4   17.21    0.42
  -5  -6   4   17.04    0.49
  -5  -6   4   16.67    0.60
   4   6  -4   45.36    1.36
   4   6  -4   44.37    1.41
  -4  -6   4   45.40    1.25
  -4  -6   4   44.19    1.52
  -4  -6   4   45.66    1.09
   3   6  -4    3.65    0.14
   3   6  -4    3.57    0.15
   3   6  -4    3.66    0.10
  -3  -6   4    3.67    0.11
  -3  -6   4    3.85    0.16
  -3  -6   4    3.56    0.11
  -3  -6   4    3.73    0.13
  -3  -6   4    3.86    0.16
   2   6  -4   17.36    0.37
   2   6  -4   17.43    0.41
   2   6  -4   16.73    0.53
   2   6  -4   16.90    0.55
  -2  -6   4   17.00    0.42
  -2  -6   4   16.96    0.42
  -2  -6   4   16.74    0.64
  -2  -6   4   16.78    0.49
  -2  -6   4   16.84    0.60
   1   6  -4   11.85    0.40
   1   6  -4   12.12    0.31
   1   6  -4   11.84    0.26
   1   6  -4   12.11    0.30
  -1  -6   4   12.10    0.47
  -1  -6   4   12.33    0.43
  -1  -6   4   12.19    0.30
  -1  -6   4   12.02    0.31
   0   6  -4    5.46    0.15
   0   6  -4    5.32    0.13
   0   6  -4    5.34    0.15
   0   6  -4    5.64    0.22
   0   6  -4    5.50    0.20
   0  -6   4    5.47    0.24
   0  -6   4    5.36    0.15
  -1   6  -4    0.83    0.06
  -1   6  -4    0.85    0.07
  -1   6  -4    0.83    0.04
  -1   6  -4    0.86    0.04
   1  -6   4    0.92    0.04
   1  -6   4    0.81    0.07
  -2   6  -4    3.60    0.16
  -2   6  -4    3.56    0.17
  -2   6  -4    3.56    0.11
  -2   6  -4    3.71    0.14
   2  -6   4    3.49    0.10
  -3   6  -4    5.94    0.24
  -3   6  -4    5.98    0.17
  -3   6  -4    5.85    0.21
  -4   6  -4    3.37    0.15
  -4   6  -4    3.45    0.11
  -4   6  -4    3.54    0.17
  -5   6  -4    1.50    0.09
  -5   6  -4    1.49    0.11
  -5   6  -4    1.46    0.06
  -6   6  -4    2.42    0.09
  -6   6  -4    2.70    0.13
  -6   6  -4    2.74    0.15
  11   5  -4    2.66    0.16
  10   5  -4    1.46    0.11
   9   5  -4    2.89    0.15
   8   5  -4    5.69    0.23
   7   5  -4   10.10    0.35
  -7  -5   4    9.70    0.38
   6   5  -4   13.37    0.44
   6   5  -4   12.87    0.44
  -6  -5   4   12.69    0.38
  -6  -5   4   13.27    0.48
   5   5  -4    4.18    0.18
   5   5  -4    4.87    0.18
  -5  -5   4    4.42    0.19
  -5  -5   4    4.66    0.12
  -5  -5   4    4.45    0.15
   4   5  -4   30.01    1.00
   4   5  -4   31.93    0.97
  -4  -5   4   32.45    0.77
  -4  -5   4   31.76    1.08
  -4  -5   4   32.45    1.19
  -4  -5   4   31.18    0.88
   3   5  -4   28.20    0.68
   3   5  -4   28.07    0.91
   3   5  -4   28.35    0.88
  -3  -5   4   30.12    1.05
  -3  -5   4   28.60    1.09
  -3  -5   4   28.89    0.70
  -3  -5   4   28.58    0.98
  -3  -5   4   28.07    0.81
  -3  -5   4   29.71    0.69
   2   5  -4   22.49    0.72
   2   5  -4   21.51    0.69
   2   5  -4   23.26    0.54
  -2  -5   4   22.46    0.86
  -2  -5   4   22.35    0.83
  -2  -5   4   23.41    0.55
  -2  -5   4   22.53    0.77
  -2  -5   4   22.78    0.56
  -2  -5   4   22.07    0.64
   1   5  -4   26.41    0.63
   1   5  -4   25.60    0.80
   1   5  -4   25.77    0.56
   1   5  -4   26.36    0.83
   1   5  -4   26.63    0.65
  -1  -5   4   27.00    0.99
  -1  -5   4   26.09    0.64
  -1  -5   4   26.55    0.63
  -1  -5   4   25.93    0.97
  -1  -5   4   26.54    0.89
   0   5  -4   26.90    0.66
   0   5  -4   26.19    0.85
   0   5  -4   27.83    0.90
   0   5  -4   27.11    0.65
   0   5  -4   26.66    0.57
   0  -5   4   26.44    0.65
   0  -5   4   26.67    0.66
   0  -5   4   26.86    1.01
   0  -5   4   28.60    0.91
   0  -5   4   25.41    1.00
  -1   5  -4   24.56    0.57
  -1   5  -4   23.94    0.80
  -1   5  -4   24.07    0.58
  -1   5  -4   23.34    0.76
   1  -5   4   22.41    0.89
   1  -5   4   23.27    0.57
   1  -5   4   23.72    0.89
  -2   5  -4    6.46    0.18
  -2   5  -4    6.83    0.26
  -2   5  -4    6.52    0.24
  -2   5  -4    6.53    0.22
   2  -5   4    6.41    0.16
   2  -5   4    6.19    0.28
   2  -5   4    6.90    0.28
  -3   5  -4    9.85    0.31
  -3   5  -4   10.12    0.37
  -3   5  -4    9.85    0.26
  -3   5  -4    9.96    0.35
  -4   5  -4    6.45    0.18
  -4   5  -4    6.45    0.22
  -4   5  -4    6.52    0.25
  -5   5  -4    2.02    0.10
  -5   5  -4    2.12    0.12
  -5   5  -4    2.05    0.07
  -6   5  -4    2.10    0.08
  -6   5  -4    2.19    0.13
  -6   5  -4    2.29    0.11
  -7   5  -4    1.28    0.09
  -7   5  -4    1.17    0.10
  -7   5  -4    1.18    0.06
  10   4  -4    0.77    0.08
   9   4  -4    2.41    0.13
   8   4  -4    2.85    0.14
  -8  -4   4    2.78    0.14
   7   4  -4    4.55    0.19
  -7  -4   4    4.44    0.19
   6   4  -4    5.11    0.20
  -6  -4   4    4.91    0.21
  -6  -4   4    5.26    0.23
   5   4  -4    2.55    0.11
   5   4  -4    2.30    0.11
  -5  -4   4    2.66    0.13
  -5  -4   4    2.73    0.12
  -5  -4   4    2.51    0.07
  -5  -4   4    2.41    0.09
   4   4  -4   31.17    1.02
   4   4  -4   32.44    0.99
  -4  -4   4   32.42    1.10
  -4  -4   4   33.15    1.21
  -4  -4   4   31.89    0.90
  -4  -4   4   33.27    0.79
   3   4  -4   24.84    0.61
   3   4  -4   26.52    0.79
   3   4  -4   24.92    0.82
  -3  -4   4   26.79    0.94
  -3  -4   4   25.32    0.63
  -3  -4   4   25.03    0.72
  -3  -4   4   26.33    0.88
  -3  -4   4   26.78    0.98
   2   4  -4   30.75    1.01
   2   4  -4   32.54    0.77
   2   4  -4   31.42    0.97
  -2  -4   4   32.91    1.20
  -2  -4   4   32.67    1.09
  -2  -4   4   31.98    0.78
  -2  -4   4   32.39    0.77
  -2  -4   4   32.68    1.17
   1   4  -4   47.03    1.14
   1   4  -4   45.62    1.40
   1   4  -4   46.24    0.99
   1   4  -4   45.29    1.47
   1   4  -4   47.41    1.12
  -1  -4   4   48.07    1.58
  -1  -4   4   47.53    1.14
  -1  -4   4   47.25    1.74
  -1  -4   4   48.75    1.71
  -1  -4   4   48.38    1.12
   0   4  -4   44.90    1.42
   0   4  -4   45.76    1.08
   0   4  -4   46.02    1.11
   0   4  -4   43.90    0.96
   0  -4   4   44.72    1.10
   0  -4   4   47.61    1.52
   0  -4   4   46.47    1.08
   0  -4   4   43.49    1.66
   0  -4   4   47.56    1.68
  -1   4  -4   41.80    1.32
  -1   4  -4   42.39    1.01
  -1   4  -4   42.36    1.03
  -1   4  -4   41.32    1.18
  -1   4  -4   44.07    1.40
   1  -4   4   41.79    1.01
   1  -4   4   42.95    1.56
   1  -4   4   39.96    1.55
   1  -4   4   44.41    1.41
  -2   4  -4   19.13    0.56
  -2   4  -4   19.34    0.66
  -2   4  -4   19.32    0.48
  -2   4  -4   19.10    0.63
   2  -4   4   19.40    0.46
   2  -4   4   19.64    0.73
   2  -4   4   18.93    0.74
  -3   4  -4   15.56    0.46
  -3   4  -4   15.62    0.54
  -3   4  -4   15.43    0.51
  -3   4  -4   15.86    0.39
   3  -4   4   14.46    0.60
   3  -4   4   15.30    0.59
  -4   4  -4    5.37    0.14
  -4   4  -4    5.12    0.21
  -4   4  -4    5.16    0.18
  -4   4  -4    5.51    0.22
  -5   4  -4    5.52    0.15
  -5   4  -4    5.65    0.19
  -5   4  -4    5.35    0.22
  -6   4  -4    4.02    0.12
  -6   4  -4    4.37    0.16
  -6   4  -4    4.30    0.19
  -7   4  -4    1.72    0.10
  -7   4  -4    1.64    0.11
  -7   4  -4    1.63    0.06
  -8   4  -4    0.79    0.07
  -8   4  -4    0.90    0.09
  10   3  -4    1.39    0.11
   9   3  -4    5.12    0.22
   8   3  -4    3.68    0.17
   7   3  -4    0.12    0.03
  -7  -3   4    0.08    0.03
   6   3  -4   66.94    1.99
  -6  -3   4   65.44    2.21
   5   3  -4    9.20    0.31
   5   3  -4    8.98    0.32
  -5  -3   4    9.02    0.34
  -5  -3   4    9.25    0.37
   4   3  -4   12.77    0.44
   4   3  -4   13.41    0.43
  -4  -3   4   13.14    0.33
  -4  -3   4   13.67    0.47
  -4  -3   4   13.37    0.52
   3   3  -4    0.10    0.02
   3   3  -4    0.16    0.02
  -3  -3   4    0.06    0.02
  -3  -3   4    0.06    0.01
  -3  -3   4    0.08    0.02
   2   3  -4   80.80    3.24
   2   3  -4   88.72    2.09
   2   3  -4   90.08    2.62
   2   3  -4   85.49    2.71
  -2  -3   4   89.17    3.22
  -2  -3   4   91.82    2.99
  -2  -3   4   88.92    2.12
  -2  -3   4   89.37    3.17
   1   3  -4   39.90    1.28
   1   3  -4   43.13    1.50
   1   3  -4   39.76    1.23
   1   3  -4   40.16    0.98
  -1  -3   4   41.65    0.98
  -1  -3   4   42.43    1.52
  -1  -3   4   40.47    1.00
  -1  -3   4   42.44    1.38
  -1  -3   4   40.63    1.49
   0   3  -4   16.95    0.56
   0   3  -4   16.92    0.37
   0   3  -4   17.43    0.43
   0   3  -4   17.30    0.42
   0  -3   4   17.51    0.66
   0  -3   4   17.60    0.65
   0  -3   4   18.63    0.60
   0  -3   4   17.66    0.42
  -1   3  -4    9.82    0.33
  -1   3  -4   10.00    0.25
   1  -3   4   10.43    0.35
   1  -3   4   10.18    0.39
   1  -3   4   10.02    0.25
   1  -3   4   10.08    0.40
  -2   3  -4   40.27    1.26
  -2   3  -4   38.89    1.12
  -2   3  -4   39.71    0.97
  -2   3  -4   41.19    1.32
   2  -3   4   39.13    1.48
   2  -3   4   39.55    0.95
   2  -3   4   41.57    1.48
   2  -3   4   40.56    1.33
  -3   3  -4   40.04    1.30
  -3   3  -4   39.81    1.24
  -3   3  -4   39.38    0.96
  -3   3  -4   38.48    1.10
   3  -3   4   38.78    1.46
   3  -3   4   40.03    1.46
  -4   3  -4    9.26    0.24
  -4   3  -4    9.66    0.34
  -4   3  -4    9.58    0.33
  -4   3  -4    9.49    0.29
   4  -3   4    9.13    0.39
  -5   3  -4    1.02    0.04
  -5   3  -4    1.16    0.08
  -5   3  -4    1.10    0.08
  -5   3  -4    1.19    0.07
  -6   3  -4    4.77    0.21
  -6   3  -4    4.97    0.17
  -7   3  -4    5.41    0.23
  -7   3  -4    5.30    0.19
  -8   3  -4    0.67    0.08
  -8   3  -4    0.78    0.07
  10   2  -4    2.08    0.13
   9   2  -4    0.50    0.07
   8   2  -4    2.24    0.12
   7   2  -4    3.11    0.15
   6   2  -4   41.21    1.24
  -6  -2   4   40.02    1.37
   5   2  -4    2.77    0.12
  -5  -2   4    2.65    0.13
  -5  -2   4    2.70    0.12
   4   2  -4   48.59    1.83
   4   2  -4   48.42    1.55
   4   2  -4   50.29    1.50
  -4  -2   4   50.99    1.83
  -4  -2   4   50.66    1.67
   3   2  -4  161.18    5.07
   3   2  -4  165.72    4.88
   3   2  -4  156.22    6.00
  -3  -2   4  168.91    5.45
  -3  -2   4  169.09    6.36
   2   2  -4   19.10    0.71
   2   2  -4   20.36    0.60
   2   2  -4   18.21    0.62
   2   2  -4   19.19    0.47
   2   2  -4   18.12    0.74
  -2  -2   4   20.11    0.74
  -2  -2   4   20.09    0.48
  -2  -2   4   20.59    0.67
  -2  -2   4   20.36    0.71
   1   2  -4   47.41    1.13
   1   2  -4   43.29    1.76
   1   2  -4   51.20    1.73
  -1  -2   4   46.69    1.72
  -1  -2   4   50.05    1.59
  -1  -2   4   48.28    1.75
   0   2  -4   39.52    1.55
   0  -2   4   45.11    1.40
   0  -2   4   43.28    1.00
   0  -2   4   41.86    1.53
   0  -2   4   40.55    1.55
  -1   2  -4   16.55    0.40
  -1   2  -4   16.09    0.63
  -1   2  -4   15.86    0.52
   1  -2   4   16.72    0.62
   1  -2   4   17.36    0.56
   1  -2   4   16.40    0.40
   1  -2   4   16.35    0.62
  -2   2  -4   38.50    0.92
  -2   2  -4   38.39    1.18
   2  -2   4   37.38    1.39
   2  -2   4   35.94    0.89
   2  -2   4   38.47    1.40
   2  -2   4   38.86    1.26
  -3   2  -4   15.38    0.45
  -3   2  -4   15.72    0.51
  -3   2  -4   15.72    0.38
  -3   2  -4   15.41    0.53
   3  -2   4   16.38    0.53
   3  -2   4   15.84    0.60
   3  -2   4   14.92    0.60
  -4   2  -4    8.06    0.21
  -4   2  -4    8.34    0.26
  -4   2  -4    8.55    0.30
  -4   2  -4    8.38    0.29
   4  -2   4    8.28    0.35
   4  -2   4    9.00    0.34
  -5   2  -4   28.70    0.81
  -5   2  -4   28.72    0.95
  -5   2  -4   28.94    0.92
   5  -2   4   27.74    1.08
  -6   2  -4   14.29    0.42
  -6   2  -4   14.00    0.48
  -7   2  -4    4.67    0.16
  -7   2  -4    4.55    0.20
  -8   2  -4    1.27    0.10
  -8   2  -4    1.24    0.07
  -9   2  -4    2.63    0.15
  -9   2  -4    2.68    0.12
  10   1  -4    1.57    0.12
   9   1  -4    0.54    0.07
   8   1  -4    1.82    0.11
   7   1  -4    9.56    0.34
   6   1  -4    0.70    0.07
   5   1  -4    2.66    0.12
  -5  -1   4    2.78    0.12
   4   1  -4    6.00    0.24
   4   1  -4    5.61    0.21
  -4  -1   4    5.92    0.23
  -4  -1   4    5.70    0.22
   3   1  -4   62.20    1.83
   3   1  -4   58.30    2.24
  -3  -1   4   62.47    2.24
  -3  -1   4   62.08    2.04
   2   1  -4    4.03    0.19
   2   1  -4    4.71    0.12
   2   1  -4    4.79    0.16
  -2  -1   4    4.75    0.19
  -2  -1   4    4.85    0.18
   1   1  -4   48.52    1.44
   1   1  -4   42.56    1.77
   1   1  -4   48.70    1.74
   1   1  -4   50.77    1.76
   1   1  -4   48.56    1.15
  -1  -1   4   48.89    1.79
  -1  -1   4   50.22    1.61
  -1  -1   4   48.63    1.77
   0   1  -4  129.57    4.96
   0   1  -4  133.23    4.89
   0   1  -4  141.64    4.92
   0  -1   4  132.18    4.95
   0  -1   4  137.63    4.89
   0  -1   4  138.89    4.50
  -1   1  -4  173.59    6.47
  -1   1  -4  183.30    6.43
   1  -1   4  173.97    6.41
   1  -1   4  177.04    6.47
   1  -1   4  172.97    4.18
   1  -1   4  182.83    5.87
  -2   1  -4   29.09    1.13
  -2   1  -4   29.89    0.95
   2  -1   4   31.68    1.02
   2  -1   4   29.88    1.13
   2  -1   4   31.70    1.12
  -3   1  -4   41.70    1.17
  -3   1  -4   42.09    1.32
   3  -1   4   40.93    1.55
   3  -1   4   42.04    1.56
   3  -1   4   44.44    1.41
  -4   1  -4   22.68    0.64
  -4   1  -4   23.02    0.73
  -4   1  -4   22.62    0.76
   4  -1   4   23.57    0.86
   4  -1   4   23.74    0.77
   4  -1   4   21.63    0.86
  -5   1  -4   73.79    2.45
  -5   1  -4   75.08    2.08
  -5   1  -4   76.56    2.35
   5  -1   4   77.13    2.77
   5  -1   4   76.47    2.78
  -6   1  -4    0.65    0.07
  -6   1  -4    0.64    0.05
  -6   1  -4    0.72    0.07
  -6   1  -4    0.61    0.05
   6  -1   4    0.55    0.07
  -7   1  -4   13.21    0.39
  -7   1  -4   13.05    0.46
  -8   1  -4    9.63    0.30
  -8   1  -4    9.55    0.36
  -9   1  -4    1.40    0.08
  -9   1  -4    1.35    0.10
   9   0  -4    0.63    0.08
   8   0  -4    1.42    0.10
   7   0  -4    4.74    0.20
   6   0  -4    3.53    0.16
   5   0  -4    2.52    0.12
  -5   0   4    2.47    0.07
  -5   0   4    2.59    0.11
   4   0  -4    9.41    0.31
  -4   0   4    9.44    0.23
  -4   0   4    9.30    0.34
   3   0  -4   28.36    1.00
   3   0  -4   27.00    1.01
   3   0  -4   26.93    0.84
  -3   0   4   26.81    1.01
  -3   0   4   27.80    1.00
  -3   0   4   27.44    0.92
  -3   0   4   27.68    0.67
   2   0  -4   25.29    1.08
   2   0  -4   30.05    0.70
   2   0  -4   31.20    0.89
   2   0  -4   30.42    1.07
   2   0  -4   29.35    0.70
  -2   0   4   30.57    1.07
  -2   0   4   30.49    0.99
  -2   0   4   29.72    0.71
  -2   0   4   28.09    1.08
   1   0  -4   10.43    0.26
   1   0  -4   11.07    0.34
   1   0  -4   10.04    0.41
   1   0  -4   11.09    0.40
   1   0  -4   11.32    0.40
  -1   0   4   10.48    0.41
  -1   0   4   10.90    0.37
  -1   0   4   10.76    0.40
   0   0  -4   96.60    3.40
   0   0  -4   93.54    3.42
   0   0  -4   97.82    3.44
   0   0   4   94.98    3.40
   0   0   4   89.07    3.43
   0   0   4   95.55    3.40
   0   0   4   90.39    3.12
  -1   0  -4  203.15    7.87
  -1   0  -4  198.43    7.69
   1   0   4  198.56    7.29
   1   0   4  199.83    7.22
   1   0   4  200.31    6.61
  -2   0  -4    0.08    0.02
  -2   0  -4    0.06    0.02
   2   0   4    0.11    0.02
   2   0   4    0.08    0.02
   2   0   4    0.08    0.02
  -3   0  -4   79.76    2.24
  -3   0  -4   80.52    2.96
  -3   0  -4   82.62    2.97
   3   0   4   85.18    2.69
   3   0   4   80.14    2.98
   3   0   4   79.32    2.94
  -4   0  -4   33.75    0.96
  -4   0  -4   34.17    1.08
  -4   0  -4   35.23    1.29
   4   0   4   34.91    1.28
   4   0   4   35.69    1.16
   4   0   4   33.34    1.28
  -5   0  -4   30.47    1.03
  -5   0  -4   31.89    1.00
  -5   0  -4   30.47    1.19
  -5   0  -4   31.04    0.88
   5   0   4   32.61    1.18
   5   0   4   31.56    1.18
   5   0   4   33.32    1.06
  -6   0  -4    0.03    0.02
  -6   0  -4    0.02    0.01
  -6   0  -4    0.07    0.03
  -6   0  -4    0.06    0.03
  -6   0  -4    0.03    0.02
   6   0   4    0.09    0.03
   6   0   4    0.11    0.04
  -7   0  -4   12.42    0.36
  -7   0  -4   12.30    0.43
  -8   0  -4   10.75    0.39
  -8   0  -4   11.14    0.33
  -9   0  -4    0.23    0.03
  -9   0  -4    0.31    0.05
 -10   0  -4    3.53    0.18
 -10   0  -4    3.44    0.13
  -9   1   4    0.54    0.07
   8  -1  -4    1.81    0.11
   7  -1  -4    2.87    0.14
   6  -1  -4    7.57    0.29
  -6   1   4    8.51    0.21
   5  -1  -4    4.80    0.19
  -5   1   4    5.24    0.13
   4  -1  -4   13.40    0.44
  -4   1   4   13.20    0.33
  -4   1   4   13.42    0.46
   3  -1  -4   34.40    1.22
   3  -1  -4   32.82    1.22
   3  -1  -4   34.50    1.02
  -3   1   4   33.19    1.22
  -3   1   4   32.58    1.12
  -3   1   4   33.42    0.81
   2  -1  -4   49.14    1.70
   2  -1  -4   47.83    1.41
   2  -1  -4   44.01    1.11
  -2   1   4   44.58    1.71
  -2   1   4   46.55    1.13
  -2   1   4   47.89    1.70
  -2   1   4   48.37    1.56
   1  -1  -4    0.65    0.04
   1  -1  -4    0.77    0.03
   1  -1  -4    0.73    0.04
   1  -1  -4    0.74    0.05
  -1   1   4    0.64    0.04
  -1   1   4    0.70    0.04
  -1   1   4    0.66    0.04
   0  -1  -4   65.59    2.32
   0  -1  -4   64.29    2.34
   0  -1  -4   64.58    2.35
   0  -1  -4   64.56    1.90
   0   1   4   64.54    2.33
   0   1   4   62.98    2.12
   0   1   4   61.95    2.48
  -1  -1  -4  205.07    7.52
  -1  -1  -4  211.91    7.55
   1   1   4  212.47    7.49
   1   1   4  206.26    4.88
   1   1   4  200.92    7.56
   1   1   4  207.93    6.86
  -2  -1  -4   32.34    1.19
  -2  -1  -4   32.70    1.19
   2   1   4   33.39    1.08
   2   1   4   32.31    1.18
   2   1   4   30.60    1.19
  -3  -1  -4   23.52    0.85
  -3  -1  -4   23.34    0.86
   3   1   4   22.51    0.77
   3   1   4   21.52    0.86
   3   1   4   23.57    0.85
  -4  -1  -4   42.76    1.18
  -4  -1  -4   42.41    1.59
   4   1   4   43.59    1.44
   4   1   4   43.35    1.59
   4   1   4   42.85    1.58
  -5  -1  -4   30.95    1.19
  -5  -1  -4   30.72    1.18
  -5  -1  -4   30.28    1.02
  -5  -1  -4   31.61    0.99
  -5  -1  -4   31.16    0.87
   5   1   4   33.18    1.06
   5   1   4   32.03    1.18
   5   1   4   31.97    1.17
  -6  -1  -4   16.52    0.46
  -6  -1  -4   16.44    0.53
  -6  -1  -4   15.98    0.57
  -6  -1  -4   15.61    0.65
  -6  -1  -4   15.81    0.64
   6   1   4   16.66    0.63
   6   1   4   16.14    0.64
   6   1   4   16.91    0.57
  -7  -1  -4    1.70    0.09
  -7  -1  -4    1.82    0.07
  -7  -1  -4    1.65    0.12
   7   1   4    1.63    0.11
  -8  -1  -4    9.79    0.35
  -8  -1  -4   10.06    0.29
  -9  -1  -4    1.58    0.10
  -9  -1  -4    1.46    0.07
 -10  -1  -4    4.85    0.16
 -10  -1  -4    4.75    0.21
  -8   2   4    0.06    0.04
   7  -2  -4    0.69    0.07
  -7   2   4    0.90    0.04
   6  -2  -4    4.96    0.22
  -6   2   4    5.80    0.15
   5  -2  -4    5.98    0.24
  -5   2   4    6.68    0.17
   4  -2  -4    4.84    0.20
   4  -2  -4    4.59    0.18
  -4   2   4    4.47    0.12
   3  -2  -4   21.24    0.78
   3  -2  -4   20.43    0.50
   3  -2  -4   21.16    0.66
  -3   2   4   20.87    0.70
   2  -2  -4   53.02    1.81
   2  -2  -4   48.00    1.18
   2  -2  -4   44.38    1.80
   2  -2  -4   50.74    1.49
  -2   2   4   51.39    1.65
  -2   2   4   50.49    1.80
  -2   2   4   49.32    1.20
   1  -2  -4   19.63    0.70
   1  -2  -4   18.75    0.68
   1  -2  -4   18.40    0.45
   1  -2  -4   19.27    0.57
  -1   2   4   18.06    0.69
  -1   2   4   17.57    0.45
  -1   2   4   19.51    0.63
  -1   2   4   17.65    0.45
   0  -2  -4   24.40    0.89
   0  -2  -4   24.78    0.88
   0  -2  -4   23.62    0.72
   0  -2  -4   23.61    0.58
   0   2   4   25.06    0.81
   0   2   4   23.11    0.89
   0   2   4   23.55    0.57
  -1  -2  -4   21.79    0.81
  -1  -2  -4   21.12    0.65
  -1  -2  -4   23.10    0.81
   1   2   4   21.46    0.52
   1   2   4   21.17    0.81
   1   2   4   22.11    0.74
  -2  -2  -4    4.95    0.20
  -2  -2  -4    4.89    0.21
  -2  -2  -4    4.54    0.15
   2   2   4    4.83    0.18
   2   2   4    4.63    0.20
  -3  -2  -4   91.93    3.25
  -3  -2  -4   89.22    3.27
  -3  -2  -4   87.93    2.63
  -3  -2  -4   89.30    3.30
   3   2   4   88.70    3.23
   3   2   4   86.14    3.35
   3   2   4   90.56    2.95
  -4  -2  -4   42.20    1.16
  -4  -2  -4   41.80    1.57
  -4  -2  -4   42.37    1.56
  -4  -2  -4   40.95    1.25
   4   2   4   42.69    1.26
   4   2   4   41.50    1.55
   4   2   4   43.52    1.41
   4   2   4   42.67    1.56
  -5  -2  -4   31.62    0.98
  -5  -2  -4   31.67    1.18
  -5  -2  -4   30.64    1.18
  -5  -2  -4   31.37    0.87
  -5  -2  -4   31.16    0.93
   5   2   4   30.36    1.16
   5   2   4   31.02    0.94
   5   2   4   31.03    1.17
   5   2   4   33.09    1.06
  -6  -2  -4   33.13    1.28
  -6  -2  -4   34.00    0.94
  -6  -2  -4   34.91    1.07
  -6  -2  -4   33.26    1.28
  -6  -2  -4   33.17    1.15
   6   2   4   34.10    1.26
   6   2   4   34.57    1.15
   6   2   4   34.15    1.27
  -7  -2  -4   31.85    1.28
  -7  -2  -4   34.53    1.07
  -7  -2  -4   34.44    0.93
  -7  -2  -4   33.27    1.15
   7   2   4   33.37    1.26
   7   2   4   34.45    1.15
  -8  -2  -4   18.69    0.61
  -8  -2  -4   18.41    0.52
  -9  -2  -4    2.10    0.08
  -9  -2  -4    2.15    0.12
 -10  -2  -4    3.57    0.12
 -10  -2  -4    3.54    0.17
  -8   3   4    2.61    0.15
  -8   3   4    2.37    0.09
  -7   3   4    1.03    0.09
  -7   3   4    0.88    0.05
   6  -3  -4    0.91    0.08
  -6   3   4    1.06    0.05
  -6   3   4    1.11    0.09
   5  -3  -4    0.99    0.08
  -5   3   4    1.23    0.05
   4  -3  -4    2.02    0.11
  -4   3   4    2.05    0.07
   3  -3  -4    4.23    0.11
   3  -3  -4    4.54    0.20
   3  -3  -4    4.34    0.17
  -3   3   4    4.18    0.12
   2  -3  -4    7.96    0.27
   2  -3  -4    7.75    0.20
   2  -3  -4    8.32    0.33
  -2   3   4    7.56    0.21
  -2   3   4    8.34    0.28
  -2   3   4    8.47    0.20
   1  -3  -4    5.67    0.22
   1  -3  -4    5.55    0.20
   1  -3  -4    5.94    0.24
   1  -3  -4    5.48    0.22
   1  -3  -4    5.86    0.15
  -1   3   4    5.73    0.22
  -1   3   4    5.88    0.21
  -1   3   4    5.34    0.15
  -1   3   4    5.59    0.15
   0  -3  -4   37.53    1.39
   0  -3  -4   38.06    1.38
   0  -3  -4   37.25    0.92
   0  -3  -4   38.11    0.90
   0  -3  -4   38.34    0.90
   0  -3  -4   37.49    1.13
   0  -3  -4   38.16    1.39
   0   3   4   39.32    1.26
   0   3   4   38.03    0.90
   0   3   4   36.41    0.91
   0   3   4   36.74    1.38
  -1  -3  -4   88.54    3.26
  -1  -3  -4   97.84    2.91
  -1  -3  -4   87.04    2.66
  -1  -3  -4   87.72    2.18
  -1  -3  -4   95.03    3.28
  -1  -3  -4   88.04    3.30
   1   3   4   87.41    2.12
   1   3   4   90.95    3.08
   1   3   4   86.56    3.28
  -2  -3  -4   10.68    0.33
  -2  -3  -4   10.96    0.43
  -2  -3  -4   11.01    0.37
  -2  -3  -4   10.51    0.43
  -2  -3  -4   11.67    0.42
   2   3   4   10.33    0.42
   2   3   4   10.76    0.38
  -3  -3  -4   38.70    1.17
  -3  -3  -4   39.36    1.45
  -3  -3  -4   39.64    1.46
  -3  -3  -4   40.81    1.28
  -3  -3  -4   37.92    1.09
   3   3   4   40.11    1.32
   3   3   4   38.08    1.45
  -4  -3  -4   22.10    0.64
  -4  -3  -4   23.67    0.75
  -4  -3  -4   22.63    0.87
  -4  -3  -4   22.22    0.68
  -4  -3  -4   23.08    0.87
   4   3   4   22.47    0.78
   4   3   4   23.92    0.70
   4   3   4   22.85    0.85
   4   3   4   22.25    0.86
  -5  -3  -4   24.90    0.81
  -5  -3  -4   24.56    0.95
  -5  -3  -4   25.72    0.95
  -5  -3  -4   24.32    0.75
  -5  -3  -4   24.72    0.69
   5   3   4   25.38    0.86
   5   3   4   24.26    0.93
   5   3   4   25.48    0.76
   5   3   4   25.08    0.94
  -6  -3  -4    8.14    0.24
  -6  -3  -4    7.97    0.35
  -6  -3  -4    8.21    0.31
   6   3   4    7.89    0.34
   6   3   4    8.20    0.27
   6   3   4    8.22    0.31
  -7  -3  -4    9.17    0.26
  -7  -3  -4    9.01    0.34
  -7  -3  -4    8.55    0.39
   7   3   4    8.71    0.37
   7   3   4    9.02    0.34
  -7   4   4    0.43    0.07
  -7   4   4    0.31    0.03
   6  -4  -4    2.49    0.14
  -6   4   4    3.18    0.10
  -6   4   4    3.14    0.15
   5  -4  -4    1.82    0.11
  -5   4   4    2.05    0.07
  -5   4   4    2.20    0.12
   4  -4  -4    5.67    0.23
  -4   4   4    6.09    0.16
  -4   4   4    6.32    0.23
   3  -4  -4    6.12    0.27
   3  -4  -4    6.28    0.16
   3  -4  -4    6.27    0.23
  -3   4   4    6.67    0.17
  -3   4   4    6.54    0.23
   2  -4  -4   12.14    0.40
   2  -4  -4   13.57    0.50
   2  -4  -4   12.06    0.31
  -2   4   4   12.59    0.31
  -2   4   4   11.88    0.31
   1  -4  -4    0.63    0.03
   1  -4  -4    0.63    0.06
   1  -4  -4    0.68    0.03
  -1   4   4    0.63    0.03
  -1   4   4    0.66    0.04
   0  -4  -4   70.96    2.68
   0  -4  -4   74.33    2.68
   0  -4  -4   76.08    1.78
   0  -4  -4   74.05    1.75
   0  -4  -4   70.56    2.18
   0  -4  -4   75.09    2.68
   0   4   4   76.18    2.68
   0   4   4   72.31    1.74
   0   4   4   72.87    2.44
   0   4   4   73.21    1.77
  -1  -4  -4   20.24    0.73
  -1  -4  -4   19.01    0.59
  -1  -4  -4   19.62    0.48
  -1  -4  -4   20.56    0.66
  -1  -4  -4   19.12    0.74
  -1  -4  -4   19.87    0.48
  -1  -4  -4   19.05    0.75
   1   4   4   19.18    0.67
   1   4   4   19.33    0.47
   1   4   4   18.84    0.73
  -2  -4  -4    5.30    0.14
  -2  -4  -4    5.30    0.23
  -2  -4  -4    5.20    0.17
  -2  -4  -4    5.54    0.22
  -2  -4  -4    5.33    0.20
  -2  -4  -4    5.50    0.24
   2   4   4    5.08    0.22
   2   4   4    5.17    0.13
   2   4   4    5.30    0.20
  -3  -4  -4   50.52    1.42
  -3  -4  -4   53.48    1.68
  -3  -4  -4   50.84    1.53
  -3  -4  -4   50.68    1.89
  -3  -4  -4   53.58    1.90
   3   4   4   51.42    1.72
   3   4   4   49.84    1.89
  -4  -4  -4   57.00    1.72
  -4  -4  -4   59.55    1.88
  -4  -4  -4   56.88    2.13
  -4  -4  -4   60.70    2.14
  -4  -4  -4   56.46    1.59
   4   4   4   58.01    1.94
   4   4   4   56.64    2.13
  -5  -4  -4    9.63    0.32
  -5  -4  -4    9.80    0.40
  -5  -4  -4    9.34    0.30
  -5  -4  -4    9.28    0.28
  -5  -4  -4    9.82    0.40
   5   4   4    9.10    0.39
   5   4   4    9.42    0.35
   5   4   4    9.62    0.31
  -6  -4  -4    6.08    0.19
  -6  -4  -4    6.36    0.29
  -6  -4  -4    6.24    0.21
  -6  -4  -4    6.35    0.25
   6   4   4    6.16    0.25
   6   4   4    6.30    0.22
   6   4   4    6.06    0.27
  -7  -4  -4    6.70    0.28
  -7  -4  -4    6.68    0.20
  -7  -4  -4    6.88    0.32
   7   4   4    6.96    0.27
   7   4   4    7.05    0.30
   7   4   4    7.05    0.24
  -8  -4  -4   14.52    0.54
   8   4   4   14.94    0.54
  -6   5   4    1.15    0.10
  -6   5   4    1.15    0.06
   5  -5  -4    1.10    0.09
  -5   5   4    1.34    0.10
  -5   5   4    1.37    0.06
   4  -5  -4    5.66    0.24
  -4   5   4    6.89    0.25
  -4   5   4    6.33    0.18
   3  -5  -4    0.41    0.05
   3  -5  -4    0.35    0.02
   3  -5  -4    0.42    0.06
  -3   5   4    0.51    0.05
  -3   5   4    0.41    0.03
   2  -5  -4    8.67    0.35
   2  -5  -4    8.05    0.21
   2  -5  -4    8.06    0.28
  -2   5   4    8.45    0.21
  -2   5   4    7.68    0.28
  -2   5   4    8.06    0.22
   1  -5  -4   16.09    0.61
   1  -5  -4   15.58    0.38
   1  -5  -4   15.18    0.49
  -1   5   4   14.73    0.38
  -1   5   4   15.23    0.39
   0  -5  -4    9.49    0.38
   0  -5  -4    9.82    0.25
   0  -5  -4    9.58    0.41
   0  -5  -4   10.09    0.32
   0  -5  -4    9.74    0.25
   0   5   4    9.54    0.25
   0   5   4    9.78    0.25
   0   5   4    9.97    0.35
  -1  -5  -4    5.55    0.26
  -1  -5  -4    5.87    0.19
  -1  -5  -4    5.41    0.24
  -1  -5  -4    5.53    0.15
  -1  -5  -4    5.63    0.16
   1   5   4    5.29    0.15
   1   5   4    6.13    0.22
   1   5   4    5.59    0.23
  -2  -5  -4   15.89    0.49
  -2  -5  -4   15.76    0.61
  -2  -5  -4   15.89    0.39
  -2  -5  -4   16.61    0.62
  -2  -5  -4   15.35    0.46
  -2  -5  -4   16.00    0.40
   2   5   4   15.26    0.60
   2   5   4   15.62    0.38
   2   5   4   15.56    0.55
  -3  -5  -4   57.66    1.61
  -3  -5  -4   57.54    1.73
  -3  -5  -4   58.28    2.15
  -3  -5  -4   61.23    2.15
  -3  -5  -4   58.57    1.41
   3   5   4   57.76    2.15
   3   5   4   57.02    1.95
  -4  -5  -4    5.39    0.24
  -4  -5  -4    5.26    0.18
  -4  -5  -4    5.16    0.17
  -4  -5  -4    5.14    0.24
   4   5   4    5.23    0.21
   4   5   4    5.20    0.23
  -5  -5  -4   26.43    1.00
  -5  -5  -4   25.76    0.91
  -5  -5  -4   25.47    0.73
  -5  -5  -4   26.54    0.79
   5   5   4   27.51    0.81
   5   5   4   25.12    0.90
  -6  -5  -4   17.29    0.68
  -6  -5  -4   17.14    0.53
  -6  -5  -4   16.74    0.61
  -6  -5  -4   16.59    0.48
   6   5   4   17.62    0.54
   6   5   4   16.97    0.61
  -7  -5  -4    9.14    0.36
  -7  -5  -4    9.04    0.41
  -7  -5  -4    9.08    0.27
  -7  -5  -4    9.33    0.30
   7   5   4    9.34    0.36
   7   5   4    9.31    0.31
  -8  -5  -4   20.22    0.73
  -8  -5  -4   19.84    0.57
   8   5   4   20.71    0.64
   8   5   4   20.44    0.72
  -6   6   4    0.26    0.03
  -6   6   4    0.42    0.07
  -5   6   4    1.40    0.10
  -5   6   4    1.37    0.06
   4  -6  -4    2.44    0.13
  -4   6   4    2.49    0.09
  -4   6   4    2.54    0.13
   3  -6  -4    2.13    0.12
   3  -6  -4    2.15    0.06
  -3   6   4    2.09    0.08
   2  -6  -4    6.26    0.17
   2  -6  -4    6.53    0.24
  -2   6   4    6.50    0.18
  -2   6   4    6.24    0.17
   1  -6  -4    9.10    0.24
   1  -6  -4    9.20    0.31
   1  -6  -4    9.43    0.40
  -1   6   4    9.35    0.24
  -1   6   4    8.90    0.24
   0  -6  -4    1.44    0.08
   0  -6  -4    1.43    0.06
   0  -6  -4    1.26    0.10
   0  -6  -4    1.40    0.06
   0   6   4    1.45    0.05
   0   6   4    1.46    0.05
  -1  -6  -4   26.08    1.03
  -1  -6  -4   26.13    1.04
  -1  -6  -4   28.36    0.67
  -1  -6  -4   27.85    0.83
  -1  -6  -4   28.05    0.68
   1   6   4   28.07    0.93
   1   6   4   27.25    0.66
  -2  -6  -4    2.48    0.10
  -2  -6  -4    2.53    0.08
  -2  -6  -4    2.49    0.14
  -2  -6  -4    2.47    0.08
  -2  -6  -4    2.30    0.10
  -2  -6  -4    2.44    0.13
   2   6   4    2.29    0.11
   2   6   4    2.53    0.13
   2   6   4    2.38    0.07
  -3  -6  -4    3.36    0.17
  -3  -6  -4    3.38    0.12
  -3  -6  -4    3.36    0.18
  -3  -6  -4    3.42    0.13
  -3  -6  -4    3.51    0.10
   3   6   4    3.23    0.16
   3   6   4    3.31    0.15
  -4  -6  -4    1.84    0.08
  -4  -6  -4    1.85    0.12
  -4  -6  -4    1.91    0.11
  -4  -6  -4    1.84    0.08
  -4  -6  -4    1.81    0.06
   4   6   4    1.84    0.10
  -5  -6  -4   36.21    1.01
  -5  -6  -4   36.37    1.37
  -5  -6  -4   36.17    1.25
  -5  -6  -4   35.94    1.09
   5   6   4   37.95    1.11
   5   6   4   34.93    1.24
  -6  -6  -4   18.60    0.54
  -6  -6  -4   18.25    0.58
  -6  -6  -4   19.00    0.68
  -6  -6  -4   18.48    0.75
   6   6   4   19.96    0.60
   6   6   4   18.82    0.67
  -7  -6  -4    9.42    0.42
  -7  -6  -4    9.32    0.28
  -7  -6  -4    8.92    0.37
  -7  -6  -4    9.24    0.31
   7   6   4    9.41    0.36
   7   6   4    9.88    0.32
  -8  -6  -4    8.08    0.27
  -8  -6  -4    7.84    0.24
   8   6   4    8.23    0.29
  -9  -6  -4   10.57    0.31
   9   6   4   11.19    0.38
  -5   7   4    0.52    0.04
  -4   7   4    0.37    0.04
   3  -7  -4    0.90    0.08
  -3   7   4    0.82    0.05
   2  -7  -4    3.70    0.11
   2  -7  -4    3.61    0.16
  -2   7   4    3.43    0.11
  -2   7   4    3.63    0.11
   1  -7  -4    8.61    0.30
   1  -7  -4    8.84    0.23
  -1   7   4    7.98    0.23
  -1   7   4    8.84    0.23
   0  -7  -4    1.46    0.06
   0  -7  -4    1.63    0.09
   0   7   4    1.60    0.06
   0   7   4    1.38    0.06
  -1  -7  -4   16.97    0.42
  -1  -7  -4   15.61    0.66
  -1  -7  -4   16.99    0.42
  -1  -7  -4   16.30    0.52
   1   7   4   16.07    0.40
  -2  -7  -4   13.75    0.50
  -2  -7  -4   14.16    0.35
  -2  -7  -4   13.97    0.36
  -2  -7  -4   13.71    0.41
  -2  -7  -4   14.01    0.44
  -2  -7  -4   13.62    0.55
  -2  -7  -4   12.82    0.56
   2   7   4   14.30    0.34
   2   7   4   13.64    0.49
  -3  -7  -4   10.69    0.40
  -3  -7  -4   10.34    0.45
  -3  -7  -4   10.92    0.28
  -3  -7  -4   11.00    0.35
  -3  -7  -4   10.65    0.33
   3   7   4   10.59    0.26
   3   7   4   10.52    0.40
  -4  -7  -4    4.46    0.16
  -4  -7  -4    4.36    0.16
  -4  -7  -4    4.18    0.22
  -4  -7  -4    4.67    0.13
  -4  -7  -4    4.55    0.20
   4   7   4    4.31    0.19
  -5  -7  -4    2.73    0.14
  -5  -7  -4    2.74    0.09
  -5  -7  -4    2.80    0.11
  -5  -7  -4    2.66    0.16
  -5  -7  -4    2.78    0.11
   5   7   4    2.60    0.14
  -6  -7  -4    5.81    0.25
  -6  -7  -4    5.93    0.21
  -6  -7  -4    5.69    0.29
  -6  -7  -4    5.94    0.19
   6   7   4    6.25    0.23
   6   7   4    5.78    0.25
  -7  -7  -4    5.61    0.18
  -7  -7  -4    5.60    0.20
   7   7   4    5.86    0.22
  -8  -7  -4    0.62    0.06
  -8  -7  -4    0.57    0.05
   8   7   4    0.61    0.06
  -9  -7  -4    7.33    0.23
  -9  -7  -4    7.54    0.26
   9   7   4    7.32    0.28
 -10  -7  -4    3.68    0.12
  -4   8   4    0.98    0.06
  -3   8   4    0.94    0.06
   2  -8  -4    1.50    0.10
   2  -8  -4    1.58    0.06
  -2   8   4    1.56    0.07
  -2   8   4    1.56    0.07
   1  -8  -4    1.82    0.10
   1  -8  -4    1.95    0.08
  -1   8   4    2.00    0.07
  -1   8   4    1.90    0.07
   0  -8  -4    1.66    0.09
   0  -8  -4    1.82    0.07
   0   8   4    1.81    0.07
  -1  -8  -4    6.13    0.18
  -1  -8  -4    6.16    0.23
  -1  -8  -4    6.45    0.18
   1   8   4    6.28    0.17
  -2  -8  -4    6.34    0.18
  -2  -8  -4    6.44    0.18
  -2  -8  -4    6.41    0.23
   2   8   4    6.57    0.17
  -3  -8  -4    4.49    0.17
  -3  -8  -4    4.72    0.17
  -3  -8  -4    4.36    0.20
  -3  -8  -4    4.53    0.14
   3   8   4    4.41    0.12
   3   8   4    4.27    0.19
  -4  -8  -4   11.16    0.44
  -4  -8  -4   11.56    0.37
  -4  -8  -4   11.86    0.36
  -4  -8  -4   12.06    0.31
   4   8   4   11.17    0.43
  -5  -8  -4   11.96    0.39
  -5  -8  -4   11.75    0.46
  -5  -8  -4   12.40    0.37
  -5  -8  -4   12.10    0.31
   5   8   4   11.80    0.45
  -6  -8  -4    6.86    0.24
  -6  -8  -4    7.01    0.23
  -6  -8  -4    7.00    0.19
  -7  -8  -4    3.35    0.14
  -7  -8  -4    3.23    0.13
   7   8   4    3.36    0.15
  -8  -8  -4    4.03    0.14
  -8  -8  -4    4.02    0.16
   8   8   4    3.90    0.17
  -9  -8  -4    3.64    0.15
  -9  -8  -4    3.54    0.13
   9   8   4    3.64    0.17
 -10  -8  -4    3.29    0.15
 -10  -8  -4    3.21    0.12
  10   8   4    3.30    0.16
 -11  -8  -4    0.31    0.03
   2  -9  -4    0.85    0.05
  -2   9   4    0.78    0.05
   1  -9  -4    1.68    0.07
   1  -9  -4    1.55    0.10
  -1   9   4    1.58    0.07
   0  -9  -4    1.28    0.06
   0  -9  -4    1.19    0.08
   0   9   4    1.11    0.06
  -1  -9  -4    1.72    0.10
  -1  -9  -4    1.79    0.08
   1   9   4    1.73    0.07
  -2  -9  -4    1.67    0.09
  -2  -9  -4    1.81    0.08
  -2  -9  -4    1.67    0.07
   2   9   4    1.80    0.06
  -3  -9  -4    2.83    0.12
  -3  -9  -4    2.91    0.10
   3   9   4    2.79    0.08
  -4  -9  -4    2.10    0.13
  -4  -9  -4    2.26    0.11
  -4  -9  -4    2.30    0.10
  -4  -9  -4    2.19    0.08
   4   9   4    2.09    0.12
  -5  -9  -4    3.15    0.11
  -5  -9  -4    3.04    0.13
  -5  -9  -4    3.17    0.13
  -6  -9  -4    5.32    0.16
  -6  -9  -4    5.29    0.19
  -6  -9  -4    5.26    0.20
  -7  -9  -4    3.98    0.16
  -7  -9  -4    4.07    0.15
  -8  -9  -4    3.97    0.16
  -8  -9  -4    4.13    0.15
   8   9   4    4.18    0.19
  -9  -9  -4    4.07    0.15
  -9  -9  -4    3.93    0.17
   9   9   4    3.88    0.18
 -10  -9  -4    4.13    0.17
 -10  -9  -4    4.26    0.15
  10   9   4    4.00    0.19
 -11  -9  -4    0.60    0.05
 -11  -9  -4    0.76    0.07
  11   9   4    0.72    0.08
   1 -10  -4    1.24    0.06
  -1  10   4    1.14    0.06
   0 -10  -4    0.62    0.05
   0 -10  -4    0.62    0.07
   0  10   4    0.63    0.04
  -1 -10  -4    1.08    0.06
  -1 -10  -4    0.99    0.08
   1  10   4    1.03    0.05
  -2 -10  -4    2.27    0.09
  -2 -10  -4    2.21    0.11
  -2 -10  -4    2.18    0.09
   2  10   4    2.20    0.08
  -3 -10  -4    1.87    0.08
  -3 -10  -4    1.82    0.08
  -3 -10  -4    1.79    0.10
   3  10   4    1.85    0.06
  -4 -10  -4    0.89    0.05
  -4 -10  -4    0.92    0.07
  -5 -10  -4    2.18    0.09
  -5 -10  -4    2.59    0.12
  -5 -10  -4    2.41    0.11
  -6 -10  -4    4.13    0.17
  -6 -10  -4    4.49    0.17
  -6 -10  -4    4.02    0.13
  -7 -10  -4    1.90    0.10
  -7 -10  -4    1.98    0.10
  -7 -10  -4    1.91    0.08
  -8 -10  -4    2.58    0.12
  -8 -10  -4    2.35    0.12
  -9 -10  -4    2.82    0.12
  -9 -10  -4    2.71    0.13
   9  10   4    2.80    0.15
 -10 -10  -4    1.38    0.08
 -10 -10  -4    1.53    0.10
  10  10   4    1.41    0.11
  -1 -11  -4    1.83    0.11
  -1 -11  -4    1.86    0.09
   1  11   4    1.76    0.07
  -2 -11  -4    2.28    0.10
  -2 -11  -4    2.21    0.12
   2  11   4    2.22    0.08
  -3 -11  -4    1.58    0.07
  -3 -11  -4    1.39    0.08
  -3 -11  -4    1.45    0.09
  -4 -11  -4    2.16    0.11
  -4 -11  -4    2.14    0.09
  -5 -11  -4    2.52    0.13
  -5 -11  -4    2.26    0.09
  -5 -11  -4    2.33    0.12
  -6 -11  -4    2.38    0.10
  -6 -11  -4    2.40    0.12
  -6 -11  -4    2.54    0.13
  -7 -11  -4    0.10    0.04
  -7 -11  -4    0.07    0.03
  -7 -11  -4    0.04    0.03
  -8 -11  -4    1.74    0.08
  -8 -11  -4    1.67    0.10
  -8 -11  -4    1.90    0.10
  -9 -11  -4    2.87    0.13
  -9 -11  -4    2.90    0.14
  -3 -12  -4    0.87    0.08
  -3 -12  -4    0.71    0.06
  -4 -12  -4    0.85    0.07
  -4 -12  -4    0.79    0.06
  -5 -12  -4    1.93    0.11
  -5 -12  -4    1.97    0.09
  -6 -12  -4    1.26    0.07
  -6 -12  -4    1.31    0.09
  -6 -12  -4    1.42    0.11
  -7 -12  -4    1.25    0.09
  -7 -12  -4    1.45    0.10
  -7 -12  -4    1.28    0.07
   8  11  -5    1.34    0.10
  -8 -11   5    1.23    0.08
  -8 -11   5    1.24    0.06
   7  11  -5    1.16    0.10
  -7 -11   5    1.17    0.06
  -7 -11   5    1.26    0.08
   6  11  -5    1.61    0.11
  -6 -11   5    1.64    0.07
  -5 -11   5    1.80    0.08
  -4 -11   5    0.84    0.06
  -4 -11   5    0.94    0.05
   3  11  -5    0.25    0.03
  -3 -11   5    0.22    0.04
   2  11  -5    1.31    0.06
  -2 -11   5    1.37    0.07
   1  11  -5    1.55    0.07
   1  11  -5    1.64    0.11
  -1 -11   5    1.45    0.07
   9  10  -5    1.52    0.12
  -9 -10   5    1.62    0.07
  -9 -10   5    1.65    0.09
   8  10  -5    1.19    0.10
  -8 -10   5    1.23    0.06
  -8 -10   5    1.21    0.08
   7  10  -5    0.98    0.09
  -7 -10   5    1.09    0.08
  -7 -10   5    0.99    0.06
   6  10  -5    0.78    0.08
  -6 -10   5    0.80    0.05
  -6 -10   5    0.85    0.07
   5  10  -5    2.89    0.14
   5  10  -5    2.58    0.14
  -5 -10   5    2.53    0.09
   4  10  -5    1.73    0.11
  -4 -10   5    1.64    0.07
   3  10  -5    1.05    0.05
   3  10  -5    1.13    0.09
  -3 -10   5    0.95    0.06
  -3 -10   5    1.07    0.06
   2  10  -5    2.10    0.12
   2  10  -5    1.92    0.07
  -2 -10   5    1.91    0.08
   1  10  -5    0.96    0.08
   1  10  -5    0.86    0.05
  -1 -10   5    0.86    0.05
   0  10  -5    1.24    0.09
   0  10  -5    1.05    0.06
   0  10  -5    1.11    0.05
   0 -10   5    1.08    0.06
  -1  10  -5    0.97    0.09
  -1  10  -5    0.90    0.05
  -1  10  -5    1.04    0.05
   1 -10   5    0.92    0.05
   9   9  -5    0.63    0.08
  -9  -9   5    0.73    0.06
   8   9  -5    2.58    0.14
   8   9  -5    2.40    0.14
  -8  -9   5    2.93    0.09
  -8  -9   5    2.73    0.12
   7   9  -5    2.24    0.13
   7   9  -5    2.17    0.13
  -7  -9   5    2.19    0.08
  -7  -9   5    2.41    0.11
   6   9  -5    2.40    0.13
   6   9  -5    2.51    0.13
  -6  -9   5    2.53    0.09
  -6  -9   5    2.62    0.11
   5   9  -5    4.99    0.21
   5   9  -5    5.00    0.21
  -5  -9   5    5.09    0.18
  -5  -9   5    4.92    0.15
   4   9  -5    5.06    0.21
  -4  -9   5    5.03    0.15
   3   9  -5    3.99    0.11
   3   9  -5    4.15    0.18
  -3  -9   5    3.77    0.12
  -3  -9   5    3.96    0.12
   2   9  -5    3.37    0.15
   2   9  -5    3.15    0.10
  -2  -9   5    3.37    0.11
  -2  -9   5    3.34    0.11
   1   9  -5    1.68    0.07
   1   9  -5    2.10    0.11
   1   9  -5    1.78    0.06
  -1  -9   5    1.79    0.07
   0   9  -5    2.40    0.07
   0   9  -5    2.38    0.09
   0   9  -5    2.61    0.13
   0  -9   5    2.34    0.08
  -1   9  -5    0.42    0.04
  -1   9  -5    0.52    0.07
  -1   9  -5    0.41    0.04
  -1   9  -5    0.47    0.03
   1  -9   5    0.45    0.03
  -2   9  -5    0.81    0.04
  -2   9  -5    0.80    0.05
  -2   9  -5    0.95    0.09
  -2   9  -5    0.87    0.05
  10   8  -5    3.31    0.18
   9   8  -5    0.12    0.04
   8   8  -5    3.35    0.17
   8   8  -5    3.28    0.17
  -8  -8   5    3.45    0.11
  -8  -8   5    3.63    0.14
   7   8  -5    3.69    0.17
   7   8  -5    3.80    0.18
  -7  -8   5    3.84    0.12
  -7  -8   5    4.09    0.15
   6   8  -5    3.12    0.15
   6   8  -5    3.26    0.15
  -6  -8   5    3.33    0.13
  -6  -8   5    3.23    0.10
   5   8  -5    2.61    0.13
   5   8  -5    2.79    0.13
  -5  -8   5    2.77    0.09
  -5  -8   5    2.75    0.12
   4   8  -5    2.95    0.14
   4   8  -5    2.68    0.13
  -4  -8   5    2.75    0.09
  -4  -8   5    2.81    0.12
   3   8  -5    4.29    0.12
   3   8  -5    4.20    0.18
  -3  -8   5    4.28    0.19
  -3  -8   5    4.24    0.13
  -3  -8   5    4.34    0.13
   2   8  -5   16.99    0.42
   2   8  -5   16.78    0.57
  -2  -8   5   17.31    0.43
  -2  -8   5   16.91    0.43
   1   8  -5    1.58    0.05
   1   8  -5    1.71    0.06
   1   8  -5    1.66    0.10
  -1  -8   5    1.57    0.07
   0   8  -5    7.63    0.20
   0   8  -5    7.59    0.21
   0   8  -5    7.40    0.28
   0   8  -5    7.62    0.18
   0  -8   5    7.28    0.20
  -1   8  -5    2.29    0.07
  -1   8  -5    2.17    0.12
  -1   8  -5    2.29    0.08
  -1   8  -5    2.32    0.08
   1  -8   5    2.25    0.07
  -2   8  -5    3.45    0.12
  -2   8  -5    3.62    0.10
  -2   8  -5    3.64    0.12
  -2   8  -5    3.50    0.17
  -3   8  -5    1.23    0.06
  -3   8  -5    1.32    0.10
  -4   8  -5    0.48    0.07
  -4   8  -5    0.42    0.04
  10   7  -5    1.17    0.10
   9   7  -5    1.93    0.12
   8   7  -5    3.55    0.17
  -8  -7   5    3.69    0.14
   7   7  -5   13.13    0.45
   7   7  -5   12.89    0.46
  -7  -7   5   13.29    0.34
  -7  -7   5   13.50    0.40
   6   7  -5    4.24    0.18
   6   7  -5    4.38    0.18
  -6  -7   5    4.27    0.15
  -6  -7   5    4.27    0.12
   5   7  -5    0.11    0.03
   5   7  -5    0.10    0.03
  -5  -7   5    0.07    0.03
  -5  -7   5    0.05    0.02
  -5  -7   5    0.10    0.02
   4   7  -5   12.88    0.43
   4   7  -5   13.27    0.45
  -4  -7   5   13.05    0.33
  -4  -7   5   13.21    0.39
  -4  -7   5   12.83    0.48
   3   7  -5    4.69    0.18
   3   7  -5    5.00    0.19
   3   7  -5    4.85    0.13
  -3  -7   5    4.65    0.20
  -3  -7   5    4.63    0.17
  -3  -7   5    4.97    0.14
  -3  -7   5    4.77    0.14
   2   7  -5    0.90    0.04
   2   7  -5    0.88    0.07
   2   7  -5    0.89    0.03
  -2  -7   5    0.84    0.05
  -2  -7   5    0.90    0.07
  -2  -7   5    0.87    0.04
  -2  -7   5    0.89    0.07
   1   7  -5    1.19    0.08
   1   7  -5    1.14    0.04
   1   7  -5    1.13    0.05
  -1  -7   5    1.13    0.09
  -1  -7   5    1.13    0.05
  -1  -7   5    1.13    0.05
   0   7  -5   18.94    0.45
   0   7  -5   18.16    0.60
   0   7  -5   18.56    0.46
   0   7  -5   18.04    0.39
   0  -7   5   16.89    0.70
   0  -7   5   17.99    0.45
  -1   7  -5    6.52    0.18
  -1   7  -5    6.31    0.25
  -1   7  -5    6.38    0.18
  -1   7  -5    6.61    0.15
   1  -7   5    6.43    0.17
  -2   7  -5    0.74    0.04
  -2   7  -5    0.76    0.07
   2  -7   5    0.78    0.03
  -3   7  -5    5.08    0.15
  -3   7  -5    5.21    0.22
  -4   7  -5    3.16    0.16
  -4   7  -5    3.10    0.11
  -5   7  -5    1.97    0.08
  -5   7  -5    1.92    0.13
  10   6  -5    1.91    0.13
   9   6  -5    3.41    0.17
   8   6  -5    0.80    0.08
   7   6  -5    8.53    0.32
   7   6  -5    8.46    0.32
  -7  -6   5    8.96    0.27
   6   6  -5    5.01    0.20
   6   6  -5    4.83    0.20
  -6  -6   5    5.00    0.17
  -6  -6   5    4.96    0.22
  -6  -6   5    5.10    0.14
   5   6  -5    7.70    0.29
   5   6  -5    7.87    0.28
  -5  -6   5    8.20    0.21
  -5  -6   5    7.89    0.31
  -5  -6   5    7.97    0.25
   4   6  -5   21.97    0.69
   4   6  -5   22.18    0.72
  -4  -6   5   22.02    0.77
  -4  -6   5   21.76    0.63
  -4  -6   5   22.34    0.55
   3   6  -5    5.52    0.15
   3   6  -5    5.56    0.21
   3   6  -5    5.38    0.20
  -3  -6   5    5.53    0.15
  -3  -6   5    5.62    0.15
  -3  -6   5    5.44    0.18
  -3  -6   5    5.58    0.23
   2   6  -5    5.71    0.15
   2   6  -5    5.71    0.21
   2   6  -5    5.71    0.13
   2   6  -5    5.63    0.20
  -2  -6   5    5.79    0.24
  -2  -6   5    5.78    0.16
  -2  -6   5    5.59    0.23
  -2  -6   5    5.64    0.16
   1   6  -5   29.07    0.92
   1   6  -5   28.63    0.62
   1   6  -5   29.05    0.70
   1   6  -5   29.01    0.71
  -1  -6   5   28.81    0.71
  -1  -6   5   29.46    0.70
  -1  -6   5   29.27    0.99
  -1  -6   5   28.54    1.08
   0   6  -5    2.92    0.09
   0   6  -5    3.04    0.13
   0   6  -5    3.02    0.09
   0   6  -5    2.95    0.08
   0  -6   5    2.93    0.09
   0  -6   5    2.98    0.15
  -1   6  -5    1.05    0.08
  -1   6  -5    0.84    0.03
  -1   6  -5    0.85    0.04
  -1   6  -5    0.84    0.06
  -1   6  -5    0.85    0.04
   1  -6   5    0.82    0.04
   1  -6   5    0.71    0.07
  -2   6  -5    2.11    0.11
  -2   6  -5    2.24    0.08
  -2   6  -5    2.19    0.13
   2  -6   5    2.11    0.06
  -3   6  -5    9.57    0.31
  -3   6  -5    9.33    0.34
  -3   6  -5    9.41    0.25
  -4   6  -5    0.17    0.04
  -4   6  -5    0.29    0.05
  -4   6  -5    0.16    0.02
  -5   6  -5    1.31    0.09
  -5   6  -5    1.37    0.06
  -5   6  -5    1.28    0.10
  -6   6  -5    1.21    0.10
  -6   6  -5    1.00    0.06
  -6   6  -5    1.07    0.09
  10   5  -5    1.25    0.10
   9   5  -5    2.06    0.13
   8   5  -5    1.98    0.12
   7   5  -5    9.72    0.35
   6   5  -5    3.18    0.15
   6   5  -5    3.42    0.15
  -6  -5   5    3.46    0.10
  -6  -5   5    3.33    0.16
   5   5  -5   12.59    0.42
   5   5  -5   11.99    0.43
  -5  -5   5   12.51    0.37
  -5  -5   5   12.84    0.47
  -5  -5   5   13.33    0.32
   4   5  -5   25.43    0.78
   4   5  -5   25.02    0.81
  -4  -5   5   25.11    0.87
  -4  -5   5   25.07    0.62
  -4  -5   5   25.22    0.71
   3   5  -5   14.84    0.51
   3   5  -5   15.47    0.37
   3   5  -5   15.33    0.49
  -3  -5   5   15.39    0.39
  -3  -5   5   16.11    0.38
  -3  -5   5   15.45    0.55
  -3  -5   5   15.06    0.45
   2   5  -5   15.89    0.34
   2   5  -5   15.66    0.50
   2   5  -5   15.50    0.52
   2   5  -5   15.88    0.39
  -2  -5   5   15.77    0.46
  -2  -5   5   15.93    0.40
  -2  -5   5   16.41    0.39
  -2  -5   5   15.92    0.56
  -2  -5   5   16.05    0.60
   1   5  -5   19.46    0.64
   1   5  -5   19.58    0.43
   1   5  -5   20.09    0.49
   1   5  -5   19.72    0.48
  -1  -5   5   20.07    0.49
  -1  -5   5   20.19    0.69
  -1  -5   5   20.52    0.48
  -1  -5   5   18.96    0.74
   0   5  -5   12.87    0.44
   0   5  -5   13.11    0.33
   0   5  -5   13.40    0.34
   0   5  -5   12.85    0.29
   0  -5   5   13.34    0.33
   0  -5   5   13.31    0.33
   0  -5   5   13.05    0.51
   0  -5   5   13.85    0.47
  -1   5  -5   10.06    0.26
  -1   5  -5   10.42    0.38
  -1   5  -5   10.03    0.35
  -1   5  -5   10.35    0.32
  -1   5  -5   10.55    0.26
  -1   5  -5   10.09    0.23
   1  -5   5   10.18    0.25
   1  -5   5    9.66    0.41
  -2   5  -5    3.30    0.10
  -2   5  -5    3.32    0.13
  -2   5  -5    3.45    0.16
  -2   5  -5    3.19    0.14
   2  -5   5    3.13    0.17
   2  -5   5    3.42    0.09
  -3   5  -5    5.04    0.14
  -3   5  -5    5.15    0.21
  -3   5  -5    5.06    0.22
  -3   5  -5    4.99    0.18
  -4   5  -5    4.11    0.12
  -4   5  -5    4.18    0.16
  -4   5  -5    4.18    0.18
  -5   5  -5    2.02    0.07
  -5   5  -5    2.09    0.12
  -5   5  -5    2.12    0.11
  -6   5  -5    0.62    0.04
  -6   5  -5    0.67    0.07
  -6   5  -5    0.69    0.08
  -7   5  -5    3.37    0.18
  -7   5  -5    3.19    0.11
  -7   5  -5    3.27    0.15
  10   4  -5    1.01    0.09
   9   4  -5    2.20    0.13
   8   4  -5    5.80    0.24
   7   4  -5    9.86    0.35
  -7  -4   5    9.78    0.38
   6   4  -5    1.47    0.09
   6   4  -5    1.27    0.08
  -6  -4   5    1.19    0.08
   5   4  -5    3.12    0.14
   5   4  -5    3.17    0.14
  -5  -4   5    3.15    0.09
  -5  -4   5    3.29    0.16
  -5  -4   5    3.18    0.15
   4   4  -5   46.16    1.49
   4   4  -5   47.25    1.43
  -4  -4   5   46.04    1.32
  -4  -4   5   49.10    1.77
  -4  -4   5   48.35    1.15
  -4  -4   5   48.23    1.60
   3   4  -5    3.08    0.12
   3   4  -5    2.95    0.13
   3   4  -5    2.97    0.08
  -3  -4   5    3.16    0.09
  -3  -4   5    3.21    0.16
  -3  -4   5    2.88    0.11
  -3  -4   5    3.23    0.14
  -3  -4   5    3.16    0.09
   2   4  -5    9.17    0.23
   2   4  -5    9.26    0.32
   2   4  -5    9.07    0.30
  -2  -4   5    9.50    0.24
  -2  -4   5    9.34    0.38
  -2  -4   5    9.11    0.35
  -2  -4   5    9.46    0.23
  -2  -4   5    9.37    0.34
   1   4  -5    9.94    0.34
   1   4  -5   10.36    0.26
   1   4  -5   10.39    0.26
   1   4  -5   10.09    0.32
   1   4  -5   10.23    0.23
  -1  -4   5   10.25    0.40
  -1  -4   5   10.43    0.26
  -1  -4   5   10.20    0.41
  -1  -4   5   10.58    0.37
  -1  -4   5   10.33    0.26
   0   4  -5   52.05    1.24
   0   4  -5   50.30    1.08
   0   4  -5   50.08    1.59
   0   4  -5   51.01    1.21
   0  -4   5   50.60    1.21
   0  -4   5   51.45    1.24
   0  -4   5   50.07    1.86
   0  -4   5   53.20    1.71
   0  -4   5   51.15    1.88
  -1   4  -5    7.97    0.18
  -1   4  -5    8.28    0.26
  -1   4  -5    8.09    0.21
  -1   4  -5    7.88    0.28
  -1   4  -5    8.35    0.21
   1  -4   5    8.92    0.30
   1  -4   5    7.94    0.33
   1  -4   5    8.25    0.33
   1  -4   5    8.17    0.21
  -2   4  -5    2.22    0.11
  -2   4  -5    2.30    0.10
  -2   4  -5    2.32    0.12
  -2   4  -5    2.41    0.07
   2  -4   5    2.35    0.07
   2  -4   5    2.33    0.12
   2  -4   5    2.31    0.13
  -3   4  -5   10.22    0.26
  -3   4  -5    9.97    0.31
  -3   4  -5   10.12    0.37
  -3   4  -5   10.07    0.35
   3  -4   5    9.80    0.41
  -4   4  -5    7.56    0.29
  -4   4  -5    7.41    0.28
  -4   4  -5    7.49    0.20
  -4   4  -5    7.42    0.25
  -5   4  -5    2.18    0.08
  -5   4  -5    2.36    0.13
  -5   4  -5    2.35    0.11
  -6   4  -5    2.29    0.11
  -6   4  -5    2.44    0.14
  -6   4  -5    2.38    0.08
  -7   4  -5    3.12    0.14
  -7   4  -5    3.50    0.17
  -7   4  -5    3.10    0.10
  10   3  -5    1.27    0.11
   9   3  -5    2.74    0.15
   8   3  -5    3.10    0.16
   7   3  -5   20.79    0.67
  -7  -3   5   20.33    0.73
   6   3  -5   12.73    0.43
  -6  -3   5   12.65    0.46
   5   3  -5   14.20    0.46
   5   3  -5   14.03    0.48
  -5  -3   5   14.04    0.51
  -5  -3   5   14.23    0.35
  -5  -3   5   14.43    0.56
   4   3  -5   20.10    0.67
   4   3  -5   20.69    0.64
  -4  -3   5   20.26    0.51
  -4  -3   5   21.36    0.79
  -4  -3   5   20.53    0.72
   3   3  -5   11.73    0.39
   3   3  -5   11.79    0.38
   3   3  -5   11.18    0.29
  -3  -3   5   12.09    0.43
  -3  -3   5   11.89    0.30
  -3  -3   5   12.47    0.47
   2   3  -5   13.07    0.40
   2   3  -5   12.70    0.31
   2   3  -5   12.20    0.42
   2   3  -5   11.81    0.47
  -2  -3   5   12.89    0.47
  -2  -3   5   12.94    0.45
  -2  -3   5   12.54    0.50
  -2  -3   5   13.46    0.31
  -2  -3   5   13.01    0.32
   1   3  -5    6.51    0.23
   1   3  -5    6.80    0.17
   1   3  -5    6.59    0.15
   1   3  -5    6.57    0.18
   1   3  -5    6.69    0.22
  -1  -3   5    7.18    0.28
  -1  -3   5    6.50    0.26
  -1  -3   5    6.91    0.25
  -1  -3   5    6.83    0.17
  -1  -3   5    6.82    0.17
   0   3  -5    9.55    0.21
   0   3  -5    9.78    0.25
   0   3  -5    9.80    0.24
   0   3  -5    9.54    0.32
   0  -3   5    9.70    0.25
   0  -3   5   10.19    0.35
   0  -3   5    9.77    0.24
   0  -3   5   10.06    0.39
   0  -3   5    9.56    0.38
  -1   3  -5   17.93    0.40
  -1   3  -5   17.89    0.45
  -1   3  -5   17.90    0.59
  -1   3  -5   18.86    0.46
   1  -3   5   19.33    0.63
   1  -3   5   19.27    0.70
   1  -3   5   18.25    0.70
   1  -3   5   18.51    0.45
  -2   3  -5   11.92    0.35
  -2   3  -5   11.75    0.39
  -2   3  -5   12.11    0.30
   2  -3   5   11.72    0.28
   2  -3   5   11.50    0.46
   2  -3   5   11.96    0.41
   2  -3   5   11.50    0.46
  -3   3  -5   21.47    0.52
  -3   3  -5   20.89    0.72
  -3   3  -5   21.94    0.69
  -3   3  -5   20.80    0.61
   3  -3   5   21.45    0.81
   3  -3   5   20.27    0.80
  -4   3  -5   14.00    0.48
  -4   3  -5   14.19    0.42
  -4   3  -5   14.52    0.50
  -4   3  -5   14.74    0.35
   4  -3   5   12.86    0.56
   4  -3   5   14.19    0.56
  -5   3  -5    2.91    0.14
  -5   3  -5    2.83    0.09
  -5   3  -5    2.84    0.12
  -6   3  -5    1.62    0.10
  -6   3  -5    1.58    0.08
  -6   3  -5    1.49    0.06
  -7   3  -5    3.05    0.16
  -7   3  -5    3.09    0.13
  -8   3  -5    0.43    0.05
  -8   3  -5    0.41    0.07
  10   2  -5    0.19    0.05
   9   2  -5    1.69    0.12
   8   2  -5    1.21    0.09
   7   2  -5    6.86    0.27
   6   2  -5    1.82    0.10
  -6  -2   5    1.76    0.10
   5   2  -5    6.80    0.25
  -5  -2   5    6.63    0.26
  -5  -2   5    6.92    0.18
   4   2  -5   59.23    1.81
   4   2  -5   60.53    1.88
  -4  -2   5   59.77    2.02
  -4  -2   5   60.56    2.22
  -4  -2   5   62.03    1.46
   3   2  -5   40.49    1.28
   3   2  -5   39.26    0.96
   3   2  -5   41.73    1.23
  -3  -2   5   40.99    0.99
  -3  -2   5   41.48    1.51
  -3  -2   5   40.73    1.37
   2   2  -5   49.09    1.57
   2   2  -5   50.98    1.82
   2   2  -5   51.54    1.51
   2   2  -5   51.15    1.82
   2   2  -5   50.06    1.20
  -2  -2   5   50.36    1.69
  -2  -2   5   51.10    1.22
  -2  -2   5   50.68    1.81
  -2  -2   5   49.33    1.85
   1   2  -5   23.64    0.82
   1   2  -5   22.20    0.68
   1   2  -5   21.24    0.71
   1   2  -5   22.41    0.82
   1   2  -5   22.47    0.54
  -1  -2   5   22.55    0.82
  -1  -2   5   22.27    0.76
  -1  -2   5   22.77    0.54
  -1  -2   5   20.96    0.83
  -1  -2   5   22.44    0.55
   0   2  -5   85.49    1.85
   0   2  -5   84.75    2.72
   0   2  -5   91.14    2.09
   0   2  -5   89.02    2.13
   0  -2   5   83.86    3.22
   0  -2   5   87.98    3.19
   0  -2   5   92.63    2.92
   0  -2   5   90.83    2.09
  -1   2  -5   44.96    1.40
  -1   2  -5   45.83    1.09
  -1   2  -5   43.98    0.95
   1  -2   5   46.66    1.07
   1  -2   5   44.34    1.66
   1  -2   5   47.78    1.51
   1  -2   5   42.72    1.65
  -2   2  -5    1.41    0.05
  -2   2  -5    1.42    0.06
  -2   2  -5    1.27    0.07
   2  -2   5    1.45    0.08
   2  -2   5    1.42    0.07
   2  -2   5    1.34    0.04
   2  -2   5    1.35    0.08
  -3   2  -5    8.51    0.26
  -3   2  -5    8.58    0.29
  -3   2  -5    8.70    0.22
   3  -2   5    8.36    0.35
   3  -2   5    8.22    0.35
   3  -2   5    8.74    0.30
  -4   2  -5   16.06    0.52
  -4   2  -5   16.09    0.55
  -4   2  -5   16.03    0.46
  -4   2  -5   16.18    0.39
   4  -2   5   15.48    0.62
   4  -2   5   15.28    0.62
  -5   2  -5    7.31    0.27
  -5   2  -5    7.21    0.27
  -5   2  -5    7.29    0.23
   5  -2   5    6.80    0.31
  -6   2  -5    3.29    0.15
  -6   2  -5    3.41    0.13
  -7   2  -5    4.19    0.15
  -7   2  -5    3.83    0.18
  -8   2  -5    0.99    0.09
  -8   2  -5    0.96    0.07
  -9   2  -5    1.79    0.09
  -9   2  -5    1.63    0.12
   9   1  -5    3.36    0.17
   8   1  -5    1.32    0.10
   7   1  -5    0.21    0.05
   6   1  -5   28.47    0.90
   5   1  -5    5.39    0.21
  -5  -1   5    5.47    0.14
  -5  -1   5    5.51    0.22
   4   1  -5   14.42    0.46
  -4  -1   5   14.15    0.54
  -4  -1   5   14.33    0.50
  -4  -1   5   13.86    0.35
   3   1  -5    0.04    0.02
   3   1  -5    0.06    0.01
  -3  -1   5    0.10    0.02
  -3  -1   5    0.03    0.02
  -3  -1   5    0.02    0.01
   2   1  -5  122.59    3.83
   2   1  -5  125.96    2.93
   2   1  -5  103.06    4.46
   2   1  -5  126.36    3.67
   2   1  -5  130.44    4.52
  -2  -1   5  123.32    4.52
  -2  -1   5  128.79    2.99
  -2  -1   5  131.26    4.10
   1   1  -5   35.32    1.38
   1   1  -5   39.84    1.36
   1   1  -5   36.37    1.16
   1   1  -5   36.95    1.35
   1   1  -5   39.64    1.12
   1   1  -5   37.26    0.89
  -1  -1   5   38.46    1.25
  -1  -1   5   37.04    0.89
  -1  -1   5   37.65    1.35
  -1  -1   5   37.33    0.90
  -1  -1   5   34.74    1.37
   0   1  -5   24.05    0.59
   0   1  -5   25.32    0.89
   0   1  -5   24.33    0.91
   0   1  -5   23.32    0.58
   0  -1   5   24.96    0.82
   0  -1   5   22.77    0.90
   0  -1   5   24.93    0.89
   0  -1   5   23.83    0.58
  -1   1  -5    6.18    0.16
  -1   1  -5    6.12    0.21
  -1   1  -5    6.63    0.26
   1  -1   5    6.19    0.16
   1  -1   5    5.97    0.26
   1  -1   5    6.73    0.25
   1  -1   5    6.44    0.23
  -2   1  -5   53.23    1.87
  -2   1  -5   50.50    1.58
  -2   1  -5   51.96    1.23
   2  -1   5   48.52    1.20
   2  -1   5   50.45    1.85
   2  -1   5   52.77    1.69
   2  -1   5   48.53    1.87
  -3   1  -5   27.68    0.66
  -3   1  -5   26.32    0.76
  -3   1  -5   27.89    1.02
  -3   1  -5   27.08    0.85
   3  -1   5   27.62    0.91
   3  -1   5   26.59    1.02
   3  -1   5   26.06    1.01
  -4   1  -5    8.59    0.26
  -4   1  -5    8.82    0.30
  -4   1  -5    8.90    0.37
   4  -1   5    9.07    0.31
   4  -1   5    8.58    0.36
   4  -1   5    8.28    0.36
  -5   1  -5    0.18    0.04
  -5   1  -5    0.06    0.03
  -5   1  -5    0.11    0.02
  -5   1  -5    0.08    0.02
   5  -1   5    0.10    0.03
   5  -1   5    0.13    0.04
  -6   1  -5   13.16    0.45
  -6   1  -5   13.18    0.39
  -6   1  -5   12.75    0.45
  -7   1  -5   10.80    0.39
  -7   1  -5   11.04    0.33
  -8   1  -5    1.38    0.08
  -8   1  -5    1.32    0.10
  -9   1  -5    2.15    0.13
  -9   1  -5    2.03    0.10
   9   0  -5    1.85    0.12
   8   0  -5    0.93    0.09
   7   0  -5    1.66    0.11
   6   0  -5   28.42    0.92
  -6   0   5   29.88    0.71
   5   0  -5    1.36    0.09
  -5   0   5    1.48    0.08
  -5   0   5    1.50    0.05
   4   0  -5    6.65    0.24
  -4   0   5    6.63    0.25
  -4   0   5    6.45    0.17
   3   0  -5   38.27    0.93
   3   0  -5   39.65    1.43
   3   0  -5   36.16    1.45
   3   0  -5   42.16    1.20
  -3   0   5   41.48    0.96
  -3   0   5   40.90    1.33
  -3   0   5   38.25    1.45
   2   0  -5   34.33    0.81
   2   0  -5   35.24    1.23
   2   0  -5   35.10    1.24
   2   0  -5   34.37    1.03
  -2   0   5   32.97    1.25
  -2   0   5   33.10    1.14
  -2   0   5   33.84    1.24
  -2   0   5   33.26    0.83
   1   0  -5   31.92    0.94
   1   0  -5   32.54    1.14
   1   0  -5   30.98    1.16
   1   0  -5   32.12    1.13
   1   0  -5   30.47    0.75
  -1   0   5   30.54    1.15
  -1   0   5   30.61    0.75
  -1   0   5   30.51    1.05
  -1   0   5   32.20    1.14
  -1   0   5   31.18    0.76
   0   0  -5   29.17    0.70
   0   0  -5   28.27    1.07
   0   0  -5   31.31    1.09
   0   0  -5   29.68    0.88
   0   0  -5   30.11    1.08
   0   0  -5   28.96    0.72
   0   0   5   29.35    1.07
   0   0   5   29.65    1.08
   0   0   5   28.44    0.99
   0   0   5   28.63    1.08
   0   0   5   29.04    0.70
  -1   0  -5    8.23    0.32
  -1   0  -5    8.01    0.20
  -1   0  -5    8.09    0.31
   1   0   5    7.87    0.31
   1   0   5    7.56    0.31
   1   0   5    7.83    0.19
   1   0   5    7.81    0.28
  -2   0  -5  104.68    2.52
  -2   0  -5  103.11    4.40
   2   0   5  106.54    3.46
   2   0   5  100.04    2.45
   2   0   5  103.07    3.82
   2   0   5  108.52    3.85
  -3   0  -5    9.95    0.32
  -3   0  -5    9.59    0.29
  -3   0  -5    9.87    0.40
   3   0   5    9.72    0.39
   3   0   5   10.06    0.35
   3   0   5    9.34    0.38
  -4   0  -5    4.54    0.15
  -4   0  -5    4.51    0.17
  -4   0  -5    4.63    0.22
   4   0   5    4.92    0.21
   4   0   5    4.68    0.18
   4   0   5    4.12    0.20
  -5   0  -5   12.08    0.35
  -5   0  -5   12.08    0.40
  -5   0  -5   12.00    0.49
  -5   0  -5   11.44    0.41
   5   0   5   12.22    0.48
   5   0   5   11.30    0.48
   5   0   5   12.43    0.42
  -6   0  -5   11.49    0.48
  -6   0  -5   10.94    0.39
  -6   0  -5   11.54    0.34
  -6   0  -5   11.81    0.39
   6   0   5   10.93    0.46
  -7   0  -5    6.69    0.21
  -7   0  -5    6.27    0.25
  -8   0  -5    0.33    0.05
  -8   0  -5    0.30    0.03
  -9   0  -5    5.18    0.18
  -9   0  -5    5.22    0.22
 -10   0  -5    1.32    0.11
 -10   0  -5    1.26    0.07
   9  -1  -5    0.53    0.08
   8  -1  -5    1.31    0.10
   7  -1  -5    4.84    0.22
  -7   1   5    5.77    0.15
   6  -1  -5    3.10    0.15
  -6   1   5    3.17    0.09
   5  -1  -5    7.52    0.29
  -5   1   5    8.27    0.21
   4  -1  -5   17.70    0.57
  -4   1   5   17.37    0.61
  -4   1   5   18.13    0.44
   3  -1  -5   30.53    0.92
   3  -1  -5   30.12    1.10
   3  -1  -5   29.36    0.71
  -3   1   5   30.57    0.73
  -3   1   5   29.50    1.01
   2  -1  -5    4.33    0.15
   2  -1  -5    3.95    0.11
   2  -1  -5    3.47    0.17
   2  -1  -5    4.16    0.17
  -2   1   5    3.95    0.16
  -2   1   5    4.09    0.16
  -2   1   5    3.88    0.11
  -2   1   5    4.06    0.17
  -2   1   5    3.91    0.11
   1  -1  -5   14.57    0.44
   1  -1  -5   14.17    0.51
   1  -1  -5   13.60    0.34
   1  -1  -5   14.46    0.53
   1  -1  -5   14.04    0.52
  -1   1   5   14.02    0.34
  -1   1   5   13.68    0.52
  -1   1   5   13.57    0.34
  -1   1   5   13.27    0.48
  -1   1   5   13.51    0.52
   0  -1  -5   57.63    1.69
   0  -1  -5   58.56    2.08
   0  -1  -5   56.68    1.35
   0  -1  -5   56.96    1.38
   0  -1  -5   57.16    2.07
   0   1   5   54.87    2.08
   0   1   5   57.56    1.35
   0   1   5   56.18    1.89
  -1  -1  -5   89.91    2.60
  -1  -1  -5   92.41    3.22
  -1  -1  -5   88.57    3.21
  -1  -1  -5   87.37    2.14
  -1  -1  -5   85.25    2.13
   1   1   5   89.39    3.18
   1   1   5   84.66    3.22
   1   1   5   87.82    2.08
   1   1   5   87.46    2.91
  -2  -1  -5   57.63    2.02
   2   1   5   56.51    2.01
   2   1   5   53.19    1.30
   2   1   5   55.49    1.84
   2   1   5   53.52    2.03
  -3  -1  -5   23.39    0.67
  -3  -1  -5   24.15    0.90
   3   1   5   23.94    0.90
   3   1   5   23.91    0.89
   3   1   5   24.05    0.81
  -4  -1  -5   37.62    1.07
  -4  -1  -5   39.95    1.20
  -4  -1  -5   39.32    1.44
   4   1   5   35.78    1.42
   4   1   5   39.57    1.30
   4   1   5   39.71    1.44
  -5  -1  -5  114.19    4.29
  -5  -1  -5  118.73    3.63
  -5  -1  -5  119.60    3.25
   5   1   5  113.24    4.28
   5   1   5  123.40    4.32
   5   1   5  119.66    3.91
  -6  -1  -5    1.93    0.08
  -6  -1  -5    2.09    0.10
  -6  -1  -5    1.98    0.08
  -6  -1  -5    2.01    0.13
   6   1   5    2.05    0.12
   6   1   5    2.08    0.10
  -7  -1  -5    7.79    0.24
  -7  -1  -5    7.99    0.28
  -8  -1  -5    3.36    0.12
  -8  -1  -5    3.42    0.15
  -9  -1  -5    2.26    0.12
  -9  -1  -5    2.15    0.09
 -10  -1  -5    0.02    0.04
 -10  -1  -5    0.01    0.02
   8  -2  -5    0.06    0.04
  -8   2   5    0.11    0.05
  -8   2   5    0.08    0.02
  -7   2   5    0.55    0.04
   6  -2  -5    1.91    0.12
  -6   2   5    2.26    0.07
   5  -2  -5    2.84    0.14
  -5   2   5    3.25    0.09
   4  -2  -5    2.89    0.14
  -4   2   5    3.22    0.09
   3  -2  -5   17.32    0.42
   3  -2  -5   16.92    0.66
   3  -2  -5   18.50    0.56
  -3   2   5   17.63    0.60
  -3   2   5   17.32    0.43
   2  -2  -5   49.16    1.24
   2  -2  -5   53.90    1.90
   2  -2  -5   54.66    1.57
  -2   2   5   51.56    1.90
  -2   2   5   50.70    1.73
  -2   2   5   52.71    1.24
   1  -2  -5   25.30    0.61
   1  -2  -5   25.35    0.77
   1  -2  -5   25.95    0.94
   1  -2  -5   24.59    0.61
   1  -2  -5   26.53    0.93
  -1   2   5   25.67    0.85
  -1   2   5   24.38    0.62
  -1   2   5   25.41    0.61
  -1   2   5   24.06    0.93
   0  -2  -5   34.07    1.00
   0  -2  -5   33.59    0.82
   0  -2  -5   34.30    1.23
   0  -2  -5   33.34    0.80
   0  -2  -5   33.87    1.23
   0   2   5   34.24    1.12
   0   2   5   33.42    0.80
   0   2   5   32.28    0.81
   0   2   5   31.60    1.23
  -1  -2  -5   57.64    2.01
  -1  -2  -5   53.60    2.01
  -1  -2  -5   55.52    1.63
  -1  -2  -5   54.79    1.33
   1   2   5   56.45    1.83
   1   2   5   54.65    1.30
   1   2   5   53.01    2.02
  -2  -2  -5    9.60    0.39
  -2  -2  -5    9.83    0.24
  -2  -2  -5    9.37    0.30
   2   2   5   10.02    0.35
   2   2   5    9.29    0.38
   2   2   5    9.53    0.23
  -3  -2  -5   28.54    1.06
  -3  -2  -5   28.30    0.84
  -3  -2  -5   28.18    0.79
   3   2   5   29.77    0.96
   3   2   5   27.85    1.05
   3   2   5   27.37    1.06
  -4  -2  -5   16.18    0.46
  -4  -2  -5   15.97    0.63
  -4  -2  -5   15.81    0.49
  -4  -2  -5   16.75    0.64
   4   2   5   16.30    0.63
   4   2   5   15.87    0.62
   4   2   5   16.27    0.56
  -5  -2  -5   41.40    1.27
  -5  -2  -5   40.67    1.52
  -5  -2  -5   40.26    1.52
  -5  -2  -5   41.05    1.13
   5   2   5   40.71    1.37
   5   2   5   39.37    1.50
   5   2   5   41.51    1.52
  -7  -2  -5   26.72    0.97
  -7  -2  -5   28.77    0.89
  -7  -2  -5   28.64    0.79
  -8  -2  -5   12.96    0.38
  -9  -2  -5    0.98    0.06
 -10  -2  -5    2.62    0.10
  -8   3   5    0.85    0.09
   7  -3  -5    1.31    0.10
  -7   3   5    1.98    0.12
  -7   3   5    1.72    0.07
   6  -3  -5    1.78    0.11
  -6   3   5    2.01    0.07
   5  -3  -5    2.12    0.12
  -5   3   5    2.33    0.08
   4  -3  -5    4.65    0.19
  -4   3   5    4.83    0.13
   3  -3  -5   10.33    0.35
   3  -3  -5   10.07    0.25
   3  -3  -5   10.28    0.41
  -3   3   5   10.02    0.26
   2  -3  -5   20.11    0.61
   2  -3  -5   19.85    0.74
   2  -3  -5   18.55    0.47
  -2   3   5   19.32    0.47
  -2   3   5   19.06    0.48
  -2   3   5   19.67    0.66
   1  -3  -5    4.90    0.17
   1  -3  -5    4.62    0.13
   1  -3  -5    4.62    0.21
   1  -3  -5    4.54    0.13
   1  -3  -5    4.59    0.18
   1  -3  -5    4.49    0.19
  -1   3   5    4.45    0.18
  -1   3   5    4.42    0.12
  -1   3   5    4.67    0.12
  -1   3   5    4.68    0.19
   0  -3  -5   33.70    1.00
   0  -3  -5   32.30    1.22
   0  -3  -5   33.72    0.80
   0  -3  -5   34.18    1.21
   0  -3  -5   32.75    0.81
   0  -3  -5   32.88    1.23
   0   3   5   32.68    1.22
   0   3   5   32.84    1.11
   0   3   5   33.56    0.79
   0   3   5   31.89    0.80
  -1  -3  -5   74.08    2.28
  -1  -3  -5   73.85    2.55
  -1  -3  -5   68.90    2.55
  -1  -3  -5   69.03    1.66
  -1  -3  -5   68.80    2.56
  -1  -3  -5   67.22    2.07
  -1  -3  -5   68.27    1.69
   1   3   5   71.00    2.32
   1   3   5   70.47    1.65
   1   3   5   68.40    2.56
  -2  -3  -5   39.88    1.53
  -2  -3  -5   42.32    1.54
  -2  -3  -5   40.84    1.23
  -2  -3  -5   41.71    1.01
  -2  -3  -5   44.19    1.36
   2   3   5   39.71    0.98
   2   3   5   41.89    1.39
   2   3   5   40.37    1.53
  -3  -3  -5    0.91    0.06
  -3  -3  -5    0.99    0.07
  -3  -3  -5    0.92    0.04
  -3  -3  -5    1.04    0.08
  -3  -3  -5    0.86    0.05
   3   3   5    0.98    0.06
   3   3   5    0.98    0.07
  -4  -3  -5   10.97    0.34
  -4  -3  -5   10.86    0.32
  -4  -3  -5   11.08    0.38
  -4  -3  -5   10.99    0.45
  -4  -3  -5   11.50    0.45
   4   3   5   10.86    0.40
   4   3   5   10.59    0.44
   4   3   5   10.90    0.43
  -5  -3  -5   37.38    1.41
  -5  -3  -5   38.16    1.12
  -5  -3  -5   38.39    1.41
  -5  -3  -5   37.57    1.04
   5   3   5   36.63    1.39
   5   3   5   37.03    1.40
   5   3   5   37.13    1.27
  -6  -3  -5    3.00    0.10
  -6  -3  -5    2.98    0.17
   6   3   5    3.04    0.14
   6   3   5    2.98    0.15
  -7  -3  -5    0.64    0.04
  -7  -3  -5    0.64    0.06
  -7  -3  -5    0.62    0.08
   7   3   5    0.59    0.06
   7   3   5    0.71    0.07
  -8  -3  -5    9.66    0.29
  -7   4   5    1.07    0.09
  -7   4   5    0.83    0.05
   6  -4  -5    1.57    0.11
  -6   4   5    1.85    0.07
  -6   4   5    2.10    0.12
   5  -4  -5    3.87    0.18
  -5   4   5    4.55    0.19
  -5   4   5    4.24    0.13
   4  -4  -5    1.72    0.10
  -4   4   5    1.89    0.07
   3  -4  -5    7.45    0.31
   3  -4  -5    6.97    0.26
   3  -4  -5    7.68    0.19
  -3   4   5    7.00    0.19
   2  -4  -5   20.60    0.78
   2  -4  -5   20.26    0.64
   2  -4  -5   19.57    0.49
  -2   4   5   20.56    0.49
  -2   4   5   19.83    0.50
   1  -4  -5    9.52    0.39
   1  -4  -5    9.40    0.25
   1  -4  -5    9.42    0.24
   1  -4  -5    9.73    0.32
  -1   4   5    9.89    0.34
  -1   4   5    9.34    0.24
  -1   4   5    9.41    0.24
   0  -4  -5   12.00    0.45
   0  -4  -5   12.08    0.30
   0  -4  -5   11.55    0.46
   0  -4  -5   11.97    0.48
   0  -4  -5   11.62    0.30
   0  -4  -5   11.41    0.38
   0   4   5   11.77    0.29
   0   4   5   11.99    0.42
   0   4   5   11.73    0.45
   0   4   5   11.83    0.30
  -1  -4  -5   41.65    1.56
  -1  -4  -5   44.26    1.55
  -1  -4  -5   42.40    1.26
  -1  -4  -5   40.47    1.56
  -1  -4  -5   43.38    1.01
  -1  -4  -5   42.62    1.03
   1   4   5   42.17    1.00
   1   4   5   39.93    1.55
   1   4   5   41.57    1.41
  -2  -4  -5   29.61    0.89
  -2  -4  -5   29.33    1.11
  -2  -4  -5   29.49    0.63
  -2  -4  -5   29.54    0.73
  -2  -4  -5   30.08    1.11
   2   4   5   29.78    0.70
   2   4   5   29.06    1.00
   2   4   5   29.38    1.10
  -3  -4  -5   28.48    0.79
  -3  -4  -5   27.41    1.07
  -3  -4  -5   28.02    0.69
  -3  -4  -5   29.70    1.07
  -3  -4  -5   28.19    0.85
   3   4   5   28.08    1.06
   3   4   5   27.71    0.96
  -4  -4  -5   21.56    0.64
  -4  -4  -5   21.32    0.81
  -4  -4  -5   21.14    0.60
  -4  -4  -5   20.83    0.82
   4   4   5   20.56    0.73
   4   4   5   21.02    0.81
  -5  -4  -5   42.74    1.57
  -5  -4  -5   41.92    1.25
  -5  -4  -5   41.52    1.16
   5   4   5   41.70    1.42
  -6  -4  -5    8.63    0.38
  -6  -4  -5    8.35    0.27
  -6  -4  -5    8.40    0.26
   6   4   5    8.55    0.36
   6   4   5    8.92    0.29
   6   4   5    8.31    0.33
  -7  -4  -5   13.63    0.56
  -7  -4  -5   13.16    0.50
  -7  -4  -5   13.57    0.39
   7   4   5   12.94    0.53
   7   4   5   13.64    0.49
  -8  -4  -5    6.87    0.29
  -8  -4  -5    6.93    0.21
   8   4   5    7.23    0.29
  -6   5   5    1.26    0.10
  -6   5   5    1.10    0.06
   5  -5  -5    1.68    0.11
  -5   5   5    2.15    0.12
  -5   5   5    1.94    0.08
   4  -5  -5    0.59    0.07
  -4   5   5    0.69    0.07
  -4   5   5    0.61    0.04
   3  -5  -5    3.38    0.09
   3  -5  -5    3.32    0.15
  -3   5   5    3.31    0.10
  -3   5   5    3.53    0.15
   2  -5  -5    7.28    0.27
   2  -5  -5    7.17    0.33
   2  -5  -5    7.55    0.20
  -2   5   5    7.81    0.20
  -2   5   5    7.64    0.20
   1  -5  -5    1.78    0.07
   1  -5  -5    1.75    0.09
   1  -5  -5    1.75    0.12
  -1   5   5    1.75    0.06
  -1   5   5    1.84    0.06
   0  -5  -5    8.64    0.22
   0  -5  -5    7.57    0.34
   0  -5  -5    7.54    0.27
   0  -5  -5    8.11    0.21
   0   5   5    7.87    0.21
   0   5   5    8.32    0.21
   0   5   5    8.03    0.30
  -1  -5  -5   17.07    0.52
  -1  -5  -5   17.70    0.70
  -1  -5  -5   18.33    0.45
  -1  -5  -5   17.31    0.68
  -1  -5  -5   18.30    0.44
  -1  -5  -5   17.78    0.44
  -1  -5  -5   18.02    0.55
   1   5   5   17.64    0.68
   1   5   5   17.64    0.62
   1   5   5   18.04    0.43
  -2  -5  -5   21.80    0.65
  -2  -5  -5   20.63    0.82
  -2  -5  -5   21.21    0.61
  -2  -5  -5   21.94    0.53
  -2  -5  -5   21.81    0.82
  -2  -5  -5   21.42    0.52
   2   5   5   20.75    0.81
   2   5   5   20.89    0.74
   2   5   5   21.46    0.51
  -3  -5  -5   26.73    1.04
  -3  -5  -5   26.68    0.77
  -3  -5  -5   27.77    0.58
  -3  -5  -5   27.41    0.82
  -3  -5  -5   27.62    0.67
  -3  -5  -5   27.73    1.03
   3   5   5   26.77    0.93
   3   5   5   26.64    1.02
  -4  -5  -5   25.26    0.99
  -4  -5  -5   25.61    0.73
  -4  -5  -5   26.01    0.63
  -4  -5  -5   26.81    0.99
  -4  -5  -5   26.06    0.78
   4   5   5   25.13    0.89
  -5  -5  -5   32.00    1.19
  -5  -5  -5   31.25    0.87
  -5  -5  -5   30.68    0.93
   5   5   5   30.00    1.06
  -6  -5  -5   11.65    0.45
  -6  -5  -5   12.05    0.35
  -6  -5  -5   12.17    0.38
  -6  -5  -5   11.98    0.51
   6   5   5   11.63    0.44
   6   5   5   12.58    0.40
  -7  -5  -5   11.46    0.34
  -7  -5  -5   11.63    0.45
  -7  -5  -5   11.68    0.37
   7   5   5   11.56    0.44
   7   5   5   12.06    0.39
  -8  -5  -5    7.22    0.22
  -9  -5  -5    2.61    0.09
   5  -6  -5    0.42    0.06
  -5   6   5    0.49    0.04
   4  -6  -5    2.34    0.13
  -4   6   5    2.47    0.09
   3  -6  -5    4.51    0.12
   3  -6  -5    3.92    0.18
  -3   6   5    4.39    0.13
   2  -6  -5    5.99    0.16
   2  -6  -5    5.92    0.23
  -2   6   5    5.66    0.17
  -2   6   5    6.22    0.17
   1  -6  -5    0.65    0.04
   1  -6  -5    0.68    0.06
   1  -6  -5    0.73    0.08
  -1   6   5    0.71    0.04
  -1   6   5    0.67    0.04
   0  -6  -5   34.78    1.36
   0  -6  -5   35.48    0.89
   0  -6  -5   36.61    1.10
   0  -6  -5   36.65    0.88
   0   6   5   36.10    0.87
   0   6   5   37.18    0.88
  -1  -6  -5    5.05    0.15
  -1  -6  -5    4.91    0.24
  -1  -6  -5    5.02    0.15
  -1  -6  -5    5.09    0.18
   1   6   5    4.94    0.14
   1   6   5    4.95    0.20
  -2  -6  -5    1.77    0.11
  -2  -6  -5    1.82    0.07
  -2  -6  -5    1.78    0.07
  -2  -6  -5    1.84    0.08
  -2  -6  -5    1.71    0.12
  -2  -6  -5    1.70    0.08
  -2  -6  -5    1.75    0.07
   2   6   5    1.72    0.09
   2   6   5    1.75    0.06
   2   6   5    1.66    0.10
  -3  -6  -5    3.04    0.12
  -3  -6  -5    3.14    0.10
  -3  -6  -5    2.93    0.17
  -3  -6  -5    3.15    0.16
  -3  -6  -5    2.97    0.12
   3   6   5    2.95    0.15
   3   6   5    2.86    0.14
  -4  -6  -5   13.38    0.43
  -4  -6  -5   13.81    0.41
  -4  -6  -5   14.20    0.35
  -4  -6  -5   13.60    0.56
   4   6   5   13.19    0.49
  -5  -6  -5    9.54    0.43
  -5  -6  -5   10.32    0.33
  -5  -6  -5   10.11    0.39
  -5  -6  -5   10.27    0.31
   5   6   5   10.23    0.38
  -6  -6  -5    3.81    0.21
  -6  -6  -5    4.02    0.15
  -6  -6  -5    3.93    0.19
  -6  -6  -5    3.94    0.14
   6   6   5    3.77    0.18
  -7  -6  -5    5.04    0.17
  -7  -6  -5    4.83    0.23
  -7  -6  -5    5.15    0.18
   7   6   5    5.24    0.20
   7   6   5    5.00    0.22
  -8  -6  -5   16.49    0.49
  -8  -6  -5   17.18    0.53
   8   6   5   17.09    0.55
  -9  -6  -5    4.55    0.15
 -10  -6  -5    1.60    0.07
   4  -7  -5    1.45    0.11
  -4   7   5    1.46    0.07
   3  -7  -5    0.15    0.05
  -3   7   5    0.16    0.03
   2  -7  -5    3.06    0.15
   2  -7  -5    3.42    0.10
  -2   7   5    3.14    0.11
  -2   7   5    3.44    0.11
   1  -7  -5    5.85    0.17
   1  -7  -5    5.70    0.22
  -1   7   5    5.62    0.17
  -1   7   5    6.33    0.17
   0  -7  -5    9.83    0.26
   0  -7  -5    9.72    0.33
   0   7   5    9.62    0.25
  -1  -7  -5    1.79    0.07
  -1  -7  -5    1.60    0.09
  -1  -7  -5    1.77    0.07
   1   7   5    1.85    0.06
  -2  -7  -5   15.26    0.39
  -2  -7  -5   14.67    0.62
  -2  -7  -5   15.46    0.48
  -2  -7  -5   14.74    0.38
   2   7   5   15.73    0.37
   2   7   5   14.64    0.54
  -3  -7  -5   32.01    0.78
  -3  -7  -5   30.26    1.20
  -3  -7  -5   32.01    1.09
  -3  -7  -5   32.05    0.90
  -3  -7  -5   32.03    0.95
   3   7   5   31.07    1.08
   3   7   5   30.25    0.74
  -4  -7  -5    1.53    0.12
  -4  -7  -5    1.55    0.06
  -4  -7  -5    1.45    0.08
  -4  -7  -5    1.46    0.10
  -4  -7  -5    1.45    0.08
   4   7   5    1.48    0.09
  -5  -7  -5    5.88    0.26
  -5  -7  -5    6.16    0.17
  -5  -7  -5    6.26    0.20
  -5  -7  -5    6.15    0.21
   5   7   5    5.76    0.25
  -6  -7  -5    5.67    0.25
  -6  -7  -5    5.95    0.21
  -6  -7  -5    6.06    0.20
   6   7   5    5.69    0.25
  -7  -7  -5    4.30    0.15
  -7  -7  -5    4.39    0.16
  -8  -7  -5    9.09    0.30
  -8  -7  -5    8.81    0.28
   8   7   5    9.25    0.32
  -9  -7  -5    1.82    0.09
  -9  -7  -5    1.76    0.08
   9   7   5    1.85    0.11
 -10  -7  -5    2.06    0.08
   3  -8  -5    0.31    0.06
  -3   8   5    0.33    0.04
  -3   8   5    0.40    0.04
   2  -8  -5    1.97    0.07
   2  -8  -5    1.79    0.11
  -2   8   5    2.06    0.08
  -2   8   5    1.88    0.08
   1  -8  -5    2.18    0.08
   1  -8  -5    2.16    0.12
  -1   8   5    2.10    0.08
   0  -8  -5    0.23    0.04
   0  -8  -5    0.17    0.03
   0   8   5    0.18    0.03
  -1  -8  -5    6.23    0.24
  -1  -8  -5    6.51    0.19
  -1  -8  -5    6.67    0.19
   1   8   5    6.68    0.18
  -2  -8  -5    4.26    0.13
  -2  -8  -5    4.18    0.13
  -2  -8  -5    4.12    0.16
   2   8   5    4.28    0.12
  -3  -8  -5    6.04    0.18
  -3  -8  -5    6.22    0.21
  -3  -8  -5    6.18    0.22
  -3  -8  -5    5.89    0.25
   3   8   5    5.95    0.15
   3   8   5    5.75    0.25
  -4  -8  -5    3.75    0.15
  -4  -8  -5    3.58    0.14
  -4  -8  -5    3.51    0.18
  -4  -8  -5    3.68    0.12
   4   8   5    3.55    0.17
  -5  -8  -5   20.89    0.60
  -5  -8  -5   20.49    0.52
  -5  -8  -5   20.12    0.64
  -6  -8  -5    9.20    0.24
  -6  -8  -5    8.68    0.30
  -6  -8  -5    9.29    0.29
  -7  -8  -5    5.65    0.21
  -7  -8  -5    5.78    0.20
  -8  -8  -5    5.18    0.18
  -8  -8  -5    5.03    0.19
   8   8   5    5.20    0.21
  -9  -8  -5    5.86    0.20
  -9  -8  -5    6.02    0.22
   9   8   5    6.24    0.24
 -10  -8  -5    1.47    0.09
 -10  -8  -5    1.54    0.08
 -11  -8  -5    3.44    0.12
   2  -9  -5    0.53    0.04
   2  -9  -5    0.41    0.06
  -2   9   5    0.45    0.04
   1  -9  -5    1.02    0.09
   1  -9  -5    1.07    0.06
  -1   9   5    1.07    0.06
   0  -9  -5    0.98    0.06
   0  -9  -5    0.91    0.08
   0   9   5    1.01    0.05
  -1  -9  -5    2.47    0.12
  -1  -9  -5    2.67    0.10
   1   9   5    2.44    0.09
  -2  -9  -5    1.55    0.09
  -2  -9  -5    1.70    0.07
  -2  -9  -5    1.65    0.07
   2   9   5    1.66    0.06
  -3  -9  -5    3.52    0.15
  -3  -9  -5    3.73    0.12
   3   9   5    3.64    0.10
  -4  -9  -5    3.28    0.14
  -4  -9  -5    3.17    0.11
  -4  -9  -5    3.00    0.13
  -5  -9  -5    4.19    0.16
  -5  -9  -5    4.38    0.17
  -5  -9  -5    4.13    0.13
  -6  -9  -5    4.60    0.14
  -6  -9  -5    4.81    0.18
  -6  -9  -5    4.47    0.18
  -7  -9  -5    4.22    0.16
  -7  -9  -5    4.06    0.16
  -8  -9  -5    0.63    0.06
  -8  -9  -5    0.61    0.06
  -9  -9  -5    4.50    0.18
  -9  -9  -5    4.57    0.16
 -10  -9  -5    1.86    0.10
 -10  -9  -5    1.67    0.08
  10   9   5    1.67    0.11
   1 -10  -5    2.22    0.13
   1 -10  -5    2.52    0.09
  -1  10   5    2.26    0.09
   0 -10  -5    0.83    0.06
   0 -10  -5    0.83    0.08
   0  10   5    0.83    0.05
  -1 -10  -5    1.21    0.09
  -1 -10  -5    1.45    0.07
   1  10   5    1.35    0.06
  -2 -10  -5    2.71    0.10
  -2 -10  -5    2.51    0.13
  -2 -10  -5    2.53    0.10
   2  10   5    2.69    0.09
  -3 -10  -5    2.11    0.09
  -3 -10  -5    2.08    0.11
  -3 -10  -5    2.14    0.09
   3  10   5    2.02    0.06
  -4 -10  -5    0.99    0.06
  -4 -10  -5    1.05    0.07
  -5 -10  -5    1.59    0.10
  -5 -10  -5    1.39    0.09
  -5 -10  -5    1.40    0.07
  -6 -10  -5    2.75    0.13
  -6 -10  -5    2.71    0.12
  -6 -10  -5    2.70    0.10
  -7 -10  -5    3.66    0.16
  -7 -10  -5    4.06    0.16
  -7 -10  -5    3.83    0.13
  -8 -10  -5    2.12    0.11
  -8 -10  -5    1.93    0.11
  -9 -10  -5    2.41    0.11
  -9 -10  -5    2.43    0.12
 -10 -10  -5    2.05    0.10
 -10 -10  -5    2.11    0.11
  -1 -11  -5    1.84    0.09
  -1 -11  -5    1.90    0.12
   1  11   5    1.73    0.08
  -2 -11  -5    0.98    0.07
  -2 -11  -5    0.99    0.08
   2  11   5    0.98    0.05
  -3 -11  -5    1.97    0.09
  -3 -11  -5    1.99    0.11
  -3 -11  -5    2.15    0.09
  -4 -11  -5    2.27    0.12
  -4 -11  -5    2.56    0.10
  -5 -11  -5    1.94    0.09
  -5 -11  -5    1.84    0.10
  -6 -11  -5    1.36    0.07
  -6 -11  -5    1.46    0.10
  -6 -11  -5    1.24    0.08
  -7 -11  -5    1.46    0.10
  -7 -11  -5    1.58    0.09
  -7 -11  -5    1.58    0.07
  -8 -11  -5    0.81    0.08
  -8 -11  -5    0.75    0.05
  -8 -11  -5    0.77    0.07
  -9 -11  -5    2.42    0.12
  -9 -11  -5    2.39    0.12
  -4 -12  -5    0.41    0.05
  -4 -12  -5    0.43    0.06
  -5 -12  -5    0.60    0.05
  -5 -12  -5    0.67    0.07
  -6 -12  -5    2.58    0.13
  -6 -12  -5    2.47    0.10
   7  11  -6    1.19    0.10
  -7 -11   6    1.26    0.09
  -7 -11   6    1.05    0.06
  -6 -11   6    0.54    0.05
  -5 -11   6    1.31    0.07
  -4 -11   6    1.04    0.06
  -4 -11   6    0.94    0.06
   3  11  -6    1.15    0.05
   3  11  -6    1.27    0.10
  -3 -11   6    0.97    0.06
   2  11  -6    0.40    0.06
   2  11  -6    0.40    0.04
  -2 -11   6    0.37    0.04
   8  10  -6    0.78    0.08
  -8 -10   6    0.84    0.07
  -8 -10   6    0.84    0.05
   7  10  -6    1.86    0.12
   7  10  -6    1.86    0.12
  -7 -10   6    1.82    0.08
  -7 -10   6    1.98    0.10
   6  10  -6    0.97    0.08
   6  10  -6    1.05    0.09
  -6 -10   6    0.91    0.05
  -6 -10   6    1.07    0.08
   5  10  -6    2.28    0.13
  -5 -10   6    1.98    0.08
   4  10  -6    2.07    0.12
  -4 -10   6    1.68    0.08
  -4 -10   6    1.80    0.08
   3  10  -6    0.88    0.08
   3  10  -6    0.74    0.04
  -3 -10   6    0.81    0.05
  -3 -10   6    0.77    0.05
   2  10  -6    0.85    0.05
   2  10  -6    0.86    0.08
  -2 -10   6    0.81    0.05
   1  10  -6    1.71    0.07
   1  10  -6    1.84    0.11
  -1 -10   6    1.71    0.07
   0  10  -6    0.35    0.06
   0  10  -6    0.24    0.02
   0  10  -6    0.25    0.03
   0 -10   6    0.27    0.03
   9   9  -6    0.76    0.08
  -9  -9   6    0.91    0.05
   8   9  -6    0.92    0.09
   8   9  -6    0.92    0.09
  -8  -9   6    1.00    0.05
  -8  -9   6    1.14    0.08
   7   9  -6    2.21    0.13
   7   9  -6    2.09    0.12
  -7  -9   6    2.19    0.11
  -7  -9   6    2.06    0.08
   6   9  -6    1.38    0.10
   6   9  -6    1.34    0.10
  -6  -9   6    1.32    0.06
  -6  -9   6    1.36    0.08
   5   9  -6    2.60    0.13
   5   9  -6    2.81    0.14
  -5  -9   6    2.71    0.12
  -5  -9   6    2.65    0.09
   4   9  -6    4.08    0.18
  -4  -9   6    4.15    0.13
   3   9  -6    4.70    0.13
   3   9  -6    4.53    0.20
  -3  -9   6    4.64    0.14
  -3  -9   6    4.73    0.14
   2   9  -6    2.54    0.13
   2   9  -6    2.45    0.08
  -2  -9   6    2.40    0.09
   1   9  -6    2.16    0.07
   1   9  -6    2.14    0.12
   1   9  -6    2.15    0.08
  -1  -9   6    2.01    0.08
   0   9  -6    2.11    0.07
   0   9  -6    1.91    0.08
   0   9  -6    2.09    0.12
   0  -9   6    1.98    0.07
  -1   9  -6    1.01    0.09
  -1   9  -6    1.06    0.05
  -1   9  -6    0.93    0.05
   1  -9   6    1.01    0.05
  -2   9  -6    1.27    0.05
  -2   9  -6    1.25    0.06
  -2   9  -6    1.33    0.10
  -2   9  -6    1.21    0.06
   9   8  -6    3.38    0.18
   8   8  -6    0.59    0.07
   8   8  -6    0.56    0.07
  -8  -8   6    0.65    0.04
   7   8  -6    0.80    0.08
   7   8  -6    0.81    0.08
  -7  -8   6    0.94    0.07
  -7  -8   6    0.88    0.05
   6   8  -6    0.25    0.05
   6   8  -6    0.19    0.04
  -6  -8   6    0.14    0.02
  -6  -8   6    0.17    0.03
   5   8  -6    3.44    0.16
   5   8  -6    3.48    0.16
  -5  -8   6    3.66    0.14
  -5  -8   6    3.59    0.11
   4   8  -6    1.18    0.08
   4   8  -6    1.24    0.09
  -4  -8   6    1.18    0.06
   3   8  -6    0.56    0.03
   3   8  -6    0.56    0.06
  -3  -8   6    0.43    0.04
  -3  -8   6    0.49    0.04
   2   8  -6    3.25    0.10
   2   8  -6    3.37    0.16
  -2  -8   6    3.35    0.11
  -2  -8   6    3.47    0.11
   1   8  -6   12.02    0.31
   1   8  -6   12.36    0.27
   1   8  -6   12.18    0.43
  -1  -8   6   12.05    0.31
   0   8  -6    5.35    0.13
   0   8  -6    5.52    0.22
   0   8  -6    5.23    0.15
   0  -8   6    5.28    0.15
  -1   8  -6    1.68    0.11
  -1   8  -6    1.69    0.07
  -1   8  -6    1.69    0.07
  -1   8  -6    1.73    0.06
   1  -8   6    1.66    0.06
  -2   8  -6    4.90    0.15
  -2   8  -6    4.78    0.15
  -2   8  -6    4.78    0.21
  -3   8  -6    2.36    0.08
  -3   8  -6    2.34    0.14
  -3   8  -6    2.33    0.09
  10   7  -6    0.71    0.09
   9   7  -6    0.65    0.08
   8   7  -6    2.11    0.13
  -8  -7   6    2.24    0.08
   7   7  -6    2.41    0.13
   7   7  -6    2.46    0.13
  -7  -7   6    2.63    0.11
  -7  -7   6    2.55    0.08
   6   7  -6    2.76    0.14
   6   7  -6    2.77    0.14
  -6  -7   6    2.93    0.12
  -6  -7   6    2.94    0.09
   5   7  -6    6.87    0.26
   5   7  -6    6.57    0.25
  -5  -7   6    6.60    0.19
  -5  -7   6    6.73    0.22
   4   7  -6    1.82    0.10
   4   7  -6    2.02    0.11
  -4  -7   6    1.88    0.09
  -4  -7   6    1.95    0.07
   3   7  -6    4.63    0.19
   3   7  -6    4.65    0.13
  -3  -7   6    4.63    0.13
  -3  -7   6    4.50    0.13
  -3  -7   6    4.43    0.20
   2   7  -6    1.84    0.07
   2   7  -6    1.80    0.10
  -2  -7   6    1.97    0.11
  -2  -7   6    1.95    0.07
  -2  -7   6    1.95    0.07
   1   7  -6    2.14    0.07
   1   7  -6    2.03    0.11
   1   7  -6    2.14    0.06
  -1  -7   6    2.16    0.07
   0   7  -6    2.73    0.13
   0   7  -6    2.83    0.09
   0   7  -6    2.76    0.09
   0   7  -6    2.75    0.08
   0  -7   6    2.61    0.09
  -1   7  -6    1.50    0.06
  -1   7  -6    1.50    0.05
  -1   7  -6    1.53    0.06
  -1   7  -6    1.44    0.09
   1  -7   6    1.66    0.06
  -2   7  -6    4.21    0.13
  -2   7  -6    4.13    0.18
  -2   7  -6    4.14    0.11
   2  -7   6    4.25    0.11
  -3   7  -6    1.66    0.07
  -3   7  -6    1.63    0.11
  -4   7  -6    2.07    0.08
  -4   7  -6    2.18    0.13
  10   6  -6    2.22    0.14
   9   6  -6    0.03    0.03
   8   6  -6    3.68    0.18
   7   6  -6    5.53    0.23
   7   6  -6    5.57    0.23
  -7  -6   6    5.70    0.16
   6   6  -6    3.92    0.18
   6   6  -6    4.05    0.18
  -6  -6   6    4.11    0.12
   5   6  -6    5.31    0.21
   5   6  -6    5.35    0.21
  -5  -6   6    5.33    0.18
  -5  -6   6    5.47    0.15
  -5  -6   6    5.35    0.23
   4   6  -6    3.51    0.15
   4   6  -6    3.70    0.16
  -4  -6   6    3.72    0.11
  -4  -6   6    3.72    0.17
  -4  -6   6    3.54    0.13
   3   6  -6   13.18    0.33
   3   6  -6   12.85    0.43
   3   6  -6   13.61    0.45
  -3  -6   6   13.16    0.34
  -3  -6   6   13.24    0.33
  -3  -6   6   13.07    0.39
  -3  -6   6   13.25    0.48
   2   6  -6   15.82    0.54
   2   6  -6   16.37    0.35
   2   6  -6   16.37    0.40
  -2  -6   6   16.26    0.40
  -2  -6   6   16.09    0.58
  -2  -6   6   16.21    0.41
   1   6  -6    0.09    0.02
   1   6  -6    0.15    0.02
   1   6  -6    0.20    0.04
   1   6  -6    0.13    0.02
  -1  -6   6    0.01    0.02
  -1  -6   6    0.25    0.03
   0   6  -6   13.30    0.33
   0   6  -6   13.13    0.34
   0   6  -6   13.02    0.29
   0   6  -6   13.08    0.44
   0  -6   6   12.96    0.33
   0  -6   6   12.70    0.52
  -1   6  -6    1.59    0.09
  -1   6  -6    1.51    0.06
  -1   6  -6    1.50    0.05
  -1   6  -6    1.67    0.06
   1  -6   6    1.54    0.05
   1  -6   6    1.30    0.10
  -2   6  -6    6.94    0.16
  -2   6  -6    6.91    0.29
  -2   6  -6    6.90    0.19
  -2   6  -6    6.91    0.26
   2  -6   6    6.78    0.17
  -3   6  -6    0.83    0.07
  -3   6  -6    0.87    0.05
  -3   6  -6    0.92    0.08
  -4   6  -6    2.48    0.12
  -4   6  -6    2.27    0.09
  -4   6  -6    2.45    0.13
  -5   6  -6    2.30    0.09
  -5   6  -6    2.34    0.12
  -5   6  -6    2.26    0.14
  10   5  -6    1.57    0.12
   9   5  -6    1.08    0.09
   8   5  -6    0.60    0.07
   7   5  -6    5.04    0.22
  -7  -5   6    5.35    0.15
   6   5  -6    4.62    0.20
   6   5  -6    4.81    0.20
  -6  -5   6    4.94    0.14
   5   5  -6    0.66    0.06
   5   5  -6    0.73    0.06
  -5  -5   6    0.64    0.04
  -5  -5   6    0.75    0.07
   4   5  -6    6.64    0.24
   4   5  -6    6.66    0.25
  -4  -5   6    6.38    0.21
  -4  -5   6    6.72    0.27
  -4  -5   6    6.82    0.18
   3   5  -6   13.52    0.33
   3   5  -6   13.03    0.44
   3   5  -6   13.36    0.45
  -3  -5   6   13.73    0.49
  -3  -5   6   13.77    0.40
  -3  -5   6   13.77    0.34
  -3  -5   6   13.55    0.34
   2   5  -6   11.48    0.26
   2   5  -6   11.76    0.29
   2   5  -6   11.80    0.40
   2   5  -6   11.30    0.37
  -2  -5   6   11.48    0.35
  -2  -5   6   11.41    0.42
  -2  -5   6   11.82    0.30
  -2  -5   6   11.80    0.29
   1   5  -6    0.26    0.03
   1   5  -6    0.42    0.05
   1   5  -6    0.30    0.02
   1   5  -6    0.29    0.03
  -1  -5   6    0.26    0.04
  -1  -5   6    0.25    0.02
  -1  -5   6    0.32    0.04
  -1  -5   6    0.27    0.03
   0   5  -6   39.53    1.24
   0   5  -6   39.78    0.96
   0   5  -6   39.10    0.94
   0   5  -6   38.72    0.83
   0  -5   6   37.32    1.45
   0  -5   6   39.73    0.94
   0  -5   6   41.00    1.33
  -1   5  -6    5.04    0.14
  -1   5  -6    4.84    0.14
  -1   5  -6    5.04    0.21
  -1   5  -6    4.95    0.12
  -1   5  -6    4.93    0.19
   1  -5   6    4.91    0.22
   1  -5   6    5.01    0.13
  -2   5  -6    1.39    0.10
  -2   5  -6    1.45    0.09
  -2   5  -6    1.49    0.06
  -2   5  -6    1.49    0.08
   2  -5   6    1.35    0.10
   2  -5   6    1.31    0.05
  -3   5  -6    7.86    0.32
  -3   5  -6    7.91    0.27
  -3   5  -6    8.01    0.30
  -3   5  -6    8.09    0.22
  -4   5  -6    7.71    0.26
  -4   5  -6    7.69    0.21
  -4   5  -6    7.76    0.30
  -5   5  -6    3.10    0.10
  -5   5  -6    3.05    0.14
  -5   5  -6    3.13    0.16
  -6   5  -6    2.04    0.13
  -6   5  -6    2.11    0.08
  -6   5  -6    2.17    0.12
  10   4  -6    2.07    0.14
   9   4  -6    2.06    0.13
   8   4  -6    0.94    0.08
   7   4  -6    9.27    0.34
   6   4  -6    1.64    0.10
   6   4  -6    1.59    0.10
  -6  -4   6    1.49    0.06
  -6  -4   6    1.51    0.10
   5   4  -6    0.15    0.03
   5   4  -6    0.07    0.03
  -5  -4   6    0.08    0.03
   4   4  -6    2.87    0.13
   4   4  -6    2.85    0.13
  -4  -4   6    2.81    0.14
  -4  -4   6    2.89    0.09
   3   4  -6   10.99    0.38
   3   4  -6   10.94    0.36
   3   4  -6   10.94    0.27
  -3  -4   6   11.35    0.28
  -3  -4   6   10.64    0.41
  -3  -4   6   11.29    0.28
   2   4  -6    1.13    0.04
   2   4  -6    1.20    0.07
   2   4  -6    1.13    0.04
   2   4  -6    1.20    0.06
  -2  -4   6    1.12    0.07
  -2  -4   6    1.26    0.05
  -2  -4   6    1.15    0.05
   1   4  -6   10.49    0.27
   1   4  -6   10.22    0.35
   1   4  -6   10.47    0.23
   1   4  -6   10.70    0.26
   1   4  -6    9.92    0.33
  -1  -4   6   10.33    0.38
  -1  -4   6   10.87    0.26
  -1  -4   6   10.02    0.40
  -1  -4   6   10.75    0.27
   0   4  -6   16.00    0.53
   0   4  -6   15.67    0.35
   0   4  -6   16.53    0.41
   0   4  -6   16.46    0.40
   0  -4   6   16.41    0.40
   0  -4   6   15.41    0.61
   0  -4   6   16.43    0.40
   0  -4   6   16.85    0.57
  -1   4  -6   12.93    0.38
  -1   4  -6   12.78    0.32
  -1   4  -6   12.52    0.42
  -1   4  -6   12.07    0.28
  -1   4  -6   13.11    0.31
   1  -4   6   12.45    0.31
   1  -4   6   13.61    0.45
   1  -4   6   11.27    0.49
  -2   4  -6    8.93    0.31
  -2   4  -6    9.02    0.33
  -2   4  -6    8.86    0.28
  -2   4  -6    9.11    0.23
   2  -4   6    8.76    0.22
   2  -4   6    8.52    0.37
  -3   4  -6    8.47    0.27
  -3   4  -6    8.70    0.22
  -3   4  -6    8.53    0.32
  -3   4  -6    8.65    0.31
   3  -4   6    7.81    0.36
  -4   4  -6    0.52    0.03
  -4   4  -6    0.47    0.05
  -4   4  -6    0.61    0.06
  -5   4  -6    3.42    0.14
  -5   4  -6    3.34    0.10
  -5   4  -6    3.12    0.16
  -6   4  -6    1.81    0.07
  -6   4  -6    1.82    0.10
  -6   4  -6    1.88    0.12
  -7   4  -6    0.64    0.04
  -7   4  -6    0.73    0.09
  -7   4  -6    0.60    0.07
  10   3  -6    1.06    0.10
   9   3  -6    1.48    0.11
   8   3  -6    0.86    0.08
   7   3  -6    7.12    0.28
  -7  -3   6    7.32    0.29
   6   3  -6    7.66    0.28
  -6  -3   6    7.62    0.31
  -6  -3   6    7.82    0.20
   5   3  -6   20.70    0.70
   5   3  -6   20.92    0.68
  -5  -3   6   22.75    0.82
  -5  -3   6   21.02    0.53
  -5  -3   6   21.08    0.75
   4   3  -6   11.57    0.37
   4   3  -6   10.99    0.38
  -4  -3   6   11.05    0.29
  -4  -3   6   11.54    0.45
  -4  -3   6   10.93    0.41
   3   3  -6   12.90    0.42
   3   3  -6   12.79    0.32
   3   3  -6   12.87    0.44
  -3  -3   6   12.82    0.47
  -3  -3   6   13.78    0.32
  -3  -3   6   13.29    0.33
  -3  -3   6   13.03    0.51
   2   3  -6   12.77    0.43
   2   3  -6   12.94    0.28
   2   3  -6   13.08    0.41
   2   3  -6   12.99    0.32
  -2  -3   6   12.54    0.46
  -2  -3   6   12.34    0.51
  -2  -3   6   13.29    0.33
  -2  -3   6   13.77    0.32
   1   3  -6    3.96    0.15
   1   3  -6    4.07    0.14
   1   3  -6    3.99    0.10
   1   3  -6    3.96    0.12
   1   3  -6    4.13    0.12
   1   3  -6    4.08    0.11
  -1  -3   6    3.94    0.18
  -1  -3   6    3.84    0.17
  -1  -3   6    4.13    0.11
  -1  -3   6    4.04    0.17
  -1  -3   6    4.07    0.11
   0   3  -6    7.91    0.20
   0   3  -6    7.69    0.17
   0   3  -6    7.60    0.27
   0   3  -6    7.61    0.20
   0  -3   6    7.80    0.32
   0  -3   6    7.85    0.20
   0  -3   6    7.39    0.31
   0  -3   6    7.75    0.20
   0  -3   6    8.20    0.29
  -1   3  -6    3.07    0.09
  -1   3  -6    3.02    0.09
  -1   3  -6    3.16    0.08
  -1   3  -6    2.92    0.12
   1  -3   6    3.14    0.15
   1  -3   6    2.93    0.15
   1  -3   6    3.03    0.09
   1  -3   6    3.31    0.13
  -2   3  -6    4.72    0.13
  -2   3  -6    4.63    0.11
  -2   3  -6    4.53    0.17
  -2   3  -6    4.61    0.16
   2  -3   6    4.52    0.12
   2  -3   6    4.45    0.21
   2  -3   6    4.64    0.18
  -3   3  -6    6.56    0.22
  -3   3  -6    6.71    0.17
  -3   3  -6    6.45    0.24
   3  -3   6    6.50    0.29
  -4   3  -6   10.09    0.38
  -4   3  -6   10.33    0.26
  -4   3  -6   10.39    0.36
  -4   3  -6   10.26    0.32
  -5   3  -6    3.37    0.10
  -5   3  -6    3.36    0.14
  -5   3  -6    3.44    0.16
  -6   3  -6    0.56    0.07
  -6   3  -6    0.58    0.06
  -6   3  -6    0.49    0.03
  -7   3  -6    5.70    0.24
  -7   3  -6    5.69    0.21
  -8   3  -6    0.92    0.08
  -8   3  -6    0.99    0.09
   9   2  -6    0.75    0.08
   8   2  -6    0.81    0.08
   7   2  -6    6.61    0.26
   6   2  -6    2.41    0.13
  -6  -2   6    2.44    0.08
  -6  -2   6    2.52    0.13
   5   2  -6    3.71    0.16
  -5  -2   6    3.70    0.10
  -5  -2   6    3.41    0.16
   4   2  -6   22.60    0.72
   4   2  -6   22.27    0.70
  -4  -2   6   21.97    0.77
  -4  -2   6   21.60    0.84
  -4  -2   6   22.65    0.55
   3   2  -6   16.25    0.51
   3   2  -6   16.18    0.53
   3   2  -6   15.82    0.39
  -3  -2   6   17.10    0.40
  -3  -2   6   15.91    0.62
  -3  -2   6   16.04    0.40
  -3  -2   6   15.71    0.57
   2   2  -6   12.14    0.30
   2   2  -6   11.82    0.38
   2   2  -6   11.93    0.40
  -2  -2   6   12.30    0.29
  -2  -2   6   12.10    0.30
  -2  -2   6   11.34    0.46
  -2  -2   6   11.71    0.43
   1   2  -6    4.32    0.11
   1   2  -6    4.45    0.16
   1   2  -6    4.09    0.16
   1   2  -6    4.55    0.18
   1   2  -6    4.56    0.12
   1   2  -6    4.85    0.19
   1   2  -6    4.53    0.13
  -1  -2   6    4.52    0.12
  -1  -2   6    4.22    0.19
  -1  -2   6    4.46    0.18
  -1  -2   6    4.54    0.18
  -1  -2   6    4.50    0.12
   0   2  -6   50.11    1.52
   0   2  -6   51.88    1.22
   0   2  -6   51.39    1.25
   0   2  -6   48.98    1.59
   0   2  -6   53.71    1.87
   0   2  -6   50.52    1.08
   0  -2   6   50.67    1.89
   0  -2   6   50.83    1.24
   0  -2   6   52.59    1.22
   0  -2   6   49.92    1.86
   0  -2   6   53.72    1.71
  -1   2  -6    4.26    0.15
  -1   2  -6    4.25    0.12
  -1   2  -6    4.28    0.16
  -1   2  -6    4.50    0.20
  -1   2  -6    4.36    0.12
  -1   2  -6    4.20    0.10
   1  -2   6    4.62    0.17
   1  -2   6    4.20    0.19
   1  -2   6    4.15    0.19
   1  -2   6    4.28    0.11
  -2   2  -6    1.07    0.03
  -2   2  -6    1.09    0.06
  -2   2  -6    1.13    0.04
  -2   2  -6    1.14    0.08
   2  -2   6    1.05    0.07
   2  -2   6    1.12    0.07
   2  -2   6    1.06    0.03
   2  -2   6    1.20    0.07
  -3   2  -6    9.95    0.34
  -3   2  -6    9.84    0.30
  -3   2  -6   10.10    0.25
   3  -2   6    9.79    0.40
   3  -2   6    9.35    0.40
   3  -2   6   10.01    0.35
  -4   2  -6   17.32    0.68
  -4   2  -6   17.10    0.50
  -4   2  -6   16.46    0.58
  -4   2  -6   17.56    0.56
  -4   2  -6   17.30    0.42
   4  -2   6   15.93    0.66
  -5   2  -6    4.49    0.16
  -5   2  -6    4.52    0.18
  -5   2  -6    4.13    0.18
  -5   2  -6    4.65    0.12
  -6   2  -6    4.98    0.21
  -6   2  -6    4.93    0.18
  -7   2  -6    8.35    0.27
  -7   2  -6    8.01    0.31
  -8   2  -6    2.93    0.15
  -8   2  -6    2.75    0.12
   9   1  -6    0.94    0.09
   8   1  -6    1.07    0.09
   7   1  -6   10.88    0.41
  -7  -1   6   12.13    0.30
   6   1  -6    0.14    0.04
  -6  -1   6    0.02    0.02
   5   1  -6    5.56    0.21
  -5  -1   6    5.46    0.15
  -5  -1   6    5.22    0.22
   4   1  -6    7.85    0.27
  -4  -1   6    7.66    0.20
  -4  -1   6    7.64    0.29
   3   1  -6   18.77    0.58
   3   1  -6   19.04    0.60
   3   1  -6   17.91    0.44
  -3  -1   6   18.99    0.46
  -3  -1   6   17.64    0.69
  -3  -1   6   17.92    0.64
   2   1  -6    2.99    0.12
   2   1  -6    3.28    0.12
   2   1  -6    2.81    0.09
  -2  -1   6    2.90    0.08
  -2  -1   6    3.09    0.09
  -2  -1   6    2.90    0.13
  -2  -1   6    2.69    0.13
   1   1  -6    0.95    0.05
   1   1  -6    0.94    0.04
   1   1  -6    0.92    0.03
   1   1  -6    0.97    0.05
   1   1  -6    0.92    0.05
   1   1  -6    0.91    0.04
  -1  -1   6    0.87    0.06
  -1  -1   6    0.88    0.03
  -1  -1   6    0.85    0.03
  -1  -1   6    0.90    0.06
   0   1  -6   18.24    0.46
   0   1  -6   17.78    0.45
   0   1  -6   17.46    0.58
   0   1  -6   18.23    0.46
   0   1  -6   19.65    0.69
   0   1  -6   18.07    0.56
   0   1  -6   18.12    0.39
   0  -1   6   19.02    0.63
   0  -1   6   18.16    0.69
   0  -1   6   18.06    0.45
   0  -1   6   18.71    0.68
   0  -1   6   18.45    0.44
  -1   1  -6   32.25    1.05
  -1   1  -6   32.60    0.71
  -1   1  -6   33.35    0.80
  -1   1  -6   33.34    0.82
  -1   1  -6   34.89    1.25
   1  -1   6   34.23    1.25
   1  -1   6   33.99    0.80
   1  -1   6   34.43    1.13
   1  -1   6   33.54    1.23
  -2   1  -6    4.12    0.18
  -2   1  -6    3.88    0.11
  -2   1  -6    3.78    0.14
  -2   1  -6    3.84    0.13
  -2   1  -6    3.77    0.09
   2  -1   6    3.88    0.17
   2  -1   6    3.86    0.16
   2  -1   6    3.82    0.18
   2  -1   6    3.68    0.10
  -3   1  -6    2.61    0.14
  -3   1  -6    2.58    0.11
  -3   1  -6    2.68    0.07
  -3   1  -6    2.42    0.10
   3  -1   6    2.67    0.11
   3  -1   6    2.35    0.13
   3  -1   6    2.51    0.13
  -4   1  -6   19.38    0.46
  -4   1  -6   19.06    0.61
  -4   1  -6   18.47    0.54
  -4   1  -6   19.10    0.74
   4  -1   6   19.07    0.65
   4  -1   6   17.55    0.72
  -5   1  -6    9.51    0.41
  -5   1  -6    9.05    0.33
  -5   1  -6    9.82    0.29
  -5   1  -6    9.58    0.33
   5  -1   6    8.67    0.39
  -6   1  -6    1.44    0.09
  -6   1  -6    1.39    0.07
  -7   1  -6    4.70    0.17
  -7   1  -6    4.64    0.20
  -8   1  -6    3.75    0.15
  -8   1  -6    3.92    0.18
  -9   1  -6    1.59    0.11
  -9   1  -6    1.61    0.09
   9   0  -6    1.69    0.12
   8   0  -6    0.94    0.09
  -8   0   6    1.10    0.05
   7   0  -6    5.00    0.23
  -7   0   6    5.75    0.15
   6   0  -6    0.86    0.08
  -6   0   6    0.82    0.04
   5   0  -6    9.36    0.33
  -5   0   6    9.35    0.24
   4   0  -6   10.34    0.35
  -4   0   6   10.38    0.26
  -4   0   6    9.87    0.37
   3   0  -6    2.64    0.08
   3   0  -6    3.10    0.12
  -3   0   6    2.60    0.08
  -3   0   6    2.56    0.12
  -3   0   6    2.78    0.12
   2   0  -6   22.72    0.56
   2   0  -6   24.13    0.85
   2   0  -6   23.78    0.72
  -2   0   6   22.73    0.57
  -2   0   6   23.56    0.56
  -2   0   6   22.69    0.86
  -2   0   6   22.23    0.79
   1   0  -6   12.38    0.31
   1   0  -6   12.95    0.47
   1   0  -6   12.79    0.39
   1   0  -6   12.54    0.31
   1   0  -6   11.99    0.40
   1   0  -6   12.54    0.46
  -1   0   6   12.07    0.44
  -1   0   6   12.30    0.31
  -1   0   6   12.00    0.30
  -1   0   6   12.12    0.48
  -1   0   6   12.57    0.47
   0   0  -6   60.30    1.92
   0   0  -6   62.04    1.31
   0   0  -6   62.80    1.48
   0   0  -6   62.73    1.51
   0   0  -6   64.90    2.26
   0   0  -6   63.68    1.85
   0   0   6   61.08    2.28
   0   0   6   62.74    2.25
   0   0   6   61.22    1.50
   0   0   6   59.92    2.07
   0   0   6   63.22    1.47
  -1   0  -6   35.28    1.04
  -1   0  -6   34.16    0.85
  -1   0  -6   33.32    0.83
  -1   0  -6   39.31    1.28
  -1   0  -6   32.87    0.73
  -1   0  -6   32.85    1.08
   1   0   6   32.66    1.29
   1   0   6   34.91    1.17
   1   0   6   34.24    0.82
   1   0   6   37.08    1.27
  -2   0  -6    1.73    0.10
  -2   0  -6    1.64    0.05
  -2   0  -6    1.54    0.07
  -2   0  -6    1.49    0.07
   2   0   6    1.46    0.09
   2   0   6    1.76    0.09
   2   0   6    1.65    0.08
   2   0   6    1.54    0.04
  -3   0  -6   14.52    0.35
  -3   0  -6   14.03    0.45
  -3   0  -6   14.28    0.56
  -3   0  -6   13.98    0.41
   3   0   6   13.65    0.54
   3   0   6   13.49    0.55
   3   0   6   14.58    0.50
  -4   0  -6   26.29    0.63
  -4   0  -6   26.07    0.99
  -4   0  -6   25.73    0.82
  -4   0  -6   25.40    0.73
   4   0   6   26.06    0.98
   4   0   6   24.58    0.97
   4   0   6   26.33    0.88
  -5   0  -6    0.02    0.02
  -5   0  -6    0.04    0.02
  -5   0  -6    0.01    0.01
   5   0   6    0.07    0.03
   5   0   6    0.06    0.02
  -6   0  -6    0.10    0.03
  -6   0  -6    0.03    0.02
  -6   0  -6    0.03    0.02
  -7   0  -6    4.84    0.20
  -7   0  -6    4.80    0.17
  -8   0  -6    1.72    0.10
  -8   0  -6    1.61    0.08
  -9   0  -6    1.07    0.07
  -9   0  -6    1.15    0.09
   8  -1  -6    0.69    0.08
  -8   1   6    0.87    0.05
   7  -1  -6    0.27    0.05
  -7   1   6    0.21    0.03
   6  -1  -6    9.25    0.34
   5  -1  -6    5.71    0.23
  -5   1   6    5.92    0.16
   4  -1  -6   15.69    0.51
  -4   1   6   15.67    0.39
  -4   1   6   14.81    0.54
   3  -1  -6    4.74    0.18
   3  -1  -6    4.35    0.12
  -3   1   6    4.23    0.17
  -3   1   6    4.49    0.12
   2  -1  -6   55.17    1.94
   2  -1  -6   51.32    1.96
   2  -1  -6   55.06    1.60
   2  -1  -6   54.01    1.27
   2  -1  -6   53.87    1.27
  -2   1   6   53.61    1.27
  -2   1   6   52.11    1.78
  -2   1   6   52.29    1.95
  -2   1   6   52.71    1.29
   1  -1  -6    4.16    0.15
   1  -1  -6    4.31    0.18
   1  -1  -6    3.97    0.11
   1  -1  -6    4.17    0.18
   1  -1  -6    3.98    0.11
  -1   1   6    3.85    0.17
  -1   1   6    4.00    0.11
  -1   1   6    4.13    0.11
  -1   1   6    3.89    0.16
   0  -1  -6    6.18    0.20
   0  -1  -6    5.79    0.16
   0  -1  -6    5.72    0.15
   0  -1  -6    5.80    0.24
   0  -1  -6    5.77    0.14
   0   1   6    5.46    0.15
   0   1   6    5.74    0.24
   0   1   6    5.85    0.15
   0   1   6    5.77    0.22
  -1  -1  -6    8.48    0.27
  -1  -1  -6    8.40    0.34
  -1  -1  -6    8.08    0.19
  -1  -1  -6    8.34    0.21
  -1  -1  -6    8.26    0.22
   1   1   6    8.37    0.33
   1   1   6    8.20    0.30
   1   1   6    8.16    0.33
   1   1   6    8.34    0.21
  -2  -1  -6   36.36    0.88
  -2  -1  -6   36.79    1.34
  -2  -1  -6   37.16    1.08
  -2  -1  -6   34.87    1.01
   2   1   6   35.72    0.85
   2   1   6   35.61    1.34
   2   1   6   36.18    1.33
   2   1   6   36.56    1.22
  -3  -1  -6    8.98    0.37
  -3  -1  -6    9.11    0.22
  -3  -1  -6    8.97    0.27
  -3  -1  -6    8.82    0.29
   3   1   6    8.57    0.36
   3   1   6    8.76    0.36
   3   1   6    9.10    0.33
  -4  -1  -6   21.85    0.63
  -4  -1  -6   22.36    0.70
  -4  -1  -6   22.56    0.85
   4   1   6   21.99    0.76
   4   1   6   20.97    0.83
   4   1   6   22.38    0.84
  -5  -1  -6    1.73    0.07
  -5  -1  -6    1.45    0.07
  -5  -1  -6    1.43    0.11
   5   1   6    1.23    0.09
   5   1   6    1.42    0.08
  -6  -1  -6   30.97    0.95
  -6  -1  -6   30.15    1.16
  -6  -1  -6   30.28    0.85
   6   1   6   28.52    1.13
   6   1   6   30.13    1.03
  -7  -1  -6    4.94    0.20
  -7  -1  -6    5.07    0.17
  -8  -1  -6    0.55    0.05
  -8  -1  -6    0.71    0.07
  -9  -1  -6    3.04    0.12
 -10  -1  -6    2.46    0.11
   8  -2  -6    0.15    0.05
  -8   2   6    0.21    0.03
   7  -2  -6    0.18    0.05
  -7   2   6    0.14    0.02
   6  -2  -6    6.62    0.26
   5  -2  -6    1.12    0.09
  -5   2   6    1.29    0.05
   4  -2  -6    2.39    0.12
  -4   2   6    2.21    0.07
   3  -2  -6   11.66    0.38
   3  -2  -6   11.25    0.28
  -3   2   6   11.25    0.29
  -3   2   6   11.23    0.40
   2  -2  -6   20.14    0.50
   2  -2  -6   21.34    0.65
   2  -2  -6   21.68    0.78
  -2   2   6   20.09    0.51
  -2   2   6   20.24    0.71
  -2   2   6   20.33    0.50
   1  -2  -6   16.88    0.62
   1  -2  -6   17.06    0.64
   1  -2  -6   16.22    0.41
   1  -2  -6   16.96    0.52
   1  -2  -6   16.60    0.41
  -1   2   6   16.58    0.41
  -1   2   6   16.36    0.57
  -1   2   6   16.08    0.63
  -1   2   6   16.69    0.41
   0  -2  -6   13.15    0.34
   0  -2  -6   13.59    0.51
   0  -2  -6   13.94    0.42
   0  -2  -6   13.58    0.50
   0  -2  -6   12.85    0.33
   0   2   6   12.91    0.33
   0   2   6   12.85    0.46
   0   2   6   12.60    0.50
   0   2   6   13.10    0.32
  -1  -2  -6    0.00    0.01
  -1  -2  -6    0.04    0.02
   1   2   6    0.03    0.02
   1   2   6    0.03    0.02
   1   2   6    0.01    0.01
  -2  -2  -6   41.71    1.20
  -2  -2  -6   40.93    0.98
  -2  -2  -6   40.75    1.50
  -2  -2  -6   39.18    1.13
  -2  -2  -6   41.64    0.98
   2   2   6   39.86    1.36
   2   2   6   39.91    0.96
   2   2   6   39.27    1.50
  -3  -2  -6    0.40    0.04
  -3  -2  -6    0.41    0.02
  -3  -2  -6    0.46    0.03
  -3  -2  -6    0.43    0.05
   3   2   6    0.41    0.04
   3   2   6    0.42    0.04
   3   2   6    0.37    0.04
  -4  -2  -6    5.79    0.19
  -4  -2  -6    5.94    0.27
  -4  -2  -6    5.85    0.19
   4   2   6    5.89    0.23
   4   2   6    5.75    0.25
   4   2   6    5.52    0.25
  -5  -2  -6    2.29    0.14
  -5  -2  -6    2.09    0.09
   5   2   6    2.14    0.12
   5   2   6    2.13    0.11
  -6  -2  -6   22.57    0.63
  -6  -2  -6   21.83    0.87
   6   2   6   20.71    0.84
   6   2   6   22.70    0.77
  -7  -2  -6   11.44    0.34
  -8  -2  -6    1.56    0.07
  -9  -2  -6    9.25    0.28
 -10  -2  -6    1.71    0.08
   7  -3  -6    1.43    0.11
  -7   3   6    2.01    0.12
  -7   3   6    1.71    0.07
   6  -3  -6    1.46    0.11
  -6   3   6    1.70    0.07
   5  -3  -6    2.97    0.15
  -5   3   6    3.16    0.10
   4  -3  -6    4.47    0.19
  -4   3   6    4.60    0.13
   3  -3  -6    6.31    0.16
   3  -3  -6    6.52    0.24
  -3   3   6    6.05    0.17
   2  -3  -6    5.43    0.23
   2  -3  -6    5.15    0.14
   2  -3  -6    5.30    0.20
  -2   3   6    5.15    0.14
  -2   3   6    5.20    0.20
  -2   3   6    5.20    0.14
   1  -3  -6   18.81    0.46
   1  -3  -6   18.88    0.72
   1  -3  -6   18.68    0.47
   1  -3  -6   18.39    0.59
  -1   3   6   18.40    0.46
  -1   3   6   18.94    0.46
  -1   3   6   18.79    0.64
   0  -3  -6   13.73    0.43
   0  -3  -6   13.53    0.34
   0  -3  -6   13.51    0.53
   0  -3  -6   13.69    0.51
   0  -3  -6   13.56    0.52
   0  -3  -6   13.14    0.34
   0   3   6   13.38    0.47
   0   3   6   12.82    0.52
   0   3   6   13.68    0.33
   0   3   6   13.73    0.34
  -1  -3  -6   13.60    0.34
  -1  -3  -6   14.07    0.55
  -1  -3  -6   14.19    0.43
  -1  -3  -6   13.84    0.35
   1   3   6   13.86    0.34
   1   3   6   14.12    0.49
   1   3   6   13.17    0.53
  -2  -3  -6   44.10    1.06
  -2  -3  -6   44.13    0.92
  -2  -3  -6   45.11    1.62
  -2  -3  -6   42.44    1.61
  -2  -3  -6   41.90    1.21
  -2  -3  -6   44.52    1.30
   2   3   6   44.03    1.47
   2   3   6   42.14    1.61
   2   3   6   43.60    1.03
  -3  -3  -6    6.34    0.28
  -3  -3  -6    6.01    0.20
  -3  -3  -6    6.15    0.20
  -3  -3  -6    6.51    0.28
  -3  -3  -6    6.72    0.17
   3   3   6    6.26    0.25
   3   3   6    6.28    0.27
  -4  -3  -6    8.98    0.37
  -4  -3  -6    8.87    0.27
  -4  -3  -6    8.56    0.37
  -4  -3  -6    8.84    0.22
  -4  -3  -6    8.58    0.26
   4   3   6    8.61    0.36
   4   3   6    8.60    0.32
   4   3   6    8.24    0.35
  -5  -3  -6   35.71    1.04
  -5  -3  -6   35.35    1.32
  -5  -3  -6   34.85    0.97
   5   3   6   33.06    1.29
   5   3   6   34.63    1.18
  -6  -3  -6    0.70    0.05
  -6  -3  -6    0.90    0.08
   6   3   6    0.60    0.06
   6   3   6    0.62    0.07
  -7  -3  -6    4.80    0.16
   7   3   6    4.88    0.21
  -8  -3  -6    1.27    0.06
 -10  -3  -6    0.06    0.02
   6  -4  -6    0.75    0.08
  -6   4   6    0.88    0.05
  -6   4   6    1.11    0.10
   5  -4  -6    1.44    0.10
  -5   4   6    1.56    0.07
  -5   4   6    1.77    0.11
   4  -4  -6    2.04    0.12
  -4   4   6    2.08    0.07
   3  -4  -6    5.23    0.21
   3  -4  -6    5.57    0.14
  -3   4   6    5.50    0.15
   2  -4  -6    9.52    0.33
   2  -4  -6    9.41    0.25
   2  -4  -6    9.84    0.40
  -2   4   6    9.19    0.25
  -2   4   6    9.96    0.25
   1  -4  -6    9.14    0.37
   1  -4  -6    8.36    0.30
   1  -4  -6    8.58    0.23
  -1   4   6    8.40    0.32
  -1   4   6    8.90    0.23
  -1   4   6    9.10    0.23
   0  -4  -6   16.07    0.62
   0  -4  -6   16.74    0.40
   0  -4  -6   16.41    0.41
   0  -4  -6   16.03    0.40
   0  -4  -6   16.20    0.64
   0  -4  -6   16.05    0.51
   0   4   6   16.59    0.40
   0   4   6   15.85    0.40
   0   4   6   15.85    0.56
   0   4   6   15.58    0.61
  -1  -4  -6   30.92    0.89
  -1  -4  -6   32.18    1.18
  -1  -4  -6   31.78    0.77
  -1  -4  -6   31.28    0.95
  -1  -4  -6   30.63    1.18
  -1  -4  -6   31.33    0.76
   1   4   6   31.79    0.75
   1   4   6   30.86    1.06
   1   4   6   30.87    1.17
  -2  -4  -6   29.60    0.71
  -2  -4  -6   29.04    0.83
  -2  -4  -6   28.76    0.72
  -2  -4  -6   29.32    0.88
  -2  -4  -6   30.17    1.10
  -2  -4  -6   28.88    1.11
   2   4   6   28.68    1.10
   2   4   6   29.22    0.70
   2   4   6   29.09    1.00
  -3  -4  -6    8.56    0.19
  -3  -4  -6    8.41    0.37
  -3  -4  -6    8.58    0.27
  -3  -4  -6    8.98    0.36
  -3  -4  -6    8.55    0.27
  -3  -4  -6    8.82    0.23
   3   4   6    8.11    0.32
   3   4   6    8.43    0.35
  -4  -4  -6   12.55    0.31
  -4  -4  -6   12.38    0.38
  -4  -4  -6   12.30    0.36
  -4  -4  -6   12.06    0.50
   4   4   6   11.72    0.44
  -5  -4  -6   25.73    0.98
  -5  -4  -6   25.01    0.71
  -5  -4  -6   24.73    0.76
   5   4   6   24.87    0.87
  -6  -4  -6    0.28    0.03
  -6  -4  -6    0.26    0.05
  -6  -4  -6    0.30    0.03
   6   4   6    0.27    0.04
   6   4   6    0.27    0.05
  -7  -4  -6    6.86    0.21
  -7  -4  -6    6.13    0.27
   7   4   6    6.47    0.27
  -8  -4  -6    2.05    0.09
  -9  -4  -6    2.38    0.09
 -10  -4  -6    1.39    0.07
   6  -5  -6    0.91    0.09
  -6   5   6    1.00    0.09
  -6   5   6    0.97    0.05
   5  -5  -6    2.04    0.13
  -5   5   6    2.36    0.09
  -5   5   6    2.31    0.13
   4  -5  -6    2.26    0.13
  -4   5   6    2.33    0.08
   3  -5  -6    2.12    0.12
   3  -5  -6    2.39    0.07
  -3   5   6    2.35    0.08
   2  -5  -6    5.86    0.27
   2  -5  -6    5.70    0.22
   2  -5  -6    5.72    0.16
  -2   5   6    5.96    0.16
  -2   5   6    5.88    0.16
   1  -5  -6    7.45    0.33
   1  -5  -6    7.40    0.27
   1  -5  -6    7.31    0.20
  -1   5   6    7.75    0.20
  -1   5   6    7.57    0.20
   0  -5  -6    2.26    0.11
   0  -5  -6    2.24    0.08
   0  -5  -6    2.20    0.13
   0  -5  -6    2.20    0.08
   0   5   6    2.06    0.11
   0   5   6    2.59    0.08
   0   5   6    2.36    0.07
  -1  -5  -6    1.33    0.06
  -1  -5  -6    1.35    0.06
  -1  -5  -6    1.47    0.08
  -1  -5  -6    1.40    0.10
  -1  -5  -6    1.37    0.09
  -1  -5  -6    1.41    0.06
   1   5   6    1.38    0.05
   1   5   6    1.33    0.08
   1   5   6    1.40    0.08
  -2  -5  -6   18.93    0.55
  -2  -5  -6   18.85    0.48
  -2  -5  -6   19.24    0.47
  -2  -5  -6   19.75    0.74
  -2  -5  -6   19.59    0.59
  -2  -5  -6   18.11    0.74
   2   5   6   19.31    0.46
   2   5   6   18.51    0.66
   2   5   6   18.05    0.73
  -3  -5  -6    5.01    0.23
  -3  -5  -6    4.88    0.17
  -3  -5  -6    4.85    0.24
  -3  -5  -6    4.99    0.14
  -3  -5  -6    4.98    0.17
  -3  -5  -6    5.02    0.12
   3   5   6    4.51    0.20
   3   5   6    4.75    0.22
  -4  -5  -6    8.54    0.26
  -4  -5  -6    8.31    0.37
  -4  -5  -6    8.57    0.22
  -4  -5  -6    8.67    0.27
   4   5   6    8.02    0.32
  -5  -5  -6   22.13    0.67
  -5  -5  -6   21.91    0.86
  -5  -5  -6   21.86    0.63
   5   5   6   21.47    0.77
  -6  -5  -6    7.50    0.25
  -6  -5  -6    7.75    0.24
   6   5   6    7.21    0.30
  -7  -5  -6    5.02    0.23
  -7  -5  -6    5.08    0.17
   7   5   6    5.08    0.22
  -8  -5  -6    5.46    0.18
  -9  -5  -6    5.31    0.17
 -10  -5  -6    1.14    0.06
   5  -6  -6    0.91    0.09
  -5   6   6    0.98    0.06
   4  -6  -6    0.75    0.08
  -4   6   6    0.71    0.05
   3  -6  -6    3.31    0.16
   3  -6  -6    3.52    0.10
  -3   6   6    3.43    0.11
   2  -6  -6    5.90    0.24
   2  -6  -6    6.22    0.17
  -2   6   6    6.32    0.18
  -2   6   6    6.43    0.18
   1  -6  -6    5.81    0.28
   1  -6  -6    5.90    0.22
   1  -6  -6    5.74    0.17
  -1   6   6    6.28    0.17
  -1   6   6    5.87    0.17
   0  -6  -6    2.55    0.16
   0  -6  -6    2.64    0.09
   0  -6  -6    2.91    0.13
   0  -6  -6    2.70    0.10
   0   6   6    2.80    0.09
  -1  -6  -6   17.26    0.53
  -1  -6  -6   16.22    0.68
  -1  -6  -6   16.93    0.43
  -1  -6  -6   17.11    0.43
   1   6   6   17.39    0.42
   1   6   6   16.26    0.59
  -2  -6  -6    9.64    0.44
  -2  -6  -6   10.28    0.42
  -2  -6  -6   10.53    0.32
  -2  -6  -6   10.29    0.27
  -2  -6  -6   10.44    0.27
  -2  -6  -6   10.47    0.27
  -2  -6  -6   10.32    0.34
   2   6   6   10.11    0.42
   2   6   6   10.59    0.26
   2   6   6    9.82    0.38
  -3  -6  -6    0.12    0.02
  -3  -6  -6    0.10    0.04
  -3  -6  -6    0.10    0.03
  -3  -6  -6    0.11    0.02
   3   6   6    0.07    0.03
  -4  -6  -6    1.84    0.08
  -4  -6  -6    1.61    0.12
  -4  -6  -6    1.63    0.06
  -4  -6  -6    1.72    0.09
   4   6   6    1.70    0.10
  -5  -6  -6   18.01    0.73
  -5  -6  -6   18.46    0.56
  -5  -6  -6   19.16    0.53
  -5  -6  -6   18.28    0.46
   5   6   6   16.88    0.65
  -6  -6  -6    3.13    0.16
  -6  -6  -6    3.17    0.12
  -6  -6  -6    3.22    0.12
   6   6   6    2.97    0.15
  -7  -6  -6    4.54    0.16
  -7  -6  -6    4.58    0.17
  -8  -6  -6    3.49    0.13
  -9  -6  -6    6.90    0.22
 -10  -6  -6    2.53    0.10
   4  -7  -6    0.18    0.05
  -4   7   6    0.20    0.03
   3  -7  -6    1.46    0.10
  -3   7   6    1.24    0.06
  -3   7   6    1.20    0.06
   2  -7  -6    1.70    0.11
   2  -7  -6    1.85    0.07
  -2   7   6    1.80    0.08
  -2   7   6    1.96    0.08
   1  -7  -6    2.04    0.08
   1  -7  -6    1.99    0.11
  -1   7   6    2.10    0.08
  -1   7   6    1.88    0.08
   0  -7  -6    4.39    0.14
   0  -7  -6    4.41    0.18
   0   7   6    4.53    0.13
  -1  -7  -6    7.75    0.22
  -1  -7  -6    7.77    0.28
  -1  -7  -6    8.28    0.22
   1   7   6    8.29    0.21
  -2  -7  -6   13.53    0.35
  -2  -7  -6   13.49    0.43
  -2  -7  -6   12.81    0.34
   2   7   6   12.30    0.48
   2   7   6   13.63    0.33
  -3  -7  -6   10.12    0.27
  -3  -7  -6   10.30    0.32
  -3  -7  -6   10.04    0.33
   3   7   6    9.63    0.38
   3   7   6    9.53    0.24
  -4  -7  -6   11.92    0.39
  -4  -7  -6   12.57    0.32
  -4  -7  -6   12.31    0.38
   4   7   6   11.61    0.45
  -5  -7  -6    8.65    0.28
  -5  -7  -6    9.12    0.29
  -5  -7  -6    8.89    0.24
  -5  -7  -6    8.39    0.35
   5   7   6    8.32    0.34
  -6  -7  -6    4.94    0.18
  -6  -7  -6    4.99    0.18
  -7  -7  -6    4.10    0.16
  -7  -7  -6    4.24    0.15
  -8  -7  -6    1.00    0.07
  -8  -7  -6    1.12    0.07
  -9  -7  -6    2.94    0.12
 -10  -7  -6    1.42    0.07
 -11  -7  -6    0.30    0.03
   3  -8  -6    0.70    0.08
  -3   8   6    0.71    0.05
  -3   8   6    0.81    0.05
   2  -8  -6    1.14    0.10
   2  -8  -6    1.47    0.06
  -2   8   6    1.34    0.07
   1  -8  -6    0.32    0.04
   1  -8  -6    0.25    0.05
  -1   8   6    0.27    0.03
   0  -8  -6    6.30    0.18
   0  -8  -6    5.86    0.23
   0   8   6    6.35    0.18
  -1  -8  -6    0.98    0.05
  -1  -8  -6    0.95    0.06
  -1  -8  -6    0.86    0.07
   1   8   6    0.94    0.05
  -2  -8  -6    4.48    0.14
  -2  -8  -6    4.20    0.17
  -2  -8  -6    4.65    0.14
   2   8   6    4.66    0.13
  -3  -8  -6    3.00    0.13
  -3  -8  -6    3.05    0.13
  -3  -8  -6    3.05    0.16
  -3  -8  -6    3.08    0.10
   3   8   6    2.74    0.15
   3   8   6    2.85    0.08
  -4  -8  -6    7.72    0.26
  -4  -8  -6    7.23    0.21
  -4  -8  -6    7.51    0.25
  -5  -8  -6    4.57    0.14
  -5  -8  -6    4.60    0.18
  -5  -8  -6    4.75    0.18
  -6  -8  -6    3.21    0.13
  -6  -8  -6    3.11    0.11
  -6  -8  -6    3.40    0.14
  -7  -8  -6    2.40    0.11
  -7  -8  -6    2.69    0.11
  -8  -8  -6    6.10    0.22
  -8  -8  -6    6.08    0.21
  -9  -8  -6    2.85    0.12
  -9  -8  -6    2.57    0.11
 -10  -8  -6    0.98    0.06
   2  -9  -6    0.50    0.07
   2  -9  -6    0.62    0.04
  -2   9   6    0.60    0.05
   1  -9  -6    0.65    0.05
   1  -9  -6    0.61    0.07
  -1   9   6    0.55    0.05
   0  -9  -6    2.99    0.11
   0   9   6    2.98    0.10
  -1  -9  -6    0.21    0.05
  -1  -9  -6    0.25    0.04
   1   9   6    0.23    0.03
  -2  -9  -6    1.87    0.08
  -2  -9  -6    1.78    0.08
  -2  -9  -6    1.77    0.10
   2   9   6    1.90    0.07
  -3  -9  -6    3.62    0.12
  -3  -9  -6    3.50    0.15
   3   9   6    3.47    0.10
  -4  -9  -6    1.37    0.09
  -4  -9  -6    1.21    0.06
  -4  -9  -6    1.27    0.08
  -5  -9  -6    4.14    0.17
  -5  -9  -6    4.17    0.14
  -5  -9  -6    4.52    0.17
  -6  -9  -6    4.50    0.14
  -6  -9  -6    4.71    0.18
  -6  -9  -6    4.36    0.17
  -7  -9  -6    1.55    0.09
  -7  -9  -6    1.64    0.09
  -7  -9  -6    1.79    0.07
  -8  -9  -6    3.61    0.15
  -8  -9  -6    3.69    0.15
  -9  -9  -6    1.33    0.08
  -9  -9  -6    1.39    0.09
 -10  -9  -6    1.06    0.08
 -10  -9  -6    0.93    0.07
   0 -10  -6    0.96    0.09
   0 -10  -6    0.83    0.06
   0  10   6    0.82    0.05
  -1 -10  -6    1.25    0.07
  -1 -10  -6    1.13    0.09
   1  10   6    1.22    0.06
  -2 -10  -6    2.40    0.13
  -2 -10  -6    2.55    0.10
  -2 -10  -6    2.66    0.11
   2  10   6    2.69    0.09
  -3 -10  -6    2.76    0.11
  -3 -10  -6    2.92    0.11
  -3 -10  -6    2.84    0.14
  -4 -10  -6    0.50    0.04
  -4 -10  -6    0.39    0.05
  -5 -10  -6    2.20    0.11
  -5 -10  -6    2.20    0.09
  -5 -10  -6    2.48    0.12
  -6 -10  -6    2.33    0.12
  -6 -10  -6    2.22    0.11
  -6 -10  -6    2.14    0.09
  -7 -10  -6    3.15    0.11
  -7 -10  -6    3.39    0.14
  -7 -10  -6    3.02    0.14
  -8 -10  -6    3.23    0.14
  -8 -10  -6    3.26    0.14
  -9 -10  -6    2.31    0.11
  -9 -10  -6    2.36    0.12
  -2 -11  -6    0.81    0.06
  -2 -11  -6    0.79    0.08
   2  11   6    0.90    0.05
  -3 -11  -6    1.51    0.08
  -3 -11  -6    1.52    0.08
  -3 -11  -6    1.51    0.10
  -4 -11  -6    1.99    0.09
  -4 -11  -6    1.84    0.11
  -5 -11  -6    2.51    0.13
  -5 -11  -6    2.46    0.10
  -6 -11  -6    1.45    0.08
  -6 -11  -6    1.54    0.09
  -6 -11  -6    1.69    0.11
  -7 -11  -6    1.13    0.09
  -7 -11  -6    0.95    0.06
  -7 -11  -6    0.99    0.08
  -8 -11  -6    0.50    0.06
  -8 -11  -6    0.35    0.04
  -8 -11  -6    0.36    0.05
   5  11  -7    0.72    0.09
   4  11  -7    2.03    0.13
  -4 -11   7    1.76    0.08
  -4 -11   7    1.86    0.08
   7  10  -7    0.51    0.07
   7  10  -7    0.54    0.07
  -7 -10   7    0.46    0.05
  -7 -10   7    0.48    0.05
   6  10  -7    1.58    0.11
  -6 -10   7    1.66    0.07
   5  10  -7    2.83    0.15
  -5 -10   7    2.56    0.10
   4  10  -7    1.71    0.11
  -4 -10   7    1.44    0.07
  -4 -10   7    1.46    0.07
   3  10  -7    1.11    0.09
   3  10  -7    1.01    0.05
  -3 -10   7    0.97    0.06
   2  10  -7    1.28    0.06
   2  10  -7    1.40    0.10
  -2 -10   7    1.21    0.06
   1  10  -7    1.35    0.10
   1  10  -7    1.17    0.06
  -1 -10   7    1.17    0.06
   0  10  -7    1.18    0.05
   0  10  -7    1.09    0.06
   0  10  -7    1.15    0.10
   0 -10   7    1.05    0.05
   8   9  -7    0.51    0.07
   8   9  -7    0.51    0.07
  -8  -9   7    0.50    0.04
   7   9  -7    2.31    0.14
   7   9  -7    2.01    0.13
  -7  -9   7    2.44    0.11
  -7  -9   7    2.26    0.09
   6   9  -7    0.44    0.06
   6   9  -7    0.38    0.06
  -6  -9   7    0.34    0.04
  -6  -9   7    0.34    0.04
   5   9  -7    1.39    0.10
  -5  -9   7    1.39    0.07
   4   9  -7    5.44    0.23
  -4  -9   7    5.44    0.16
   3   9  -7    8.58    0.23
   3   9  -7    8.66    0.33
  -3  -9   7    8.39    0.23
  -3  -9   7    8.64    0.23
   2   9  -7    1.55    0.06
   2   9  -7    1.56    0.10
  -2  -9   7    1.52    0.07
   1   9  -7    3.35    0.11
   1   9  -7    3.38    0.16
  -1  -9   7    3.37    0.11
   0   9  -7    3.62    0.12
   0   9  -7    4.14    0.11
   0   9  -7    4.16    0.19
   0  -9   7    3.82    0.12
  -1   9  -7    1.12    0.05
  -1   9  -7    1.11    0.09
  -1   9  -7    1.08    0.06
   1  -9   7    1.13    0.05
   9   8  -7    0.45    0.07
  -9  -8   7    0.45    0.04
   8   8  -7    1.30    0.10
   8   8  -7    1.40    0.11
  -8  -8   7    1.41    0.06
   7   8  -7    2.08    0.13
   7   8  -7    2.11    0.13
  -7  -8   7    2.06    0.08
   6   8  -7    0.96    0.08
   6   8  -7    1.02    0.08
  -6  -8   7    1.01    0.05
  -6  -8   7    1.04    0.07
   5   8  -7    1.76    0.10
   5   8  -7    1.86    0.11
  -5  -8   7    1.86    0.10
  -5  -8   7    1.68    0.07
   4   8  -7    2.43    0.13
  -4  -8   7    2.40    0.09
   3   8  -7    0.90    0.05
   3   8  -7    1.10    0.08
  -3  -8   7    0.90    0.05
  -3  -8   7    0.93    0.05
   2   8  -7    1.12    0.05
   2   8  -7    1.17    0.09
  -2  -8   7    1.15    0.06
  -2  -8   7    1.22    0.06
   1   8  -7    8.12    0.31
   1   8  -7    8.46    0.20
   1   8  -7    8.26    0.22
  -1  -8   7    8.27    0.22
   0   8  -7    2.46    0.13
   0   8  -7    2.39    0.09
   0   8  -7    2.60    0.08
   0  -8   7    2.44    0.08
  -1   8  -7    1.93    0.08
  -1   8  -7    1.88    0.12
  -1   8  -7    1.93    0.07
  -1   8  -7    1.90    0.08
   1  -8   7    1.91    0.07
  -2   8  -7    3.25    0.12
  -2   8  -7    3.35    0.10
  -2   8  -7    3.49    0.11
  -2   8  -7    3.38    0.17
  -3   8  -7    2.20    0.09
  -3   8  -7    2.24    0.08
  -3   8  -7    2.27    0.14
   9   7  -7    0.72    0.08
  -9  -7   7    0.78    0.05
   8   7  -7    0.98    0.09
  -8  -7   7    0.98    0.05
   7   7  -7    4.36    0.20
   7   7  -7    4.21    0.19
  -7  -7   7    4.42    0.13
   6   7  -7    2.77    0.14
   6   7  -7    2.50    0.13
  -6  -7   7    2.66    0.09
   5   7  -7    1.95    0.11
   5   7  -7    2.05    0.12
  -5  -7   7    2.04    0.08
  -5  -7   7    2.02    0.10
   4   7  -7    3.61    0.16
   4   7  -7    4.08    0.17
   4   7  -7    3.91    0.10
  -4  -7   7    3.84    0.12
  -4  -7   7    3.84    0.15
   3   7  -7    7.43    0.20
   3   7  -7    7.69    0.28
  -3  -7   7    7.52    0.21
  -3  -7   7    7.63    0.21
   2   7  -7    1.10    0.08
   2   7  -7    1.11    0.05
  -2  -7   7    1.11    0.08
  -2  -7   7    1.07    0.05
  -2  -7   7    1.07    0.05
   1   7  -7    1.97    0.11
   1   7  -7    2.02    0.07
   1   7  -7    2.17    0.07
  -1  -7   7    2.03    0.07
   0   7  -7    3.76    0.16
   0   7  -7    3.58    0.10
   0   7  -7    3.65    0.11
   0   7  -7    3.69    0.12
   0  -7   7    3.51    0.11
  -1   7  -7    3.25    0.11
  -1   7  -7    3.32    0.09
  -1   7  -7    3.24    0.11
  -1   7  -7    3.40    0.16
   1  -7   7    3.21    0.10
  -2   7  -7    2.83    0.10
  -2   7  -7    2.68    0.08
  -2   7  -7    2.79    0.14
  -3   7  -7    1.76    0.11
  -3   7  -7    1.79    0.06
  -3   7  -7    1.69    0.07
  -4   7  -7    2.84    0.10
  -4   7  -7    2.89    0.16
   9   6  -7    2.40    0.15
   8   6  -7    0.37    0.06
  -8  -6   7    0.39    0.04
   7   6  -7    1.98    0.12
   7   6  -7    2.03    0.12
  -7  -6   7    2.13    0.08
   6   6  -7    0.67    0.07
   6   6  -7    0.85    0.07
  -6  -6   7    0.68    0.04
   5   6  -7    6.27    0.24
   5   6  -7    6.53    0.25
  -5  -6   7    6.29    0.18
   4   6  -7    7.61    0.28
   4   6  -7    7.99    0.19
   4   6  -7    7.80    0.29
  -4  -6   7    7.63    0.25
  -4  -6   7    7.76    0.21
   3   6  -7    5.05    0.14
   3   6  -7    4.97    0.20
   3   6  -7    4.71    0.19
  -3  -6   7    5.10    0.14
  -3  -6   7    4.82    0.21
  -3  -6   7    4.95    0.14
   2   6  -7    1.29    0.05
   2   6  -7    0.98    0.08
  -2  -6   7    1.08    0.05
  -2  -6   7    1.22    0.05
  -2  -6   7    1.15    0.08
   1   6  -7   24.10    0.52
   1   6  -7   24.21    0.59
   1   6  -7   23.63    0.79
  -1  -6   7   24.59    0.60
  -1  -6   7   24.38    0.59
  -1  -6   7   24.17    0.84
   0   6  -7    6.57    0.18
   0   6  -7    6.21    0.24
   0   6  -7    6.37    0.17
   0   6  -7    6.35    0.15
   0  -6   7    5.82    0.27
   0  -6   7    6.38    0.17
  -1   6  -7    2.88    0.14
  -1   6  -7    2.86    0.10
  -1   6  -7    2.91    0.08
  -1   6  -7    2.96    0.09
   1  -6   7    2.86    0.09
  -2   6  -7    7.07    0.20
  -2   6  -7    7.29    0.28
  -2   6  -7    7.20    0.17
   2  -6   7    7.11    0.18
  -3   6  -7    5.07    0.22
  -3   6  -7    5.14    0.15
  -3   6  -7    5.22    0.13
  -4   6  -7    3.07    0.16
  -4   6  -7    3.14    0.14
  -4   6  -7    2.96    0.10
  -5   6  -7    1.33    0.11
  -5   6  -7    1.35    0.07
  -5   6  -7    1.43    0.10
   9   5  -7    0.64    0.09
   8   5  -7    0.32    0.06
  -8  -5   7    0.23    0.03
   7   5  -7    0.03    0.03
  -7  -5   7    0.00    0.02
   6   5  -7    1.95    0.11
   6   5  -7    1.78    0.11
  -6  -5   7    1.78    0.07
   5   5  -7    9.13    0.33
   5   5  -7    8.72    0.32
  -5  -5   7    9.24    0.24
   4   5  -7    0.27    0.04
   4   5  -7    0.36    0.05
  -4  -5   7    0.29    0.04
  -4  -5   7    0.35    0.03
   3   5  -7    8.28    0.30
   3   5  -7    8.39    0.21
   3   5  -7    7.89    0.28
  -3  -5   7    8.20    0.22
  -3  -5   7    8.04    0.32
  -3  -5   7    8.54    0.22
   2   5  -7    9.03    0.23
   2   5  -7    9.09    0.32
   2   5  -7    9.10    0.20
  -2  -5   7    9.14    0.23
  -2  -5   7    8.63    0.34
  -2  -5   7    8.74    0.24
   1   5  -7   29.98    0.74
   1   5  -7   30.52    0.96
   1   5  -7   29.76    0.64
   1   5  -7   30.04    0.72
  -1  -5   7   29.81    1.02
  -1  -5   7   29.24    0.73
  -1  -5   7   29.89    0.72
   0   5  -7    2.78    0.13
   0   5  -7    2.64    0.08
   0   5  -7    2.68    0.09
   0   5  -7    2.75    0.09
   0  -5   7    2.77    0.13
   0  -5   7    2.60    0.14
   0  -5   7    2.82    0.09
  -1   5  -7    2.52    0.12
  -1   5  -7    2.40    0.08
  -1   5  -7    2.42    0.08
  -1   5  -7    2.44    0.07
   1  -5   7    2.27    0.13
   1  -5   7    2.44    0.08
  -2   5  -7   10.04    0.36
  -2   5  -7   10.03    0.27
  -2   5  -7   10.08    0.23
  -2   5  -7   10.16    0.33
  -2   5  -7    9.78    0.38
   2  -5   7   10.33    0.25
  -3   5  -7    3.16    0.14
  -3   5  -7    3.10    0.10
  -3   5  -7    3.19    0.15
  -3   5  -7    3.01    0.09
  -4   5  -7    5.06    0.21
  -4   5  -7    5.10    0.19
  -4   5  -7    4.84    0.15
  -5   5  -7    0.96    0.05
  -5   5  -7    0.99    0.08
  -5   5  -7    1.13    0.09
  -6   5  -7    1.96    0.08
  -6   5  -7    2.04    0.11
  -6   5  -7    1.94    0.13
   9   4  -7    0.12    0.04
   8   4  -7    4.57    0.21
  -8  -4   7    4.60    0.13
   7   4  -7    4.75    0.21
  -7  -4   7    4.78    0.14
   6   4  -7    2.72    0.14
   6   4  -7    2.77    0.14
  -6  -4   7    2.57    0.09
   5   4  -7    1.97    0.10
   5   4  -7    1.92    0.11
  -5  -4   7    1.79    0.11
  -5  -4   7    1.89    0.07
   4   4  -7    0.38    0.05
   4   4  -7    0.37    0.05
  -4  -4   7    0.30    0.04
  -4  -4   7    0.42    0.03
   3   4  -7   15.14    0.50
   3   4  -7   14.50    0.48
   3   4  -7   15.17    0.37
  -3  -4   7   15.10    0.38
  -3  -4   7   15.85    0.38
  -3  -4   7   14.66    0.54
   2   4  -7    5.24    0.20
   2   4  -7    5.03    0.14
   2   4  -7    5.12    0.12
   2   4  -7    4.83    0.18
  -2  -4   7    5.09    0.14
  -2  -4   7    4.89    0.21
  -2  -4   7    5.07    0.14
   1   4  -7    1.98    0.07
   1   4  -7    1.88    0.06
   1   4  -7    2.02    0.07
   1   4  -7    1.85    0.10
   1   4  -7    1.83    0.07
  -1  -4   7    1.88    0.06
  -1  -4   7    1.85    0.06
  -1  -4   7    1.92    0.10
   0   4  -7   24.74    0.54
   0   4  -7   24.91    0.61
   0   4  -7   25.64    0.62
   0   4  -7   24.34    0.80
   0  -4   7   23.65    0.93
   0  -4   7   24.99    0.60
   0  -4   7   26.21    0.86
  -1   4  -7   10.98    0.28
  -1   4  -7   10.40    0.37
  -1   4  -7   10.74    0.24
  -1   4  -7   10.98    0.27
   1  -4   7   11.82    0.39
   1  -4   7   10.84    0.27
   1  -4   7    9.66    0.43
  -2   4  -7   16.42    0.41
  -2   4  -7   16.12    0.48
  -2   4  -7   15.88    0.53
  -2   4  -7   16.08    0.35
   2  -4   7   16.06    0.39
   2  -4   7   15.43    0.63
  -3   4  -7    0.27    0.04
  -3   4  -7    0.28    0.04
  -3   4  -7    0.20    0.02
  -3   4  -7    0.20    0.03
  -4   4  -7    8.41    0.31
  -4   4  -7    8.33    0.28
  -4   4  -7    8.28    0.22
  -5   4  -7    4.38    0.17
  -5   4  -7    4.32    0.13
  -5   4  -7    4.41    0.19
  -6   4  -7    3.24    0.16
  -6   4  -7    3.22    0.14
  -6   4  -7    3.23    0.11
  -7   4  -7    0.52    0.06
  -7   4  -7    0.50    0.04
  -7   4  -7    0.67    0.08
   9   3  -7    0.67    0.08
   8   3  -7    0.70    0.08
  -8  -3   7    0.81    0.04
   7   3  -7    1.90    0.12
  -7  -3   7    1.79    0.07
   6   3  -7    7.72    0.29
  -6  -3   7    7.74    0.31
  -6  -3   7    7.82    0.21
   5   3  -7    4.44    0.19
   5   3  -7    4.73    0.19
  -5  -3   7    4.60    0.13
  -5  -3   7    4.36    0.20
   4   3  -7    3.27    0.15
   4   3  -7    3.36    0.14
  -4  -3   7    3.48    0.10
  -4  -3   7    3.15    0.15
   3   3  -7   14.64    0.47
   3   3  -7   14.72    0.36
   3   3  -7   15.06    0.49
  -3  -3   7   15.30    0.37
  -3  -3   7   13.78    0.53
  -3  -3   7   14.98    0.37
   2   3  -7   12.39    0.42
   2   3  -7   12.81    0.31
   2   3  -7   12.22    0.40
  -2  -3   7   12.01    0.45
  -2  -3   7   12.76    0.32
  -2  -3   7   13.00    0.31
   1   3  -7    0.05    0.01
   1   3  -7    0.04    0.01
   1   3  -7   -0.01    0.02
   1   3  -7    0.05    0.01
  -1  -3   7    0.04    0.01
  -1  -3   7    0.03    0.02
   0   3  -7   30.72    0.74
   0   3  -7   30.81    0.98
   0   3  -7   32.37    1.15
   0   3  -7   30.40    0.66
   0   3  -7   30.68    0.76
   0  -3   7   31.50    0.74
   0  -3   7   30.62    0.75
   0  -3   7   28.98    1.14
   0  -3   7   31.74    1.05
  -1   3  -7    5.14    0.14
  -1   3  -7    5.15    0.12
  -1   3  -7    5.23    0.15
  -1   3  -7    5.13    0.19
   1  -3   7    5.47    0.21
   1  -3   7    5.16    0.14
   1  -3   7    4.88    0.22
  -2   3  -7    7.20    0.26
  -2   3  -7    7.36    0.17
  -2   3  -7    7.45    0.24
  -2   3  -7    7.31    0.19
   2  -3   7    7.24    0.18
   2  -3   7    7.48    0.27
   2  -3   7    6.76    0.30
  -3   3  -7   12.17    0.37
  -3   3  -7   12.19    0.41
  -3   3  -7   12.56    0.31
   3  -3   7   11.36    0.49
  -4   3  -7   17.49    0.64
  -4   3  -7   18.53    0.46
  -4   3  -7   18.85    0.55
  -4   3  -7   18.91    0.61
  -5   3  -7    5.86    0.23
  -5   3  -7    5.94    0.16
  -5   3  -7    5.73    0.21
  -6   3  -7    4.55    0.20
  -6   3  -7    4.46    0.13
  -6   3  -7    4.39    0.17
  -7   3  -7    1.71    0.10
  -7   3  -7    1.80    0.07
   9   2  -7    0.48    0.07
   8   2  -7    0.08    0.04
  -8  -2   7    0.13    0.02
   7   2  -7    2.10    0.13
  -7  -2   7    2.14    0.08
   6   2  -7    2.53    0.13
  -6  -2   7    2.51    0.08
  -6  -2   7    2.39    0.13
   5   2  -7    0.59    0.06
  -5  -2   7    0.48    0.03
  -5  -2   7    0.52    0.06
   4   2  -7    0.00    0.02
   4   2  -7    0.14    0.03
  -4  -2   7    0.05    0.02
  -4  -2   7    0.02    0.03
  -4  -2   7    0.02    0.03
   3   2  -7   21.53    0.67
   3   2  -7   22.02    0.70
   3   2  -7   21.39    0.52
  -3  -2   7   20.78    0.74
  -3  -2   7   21.05    0.53
  -3  -2   7   20.70    0.81
  -3  -2   7   22.27    0.52
   2   2  -7    5.11    0.14
   2   2  -7    5.24    0.19
   2   2  -7    5.26    0.19
  -2  -2   7    4.92    0.21
  -2  -2   7    5.12    0.14
  -2  -2   7    5.04    0.14
  -2  -2   7    4.94    0.22
   1   2  -7    8.32    0.29
   1   2  -7    8.34    0.28
   1   2  -7    8.55    0.22
   1   2  -7    8.52    0.19
   1   2  -7    8.43    0.22
  -1  -2   7    7.65    0.34
  -1  -2   7    8.64    0.33
  -1  -2   7    8.66    0.32
  -1  -2   7    8.92    0.22
  -1  -2   7    8.64    0.22
   0   2  -7   10.94    0.42
   0   2  -7   10.45    0.24
   0   2  -7   10.21    0.35
   0   2  -7   10.70    0.27
   0   2  -7   10.53    0.33
   0   2  -7   10.65    0.27
   0  -2   7   10.68    0.26
   0  -2   7   10.04    0.42
   0  -2   7   10.17    0.26
   0  -2   7   10.36    0.41
   0  -2   7   11.17    0.38
  -1   2  -7   19.22    0.47
  -1   2  -7   18.72    0.56
  -1   2  -7   19.17    0.42
  -1   2  -7   19.96    0.74
  -1   2  -7   19.33    0.48
  -1   2  -7   19.01    0.62
   1  -2   7   20.17    0.67
   1  -2   7   19.61    0.47
   1  -2   7   18.00    0.72
  -2   2  -7   17.40    0.43
  -2   2  -7   16.95    0.56
  -2   2  -7   18.26    0.68
  -2   2  -7   17.26    0.37
  -2   2  -7   17.11    0.51
   2  -2   7   17.79    0.60
   2  -2   7   16.18    0.66
   2  -2   7   17.78    0.42
  -3   2  -7    8.28    0.34
  -3   2  -7    7.93    0.20
  -3   2  -7    7.64    0.17
  -3   2  -7    7.91    0.28
  -3   2  -7    7.83    0.25
   3  -2   7    7.46    0.29
   3  -2   7    7.23    0.32
  -4   2  -7    4.86    0.13
  -4   2  -7    4.95    0.24
  -4   2  -7    4.88    0.19
  -4   2  -7    4.83    0.17
   4  -2   7    4.46    0.23
  -5   2  -7   10.41    0.27
  -5   2  -7   10.38    0.37
  -5   2  -7   10.11    0.32
  -6   2  -7    7.72    0.29
  -6   2  -7    7.63    0.20
  -6   2  -7    7.77    0.26
  -7   2  -7    1.79    0.11
  -7   2  -7    1.67    0.09
  -8   2  -7    3.74    0.16
  -8   2  -7    3.99    0.19
   9   1  -7    0.55    0.08
  -9  -1   7    0.72    0.05
   8   1  -7    0.68    0.08
  -8  -1   7    0.74    0.04
   7   1  -7    1.12    0.09
  -7  -1   7    1.02    0.05
   6   1  -7    2.40    0.13
  -6  -1   7    2.18    0.08
   5   1  -7    4.58    0.19
  -5  -1   7    4.52    0.13
  -5  -1   7    4.24    0.19
   4   1  -7    1.74    0.10
  -4  -1   7    1.75    0.06
  -4  -1   7    1.62    0.09
   3   1  -7   15.06    0.49
   3   1  -7   14.47    0.36
   3   1  -7   14.43    0.36
   3   1  -7   15.36    0.48
  -3  -1   7   14.99    0.37
  -3  -1   7   13.65    0.52
  -3  -1   7   14.19    0.56
  -3  -1   7   15.42    0.36
   2   1  -7   14.04    0.43
   2   1  -7   13.28    0.33
   2   1  -7   13.31    0.44
  -2  -1   7   13.82    0.33
  -2  -1   7   12.50    0.51
  -2  -1   7   13.06    0.33
  -2  -1   7   12.62    0.47
   1   1  -7    2.91    0.09
   1   1  -7    2.86    0.08
   1   1  -7    2.81    0.09
   1   1  -7    2.93    0.12
   1   1  -7    2.82    0.12
   1   1  -7    3.02    0.14
  -1  -1   7    3.37    0.14
  -1  -1   7    3.47    0.09
  -1  -1   7    2.89    0.09
  -1  -1   7    2.94    0.13
   0   1  -7   12.68    0.28
   0   1  -7   12.48    0.42
   0   1  -7   12.81    0.33
   0   1  -7   13.08    0.50
   0   1  -7   13.15    0.32
   0   1  -7   12.97    0.40
   0  -1   7   13.05    0.32
   0  -1   7   12.86    0.50
   0  -1   7   12.71    0.49
   0  -1   7   13.38    0.46
   0  -1   7   12.58    0.32
  -1   1  -7   12.13    0.30
  -1   1  -7   12.97    0.48
  -1   1  -7   11.95    0.36
  -1   1  -7   11.87    0.27
  -1   1  -7   12.06    0.40
  -1   1  -7   12.03    0.31
   1  -1   7   11.64    0.47
   1  -1   7   12.56    0.43
   1  -1   7   11.40    0.48
   1  -1   7   12.29    0.30
  -2   1  -7    6.57    0.23
  -2   1  -7    6.59    0.17
  -2   1  -7    6.39    0.21
  -2   1  -7    6.36    0.15
  -2   1  -7    6.71    0.28
   2  -1   7    6.50    0.25
   2  -1   7    6.49    0.27
   2  -1   7    6.30    0.16
  -3   1  -7    0.13    0.01
  -3   1  -7    0.09    0.03
  -3   1  -7    0.12    0.02
  -3   1  -7    0.15    0.03
  -3   1  -7    0.16    0.02
   3  -1   7    0.09    0.03
   3  -1   7    0.11    0.03
  -4   1  -7    7.50    0.19
  -4   1  -7    7.40    0.33
  -4   1  -7    7.57    0.26
  -4   1  -7    7.62    0.24
   4  -1   7    6.55    0.31
   4  -1   7    7.26    0.28
  -5   1  -7    8.08    0.29
  -5   1  -7    7.69    0.25
  -5   1  -7    8.01    0.20
  -6   1  -7    2.23    0.12
  -6   1  -7    2.39    0.10
  -7   1  -7    4.99    0.21
  -7   1  -7    5.05    0.18
  -8   1  -7    5.14    0.22
  -8   1  -7    5.14    0.19
  -9   1  -7    2.89    0.13
  -9   1  -7    2.94    0.16
   8   0  -7    0.42    0.07
  -8   0   7    0.58    0.04
   7   0  -7    2.66    0.15
  -7   0   7    2.77    0.09
   6   0  -7    6.10    0.25
  -6   0   7    6.23    0.17
   5   0  -7    4.60    0.19
  -5   0   7    4.54    0.13
   4   0  -7    1.30    0.08
  -4   0   7    1.09    0.07
  -4   0   7    1.16    0.05
   3   0  -7    7.05    0.24
   3   0  -7    6.45    0.17
  -3   0   7    6.63    0.18
  -3   0   7    6.28    0.25
   2   0  -7    4.96    0.18
   2   0  -7    4.78    0.18
   2   0  -7    4.76    0.13
  -2   0   7    4.77    0.13
  -2   0   7    4.66    0.20
  -2   0   7    4.77    0.13
  -2   0   7    4.50    0.19
   1   0  -7    7.51    0.19
   1   0  -7    7.34    0.25
   1   0  -7    7.53    0.29
   1   0  -7    7.26    0.25
   1   0  -7    7.35    0.19
  -1   0   7    7.05    0.19
  -1   0   7    7.04    0.27
  -1   0   7    7.20    0.30
  -1   0   7    7.44    0.19
   0   0  -7   20.36    0.50
   0   0  -7   19.93    0.64
   0   0  -7   20.46    0.76
   0   0  -7   20.24    0.62
   0   0  -7   20.30    0.49
   0   0  -7   20.11    0.44
   0   0   7   20.00    0.76
   0   0   7   19.38    0.69
   0   0   7   20.48    0.49
   0   0   7   20.01    0.49
  -1   0  -7    6.07    0.17
  -1   0  -7    6.09    0.17
  -1   0  -7    5.78    0.14
  -1   0  -7    6.42    0.26
  -1   0  -7    6.29    0.20
  -1   0  -7    5.98    0.21
  -1   0  -7    6.10    0.16
   1   0   7    6.28    0.26
   1   0   7    6.10    0.16
   1   0   7    5.91    0.25
   1   0   7    6.12    0.24
  -2   0  -7   16.32    0.48
  -2   0  -7   16.31    0.35
  -2   0  -7   16.80    0.64
  -2   0  -7   16.55    0.41
  -2   0  -7   16.27    0.52
   2   0   7   16.25    0.39
   2   0   7   15.77    0.62
   2   0   7   16.25    0.57
   2   0   7   16.03    0.63
  -3   0  -7   20.88    0.60
  -3   0  -7   21.39    0.51
  -3   0  -7   20.48    0.44
  -3   0  -7   21.40    0.81
  -3   0  -7   20.85    0.66
   3   0   7   20.67    0.72
   3   0   7   19.54    0.79
  -4   0  -7   19.63    0.62
  -4   0  -7   19.16    0.56
  -4   0  -7   20.60    0.77
  -4   0  -7   19.61    0.48
   4   0   7   18.60    0.75
   4   0   7   18.80    0.68
  -5   0  -7    2.77    0.16
  -5   0  -7    2.70    0.11
  -5   0  -7    2.63    0.12
   5   0   7    2.80    0.13
   5   0   7    2.51    0.15
  -6   0  -7    3.88    0.15
  -6   0  -7    4.17    0.17
  -7   0  -7    6.07    0.24
  -7   0  -7    6.01    0.21
  -8   0  -7    4.68    0.20
  -8   0  -7    4.82    0.17
  -9   0  -7    1.41    0.10
  -9   0  -7    1.28    0.08
   8  -1  -7    0.27    0.06
  -8   1   7    0.27    0.03
   7  -1  -7    4.24    0.20
   6  -1  -7    0.13    0.04
  -6   1   7    0.02    0.02
   5  -1  -7    3.81    0.18
  -5   1   7    4.05    0.12
   4  -1  -7    3.96    0.17
  -4   1   7    3.79    0.11
  -4   1   7    3.51    0.16
   3  -1  -7   20.58    0.62
   3  -1  -7   19.11    0.47
  -3   1   7   18.74    0.48
  -3   1   7   18.84    0.67
   2  -1  -7    0.65    0.04
   2  -1  -7    0.76    0.06
   2  -1  -7    0.61    0.03
  -2   1   7    0.61    0.05
  -2   1   7    0.59    0.03
  -2   1   7    0.60    0.05
  -2   1   7    0.60    0.03
   1  -1  -7    0.11    0.02
   1  -1  -7    0.17    0.03
   1  -1  -7    0.08    0.02
   1  -1  -7    0.13    0.03
   1  -1  -7    0.19    0.02
  -1   1   7    0.06    0.02
  -1   1   7    0.12    0.01
  -1   1   7    0.07    0.02
  -1   1   7    0.13    0.03
   0  -1  -7    4.04    0.14
   0  -1  -7    3.92    0.18
   0  -1  -7    3.79    0.10
   0  -1  -7    3.98    0.14
   0  -1  -7    3.92    0.11
   0  -1  -7    3.87    0.11
   0   1   7    3.75    0.11
   0   1   7    3.53    0.17
   0   1   7    3.79    0.16
   0   1   7    3.84    0.11
  -1  -1  -7   30.53    0.66
  -1  -1  -7   31.75    1.16
  -1  -1  -7   31.88    0.77
  -1  -1  -7   31.56    0.75
  -1  -1  -7   32.54    0.94
  -1  -1  -7   30.74    0.97
   1   1   7   30.11    1.06
   1   1   7   30.87    0.74
   1   1   7   30.18    1.16
  -2  -1  -7    5.00    0.23
  -2  -1  -7    4.84    0.17
  -2  -1  -7    4.83    0.12
  -2  -1  -7    4.98    0.17
  -2  -1  -7    4.90    0.14
   2   1   7    5.21    0.20
   2   1   7    4.88    0.21
   2   1   7    4.62    0.22
   2   1   7    4.90    0.12
  -3  -1  -7    0.32    0.02
  -3  -1  -7    0.34    0.04
  -3  -1  -7    0.30    0.04
  -3  -1  -7    0.25    0.03
   3   1   7    0.35    0.04
   3   1   7    0.30    0.04
  -4  -1  -7   29.68    0.92
  -4  -1  -7   30.57    0.71
  -4  -1  -7   29.24    0.83
  -4  -1  -7   29.90    1.12
   4   1   7   29.36    1.01
   4   1   7   27.31    1.10
  -5  -1  -7   43.60    1.34
  -5  -1  -7   42.20    1.61
  -5  -1  -7   43.78    1.20
   5   1   7   42.00    1.59
   5   1   7   41.80    1.44
  -6  -1  -7    4.66    0.18
  -6  -1  -7    4.46    0.16
   6   1   7    5.06    0.20
  -7  -1  -7    3.00    0.12
  -8  -1  -7    9.41    0.30
  -9  -1  -7    3.21    0.13
   7  -2  -7    1.22    0.10
  -7   2   7    1.35    0.06
   6  -2  -7    0.02    0.03
  -6   2   7    0.00    0.02
   5  -2  -7    5.22    0.22
   4  -2  -7    2.24    0.12
  -4   2   7    2.16    0.07
   3  -2  -7    1.27    0.08
   3  -2  -7    1.21    0.05
  -3   2   7    1.21    0.05
  -3   2   7    1.21    0.07
   2  -2  -7    9.19    0.31
   2  -2  -7    8.71    0.23
  -2   2   7    8.70    0.23
  -2   2   7    8.53    0.22
  -2   2   7    8.57    0.32
   1  -2  -7    6.58    0.22
   1  -2  -7    5.97    0.17
   1  -2  -7    6.12    0.26
   1  -2  -7    6.19    0.17
  -1   2   7    5.90    0.25
  -1   2   7    5.94    0.24
  -1   2   7    6.25    0.16
  -1   2   7    6.41    0.16
   0  -2  -7   19.28    0.48
   0  -2  -7   19.01    0.73
   0  -2  -7   20.22    0.59
   0  -2  -7   18.60    0.47
   0   2   7   18.59    0.66
   0   2   7   19.34    0.46
   0   2   7   19.29    0.47
   0   2   7   18.04    0.72
  -1  -2  -7   18.03    0.39
  -1  -2  -7   17.90    0.44
  -1  -2  -7   17.95    0.45
  -1  -2  -7   18.63    0.55
  -1  -2  -7   17.56    0.69
   1   2   7   17.96    0.43
   1   2   7   17.50    0.62
   1   2   7   17.59    0.69
  -2  -2  -7    0.47    0.03
  -2  -2  -7    0.43    0.02
  -2  -2  -7    0.42    0.05
  -2  -2  -7    0.40    0.04
  -2  -2  -7    0.41    0.03
  -2  -2  -7    0.48    0.03
  -2  -2  -7    0.36    0.03
   2   2   7    0.36    0.02
   2   2   7    0.49    0.05
   2   2   7    0.48    0.05
  -3  -2  -7    5.83    0.19
  -3  -2  -7    5.88    0.16
  -3  -2  -7    5.86    0.19
  -3  -2  -7    5.76    0.13
  -3  -2  -7    5.83    0.27
   3   2   7    5.78    0.23
   3   2   7    5.75    0.25
  -4  -2  -7   21.11    0.60
  -4  -2  -7   21.22    0.51
  -4  -2  -7   21.29    0.81
   4   2   7   20.73    0.73
   4   2   7   19.60    0.79
  -5  -2  -7    0.22    0.03
  -5  -2  -7    0.38    0.06
   5   2   7    0.24    0.04
   5   2   7    0.12    0.04
  -6  -2  -7    0.07    0.02
   6   2   7    0.02    0.03
  -7  -2  -7    8.38    0.26
  -8  -2  -7    9.18    0.29
  -9  -2  -7    1.34    0.07
 -10  -2  -7    1.35    0.08
   7  -3  -7    0.16    0.05
  -7   3   7    0.17    0.03
   6  -3  -7    1.97    0.12
   5  -3  -7    2.61    0.14
  -5   3   7    2.64    0.09
   4  -3  -7    3.39    0.16
  -4   3   7    3.44    0.11
   3  -3  -7    1.53    0.06
   3  -3  -7    1.49    0.09
  -3   3   7    1.57    0.06
   2  -3  -7   20.96    0.51
   2  -3  -7   20.82    0.66
  -2   3   7   20.36    0.51
  -2   3   7   20.65    0.71
  -2   3   7   20.46    0.51
   1  -3  -7    7.22    0.20
   1  -3  -7    7.64    0.32
   1  -3  -7    7.22    0.20
   1  -3  -7    7.50    0.26
  -1   3   7    7.41    0.19
  -1   3   7    7.78    0.20
  -1   3   7    6.90    0.28
   0  -3  -7    6.00    0.21
   0  -3  -7    5.93    0.26
   0  -3  -7    5.91    0.16
   0  -3  -7    5.60    0.16
   0   3   7    5.75    0.23
   0   3   7    5.88    0.16
   0   3   7    5.74    0.25
   0   3   7    5.78    0.16
  -1  -3  -7    8.19    0.22
  -1  -3  -7    8.07    0.34
  -1  -3  -7    8.07    0.21
  -1  -3  -7    8.19    0.27
  -1  -3  -7    8.02    0.26
   1   3   7    7.96    0.33
   1   3   7    8.16    0.31
   1   3   7    8.24    0.21
  -2  -3  -7   14.96    0.37
  -2  -3  -7   14.59    0.32
  -2  -3  -7   14.74    0.37
  -2  -3  -7   14.93    0.46
  -2  -3  -7   14.66    0.58
  -2  -3  -7   14.34    0.43
   2   3   7   14.84    0.52
   2   3   7   14.39    0.57
   2   3   7   14.57    0.36
  -3  -3  -7    6.11    0.19
  -3  -3  -7    5.56    0.13
  -3  -3  -7    5.54    0.26
  -3  -3  -7    5.75    0.16
  -3  -3  -7    5.54    0.19
  -3  -3  -7    5.71    0.16
   3   3   7    5.51    0.23
  -4  -3  -7   11.07    0.47
  -4  -3  -7   10.89    0.28
  -4  -3  -7   11.40    0.34
  -4  -3  -7   11.20    0.35
   4   3   7   10.92    0.41
  -5  -3  -7    0.62    0.05
   5   3   7    0.88    0.07
   5   3   7    0.65    0.06
  -6  -3  -7   23.36    0.67
   6   3   7   23.47    0.82
  -7  -3  -7    1.25    0.07
   7   3   7    1.14    0.09
  -8  -3  -7    2.79    0.11
  -9  -3  -7    3.73    0.14
 -10  -3  -7    2.96    0.12
   6  -4  -7    1.60    0.12
  -6   4   7    2.03    0.13
   5  -4  -7    0.44    0.07
  -5   4   7    0.53    0.04
   4  -4  -7    1.18    0.09
  -4   4   7    1.31    0.06
   3  -4  -7    2.87    0.08
   3  -4  -7    2.66    0.14
  -3   4   7    2.73    0.09
   2  -4  -7    2.47    0.08
   2  -4  -7    2.41    0.12
  -2   4   7    2.45    0.08
  -2   4   7    2.34    0.08
   1  -4  -7    1.62    0.11
   1  -4  -7    1.55    0.06
   1  -4  -7    1.61    0.09
  -1   4   7    1.53    0.06
  -1   4   7    1.50    0.09
  -1   4   7    1.72    0.06
   0  -4  -7    5.78    0.17
   0  -4  -7    5.82    0.27
   0  -4  -7    6.07    0.17
   0  -4  -7    5.71    0.17
   0  -4  -7    5.86    0.21
   0   4   7    6.03    0.16
   0   4   7    6.39    0.16
   0   4   7    5.95    0.24
  -1  -4  -7    6.04    0.28
  -1  -4  -7    6.66    0.28
  -1  -4  -7    6.38    0.18
  -1  -4  -7    6.44    0.22
  -1  -4  -7    6.38    0.17
   1   4   7    6.36    0.17
   1   4   7    6.06    0.27
   1   4   7    6.17    0.25
  -2  -4  -7   25.37    0.62
  -2  -4  -7   26.43    0.97
  -2  -4  -7   25.41    0.73
  -2  -4  -7   24.56    0.97
  -2  -4  -7   25.37    0.77
  -2  -4  -7   25.46    0.63
   2   4   7   24.80    0.87
   2   4   7   25.36    0.61
   2   4   7   24.68    0.96
  -3  -4  -7    2.56    0.10
  -3  -4  -7    2.53    0.11
  -3  -4  -7    2.55    0.08
  -3  -4  -7    2.82    0.15
  -3  -4  -7    2.47    0.07
   3   4   7    2.45    0.13
  -4  -4  -7   14.70    0.45
  -4  -4  -7   14.58    0.37
  -4  -4  -7   14.48    0.43
  -4  -4  -7   14.15    0.59
  -4  -4  -7   14.84    0.37
   4   4   7   13.92    0.52
  -5  -4  -7    3.35    0.12
  -5  -4  -7    3.08    0.18
  -5  -4  -7    3.28    0.12
   5   4   7    2.97    0.15
  -6  -4  -7   23.75    0.68
   6   4   7   23.65    0.84
  -7  -4  -7    1.56    0.08
  -8  -4  -7    0.97    0.06
  -9  -4  -7    8.43    0.26
 -10  -4  -7    1.63    0.08
   5  -5  -7    1.28    0.10
  -5   5   7    1.48    0.07
   4  -5  -7    1.62    0.11
  -4   5   7    1.92    0.07
   3  -5  -7    1.41    0.10
   3  -5  -7    1.47    0.05
  -3   5   7    1.38    0.06
  -3   5   7    1.54    0.06
   2  -5  -7    2.40    0.13
   2  -5  -7    2.45    0.08
  -2   5   7    2.44    0.09
  -2   5   7    2.46    0.09
   1  -5  -7    7.96    0.35
   1  -5  -7    7.92    0.22
   1  -5  -7    7.91    0.29
  -1   5   7    7.99    0.21
  -1   5   7    8.11    0.21
   0  -5  -7    0.93    0.08
   0  -5  -7    0.79    0.05
   0  -5  -7    0.76    0.06
   0  -5  -7    0.82    0.05
   0   5   7    0.82    0.06
   0   5   7    0.77    0.04
  -1  -5  -7    0.03    0.02
  -1  -5  -7    0.02    0.02
  -1  -5  -7    0.03    0.02
  -1  -5  -7    0.01    0.02
  -1  -5  -7   -0.03    0.02
   1   5   7    0.02    0.02
   1   5   7   -0.03    0.01
  -2  -5  -7    7.80    0.26
  -2  -5  -7    7.78    0.21
  -2  -5  -7    7.40    0.34
  -2  -5  -7    8.06    0.34
  -2  -5  -7    7.78    0.21
  -2  -5  -7    7.57    0.25
   2   5   7    7.96    0.20
   2   5   7    7.50    0.30
  -3  -5  -7    5.79    0.16
  -3  -5  -7    5.48    0.27
  -3  -5  -7    5.72    0.14
  -3  -5  -7    5.78    0.20
  -3  -5  -7    5.71    0.20
   3   5   7    5.60    0.23
  -4  -5  -7    5.43    0.15
  -4  -5  -7    5.36    0.19
  -4  -5  -7    5.28    0.26
  -4  -5  -7    5.53    0.19
   4   5   7    4.99    0.22
  -5  -5  -7    7.90    0.21
  -5  -5  -7    7.86    0.21
  -5  -5  -7    7.68    0.26
  -5  -5  -7    7.79    0.25
   5   5   7    7.37    0.31
  -6  -5  -7    4.36    0.16
  -6  -5  -7    4.48    0.16
  -7  -5  -7    8.79    0.28
  -8  -5  -7    2.05    0.09
  -9  -5  -7    3.62    0.13
 -10  -5  -7    0.07    0.02
   4  -6  -7    0.79    0.08
  -4   6   7    0.93    0.05
   3  -6  -7    2.14    0.07
   3  -6  -7    1.90    0.12
  -3   6   7    2.08    0.08
  -3   6   7    2.08    0.08
   2  -6  -7    3.06    0.10
   2  -6  -7    2.86    0.15
  -2   6   7    3.19    0.10
  -2   6   7    2.85    0.10
   1  -6  -7    4.10    0.18
   1  -6  -7    4.09    0.13
  -1   6   7    4.22    0.13
  -1   6   7    4.44    0.13
   0  -6  -7    7.27    0.26
   0  -6  -7    6.93    0.20
   0   6   7    7.12    0.19
  -1  -6  -7   10.05    0.27
  -1  -6  -7   10.27    0.27
  -1  -6  -7    9.56    0.43
  -1  -6  -7   10.04    0.34
   1   6   7    9.53    0.37
   1   6   7   10.22    0.26
  -2  -6  -7    8.71    0.40
  -2  -6  -7    8.93    0.24
  -2  -6  -7    9.71    0.31
  -2  -6  -7    9.06    0.25
   2   6   7    8.47    0.34
   2   6   7    9.34    0.23
  -3  -6  -7    0.83    0.05
  -3  -6  -7    0.94    0.09
  -3  -6  -7    1.00    0.06
  -3  -6  -7    0.75    0.07
   3   6   7    0.91    0.07
  -4  -6  -7    2.59    0.09
  -4  -6  -7    2.67    0.12
  -4  -6  -7    2.53    0.11
  -4  -6  -7    2.62    0.08
   4   6   7    2.40    0.13
  -5  -6  -7    4.10    0.16
  -5  -6  -7    4.22    0.13
  -5  -6  -7    4.12    0.15
  -6  -6  -7    1.13    0.07
  -6  -6  -7    1.14    0.07
  -7  -6  -7    1.42    0.08
  -7  -6  -7    1.57    0.08
  -8  -6  -7    1.50    0.08
  -9  -6  -7    4.50    0.16
 -10  -6  -7    1.37    0.07
   3  -7  -7    0.31    0.06
  -3   7   7    0.45    0.04
  -3   7   7    0.30    0.04
   2  -7  -7    0.69    0.05
   2  -7  -7    0.67    0.07
  -2   7   7    0.68    0.05
  -2   7   7    0.75    0.05
   1  -7  -7    4.05    0.13
   1  -7  -7    4.04    0.18
  -1   7   7    4.20    0.13
   0  -7  -7    1.83    0.11
   0  -7  -7    1.97    0.08
   0   7   7    1.85    0.07
  -1  -7  -7    0.84    0.05
  -1  -7  -7    0.92    0.07
  -1  -7  -7    0.90    0.06
   1   7   7    0.88    0.05
  -2  -7  -7    8.52    0.23
  -2  -7  -7    8.38    0.23
  -2  -7  -7    8.41    0.29
   2   7   7    8.63    0.22
   2   7   7    7.83    0.33
  -3  -7  -7    5.95    0.17
  -3  -7  -7    5.65    0.21
  -3  -7  -7    5.71    0.21
   3   7   7    5.45    0.24
  -4  -7  -7    3.26    0.11
  -4  -7  -7    3.40    0.14
  -4  -7  -7    3.34    0.14
  -5  -7  -7    5.17    0.19
  -5  -7  -7    5.46    0.19
  -5  -7  -7    5.42    0.16
  -6  -7  -7    5.73    0.21
  -6  -7  -7    5.87    0.17
  -6  -7  -7    5.82    0.20
  -7  -7  -7    3.11    0.13
  -7  -7  -7    2.92    0.13
  -8  -7  -7    1.78    0.09
  -9  -7  -7    4.02    0.15
 -10  -7  -7    1.68    0.08
   2  -8  -7    0.93    0.05
   2  -8  -7    0.95    0.09
  -2   8   7    0.82    0.05
   1  -8  -7    2.25    0.09
   1  -8  -7    1.97    0.12
  -1   8   7    2.14    0.08
   0  -8  -7    0.01    0.03
   0  -8  -7   -0.01    0.03
   0   8   7    0.05    0.02
  -1  -8  -7    2.61    0.10
  -1  -8  -7    2.51    0.13
  -1  -8  -7    2.70    0.10
   1   8   7    2.65    0.09
  -2  -8  -7    4.64    0.15
  -2  -8  -7    4.57    0.18
  -2  -8  -7    4.49    0.15
   2   8   7    4.73    0.13
  -3  -8  -7    1.43    0.08
  -3  -8  -7    1.41    0.07
  -4  -8  -7    1.57    0.07
  -4  -8  -7    1.77    0.10
  -4  -8  -7    1.60    0.09
  -5  -8  -7    5.73    0.18
  -5  -8  -7    5.92    0.21
  -5  -8  -7    6.03    0.21
  -6  -8  -7    2.23    0.09
  -6  -8  -7    2.21    0.10
  -6  -8  -7    2.23    0.11
  -7  -8  -7    2.70    0.12
  -7  -8  -7    2.65    0.12
  -8  -8  -7    0.99    0.07
  -8  -8  -7    0.93    0.07
  -9  -8  -7    2.95    0.12
 -10  -8  -7    1.45    0.08
   1  -9  -7    0.64    0.08
   1  -9  -7    0.50    0.05
  -1   9   7    0.38    0.04
   0  -9  -7    1.03    0.06
   0  -9  -7    0.93    0.09
   0   9   7    0.95    0.05
  -1  -9  -7    2.35    0.10
  -1  -9  -7    2.24    0.12
   1   9   7    2.49    0.09
  -2  -9  -7    1.11    0.07
  -2  -9  -7    1.16    0.08
  -2  -9  -7    1.16    0.06
   2   9   7    1.07    0.05
  -3  -9  -7    0.34    0.05
  -3  -9  -7    0.33    0.04
  -4  -9  -7    3.48    0.15
  -4  -9  -7    3.26    0.14
  -4  -9  -7    3.28    0.12
  -5  -9  -7    3.54    0.12
  -5  -9  -7    3.85    0.16
  -5  -9  -7    3.46    0.15
  -6  -9  -7    3.80    0.16
  -6  -9  -7    3.47    0.15
  -6  -9  -7    3.52    0.12
  -7  -9  -7    2.02    0.11
  -7  -9  -7    2.14    0.09
  -7  -9  -7    2.13    0.11
  -8  -9  -7    0.17    0.04
  -8  -9  -7    0.29    0.05
  -9  -9  -7    2.83    0.12
  -9  -9  -7    2.90    0.13
  -1 -10  -7    0.37    0.06
  -1 -10  -7    0.49    0.05
   1  10   7    0.52    0.04
  -2 -10  -7    2.38    0.10
  -2 -10  -7    2.29    0.13
   2  10   7    2.42    0.08
  -3 -10  -7    1.85    0.09
  -3 -10  -7    1.88    0.11
  -3 -10  -7    1.88    0.09
  -4 -10  -7    1.80    0.08
  -4 -10  -7    1.85    0.10
  -5 -10  -7    0.28    0.04
  -5 -10  -7    0.22    0.04
  -5 -10  -7    0.31    0.05
  -6 -10  -7    1.23    0.09
  -6 -10  -7    1.27    0.08
  -6 -10  -7    1.33    0.07
  -7 -10  -7    1.56    0.10
  -7 -10  -7    1.34    0.09
  -7 -10  -7    1.53    0.07
  -8 -10  -7    2.30    0.12
  -8 -10  -7    2.27    0.10
  -8 -10  -7    2.32    0.12
  -9 -10  -7    1.61    0.10
  -9 -10  -7    1.71    0.10
  -3 -11  -7    0.95    0.06
  -3 -11  -7    0.70    0.08
  -3 -11  -7    0.89    0.06
  -4 -11  -7    1.01    0.06
  -4 -11  -7    0.89    0.08
  -5 -11  -7    1.28    0.09
  -5 -11  -7    1.23    0.07
  -6 -11  -7    1.66    0.11
  -6 -11  -7    1.54    0.10
  -6 -11  -7    1.43    0.08
  -7 -11  -7    0.53    0.06
  -7 -11  -7    0.38    0.05
  -7 -11  -7    0.43    0.04
   6  10  -8    0.98    0.10
  -6 -10   8    1.05    0.06
   5  10  -8    2.55    0.14
  -5 -10   8    2.29    0.09
   4  10  -8    2.22    0.13
  -4 -10   8    2.01    0.09
  -4 -10   8    2.17    0.09
   3  10  -8    1.53    0.11
   3  10  -8    1.52    0.06
  -3 -10   8    1.46    0.07
   2  10  -8    1.23    0.10
   2  10  -8    1.30    0.06
  -2 -10   8    1.07    0.06
   7   9  -8    0.93    0.09
   7   9  -8    1.10    0.10
  -7  -9   8    0.87    0.06
   6   9  -8    0.82    0.08
  -6  -9   8    0.84    0.05
   5   9  -8    0.55    0.07
  -5  -9   8    0.60    0.05
   4   9  -8    3.96    0.19
  -4  -9   8    4.05    0.13
  -4  -9   8    3.86    0.13
   3   9  -8    2.65    0.14
   3   9  -8    2.55    0.09
  -3  -9   8    2.40    0.09
  -3  -9   8    2.73    0.10
   2   9  -8    2.97    0.15
   2   9  -8    2.98    0.10
  -2  -9   8    2.90    0.10
   1   9  -8    1.94    0.08
   1   9  -8    1.93    0.12
  -1  -9   8    1.97    0.08
   0   9  -8    2.24    0.08
   0   9  -8    2.12    0.08
   0   9  -8    2.16    0.13
   0  -9   8    2.23    0.08
  -1   9  -8    2.22    0.09
  -1   9  -8    2.45    0.14
  -1   9  -8    2.44    0.08
   1  -9   8    2.49    0.08
   8   8  -8    2.06    0.13
   8   8  -8    2.16    0.14
  -8  -8   8    2.07    0.08
   7   8  -8    0.73    0.08
   7   8  -8    0.84    0.08
  -7  -8   8    0.82    0.05
   6   8  -8    1.68    0.11
   6   8  -8    1.74    0.12
  -6  -8   8    1.72    0.08
   5   8  -8    2.02    0.12
  -5  -8   8    2.02    0.08
   4   8  -8    1.41    0.10
  -4  -8   8    1.41    0.07
   3   8  -8    1.54    0.10
   3   8  -8    1.45    0.06
  -3  -8   8    1.44    0.07
  -3  -8   8    1.47    0.07
   2   8  -8    1.84    0.11
   2   8  -8    1.76    0.07
  -2  -8   8    1.63    0.07
   1   8  -8    2.76    0.14
   1   8  -8    2.70    0.09
   1   8  -8    2.93    0.08
  -1  -8   8    2.68    0.09
   0   8  -8    3.18    0.10
   0   8  -8    3.25    0.09
   0   8  -8    3.01    0.15
   0  -8   8    3.10    0.10
  -1   8  -8    1.63    0.07
  -1   8  -8    1.69    0.11
  -1   8  -8    1.70    0.06
   1  -8   8    1.77    0.06
  -2   8  -8    1.50    0.11
  -2   8  -8    1.64    0.06
  -2   8  -8    1.68    0.07
  -2   8  -8    1.60    0.07
   8   7  -8    1.09    0.09
  -8  -7   8    1.05    0.06
   7   7  -8    3.55    0.18
   7   7  -8    3.42    0.17
  -7  -7   8    3.46    0.12
   6   7  -8    2.31    0.13
   6   7  -8    2.25    0.13
  -6  -7   8    2.25    0.09
   5   7  -8    2.12    0.12
   5   7  -8    2.29    0.13
  -5  -7   8    2.16    0.08
   4   7  -8    7.35    0.19
   4   7  -8    7.11    0.28
  -4  -7   8    7.19    0.20
   3   7  -8    9.47    0.35
   3   7  -8    9.36    0.24
  -3  -7   8    9.35    0.25
  -3  -7   8    9.42    0.25
   2   7  -8    1.37    0.09
   2   7  -8    1.37    0.06
  -2  -7   8    1.33    0.06
  -2  -7   8    1.31    0.06
   1   7  -8    3.81    0.12
   1   7  -8    3.89    0.10
   1   7  -8    3.88    0.17
  -1  -7   8    3.82    0.12
   0   7  -8    6.14    0.15
   0   7  -8    6.24    0.24
   0   7  -8    5.93    0.17
   0  -7   8    6.01    0.17
  -1   7  -8    2.58    0.10
  -1   7  -8    2.72    0.09
  -1   7  -8    2.80    0.08
  -1   7  -8    2.73    0.14
   1  -7   8    2.89    0.09
  -2   7  -8    0.55    0.04
  -2   7  -8    0.57    0.04
  -2   7  -8    0.50    0.03
  -2   7  -8    0.48    0.06
  -3   7  -8    2.11    0.13
  -3   7  -8    2.07    0.09
  -3   7  -8    2.24    0.07
  -4   7  -8    1.41    0.11
   9   6  -8   -0.01    0.03
  -9  -6   8    0.00    0.02
   8   6  -8    1.49    0.11
  -8  -6   8    1.50    0.07
   7   6  -8    3.50    0.17
   7   6  -8    3.27    0.17
  -7  -6   8    3.34    0.11
   6   6  -8    3.08    0.15
   6   6  -8    3.29    0.16
  -6  -6   8    3.13    0.11
   5   6  -8    1.88    0.11
   5   6  -8    1.69    0.10
  -5  -6   8    1.98    0.07
   4   6  -8    8.63    0.32
   4   6  -8    9.46    0.34
   4   6  -8    9.28    0.23
  -4  -6   8    9.18    0.25
   3   6  -8   10.73    0.38
   3   6  -8   10.67    0.27
  -3  -6   8   10.69    0.28
  -3  -6   8   10.61    0.28
   2   6  -8    2.99    0.10
   2   6  -8    3.08    0.15
  -2  -6   8    3.04    0.10
  -2  -6   8    3.03    0.10
   1   6  -8    6.54    0.25
   1   6  -8    6.47    0.15
   1   6  -8    6.37    0.18
  -1  -6   8    6.15    0.17
  -1  -6   8    6.44    0.26
   0   6  -8    3.26    0.15
   0   6  -8    3.16    0.09
   0   6  -8    3.21    0.10
   0   6  -8    3.29    0.11
   0  -6   8    3.10    0.10
  -1   6  -8    5.57    0.22
  -1   6  -8    5.80    0.16
  -1   6  -8    5.41    0.16
  -1   6  -8    5.43    0.14
   1  -6   8    5.54    0.15
  -2   6  -8    3.29    0.09
  -2   6  -8    3.25    0.16
  -2   6  -8    3.17    0.11
  -3   6  -8    3.06    0.11
  -3   6  -8    3.15    0.16
  -3   6  -8    3.37    0.09
  -4   6  -8    2.42    0.14
  -4   6  -8    2.40    0.09
  -4   6  -8    2.47    0.08
  -5   6  -8    2.30    0.13
  -5   6  -8    2.19    0.09
  -5   6  -8    2.10    0.13
   9   5  -8    0.87    0.09
  -9  -5   8    0.79    0.05
   8   5  -8    0.43    0.07
  -8  -5   8    0.35    0.04
   7   5  -8    1.90    0.12
  -7  -5   8    1.79    0.07
   6   5  -8    1.61    0.10
   6   5  -8    1.79    0.11
  -6  -5   8    1.75    0.07
   5   5  -8    0.43    0.06
   5   5  -8    0.49    0.06
  -5  -5   8    0.45    0.04
   4   5  -8    3.71    0.10
   4   5  -8    3.72    0.16
   4   5  -8    3.94    0.17
  -4  -5   8    3.80    0.12
   3   5  -8    9.23    0.33
   3   5  -8    9.85    0.25
   3   5  -8   10.14    0.35
  -3  -5   8    9.96    0.26
  -3  -5   8    9.91    0.26
   2   5  -8    3.44    0.10
   2   5  -8    3.50    0.09
   2   5  -8    3.46    0.15
  -2  -5   8    3.52    0.16
  -2  -5   8    3.42    0.11
  -2  -5   8    3.46    0.11
   1   5  -8    7.77    0.21
   1   5  -8    7.77    0.29
   1   5  -8    7.92    0.18
  -1  -5   8    7.69    0.21
  -1  -5   8    8.03    0.31
  -1  -5   8    8.05    0.21
   0   5  -8   12.14    0.31
   0   5  -8   11.84    0.30
   0   5  -8   11.11    0.41
   0   5  -8   11.92    0.27
   0  -5   8   12.40    0.43
   0  -5   8   11.76    0.30
  -1   5  -8    8.68    0.23
  -1   5  -8    8.64    0.31
  -1   5  -8    8.48    0.20
  -1   5  -8    8.28    0.22
   1  -5   8    7.84    0.35
   1  -5   8    8.58    0.22
  -2   5  -8    1.44    0.11
  -2   5  -8    1.63    0.10
  -2   5  -8    1.55    0.06
  -2   5  -8    1.63    0.06
   2  -5   8    1.62    0.05
  -3   5  -8    3.59    0.17
  -3   5  -8    3.62    0.16
  -3   5  -8    3.75    0.10
  -3   5  -8    3.43    0.12
  -4   5  -8    5.56    0.17
  -4   5  -8    5.83    0.22
  -4   5  -8    6.03    0.15
  -4   5  -8    5.85    0.24
  -5   5  -8    0.79    0.08
  -5   5  -8    0.83    0.08
  -5   5  -8    0.71    0.05
  -6   5  -8    1.24    0.11
   9   4  -8    2.30    0.15
  -9  -4   8    2.40    0.09
   8   4  -8    0.51    0.07
  -8  -4   8    0.60    0.04
   7   4  -8    3.74    0.18
  -7  -4   8    3.74    0.12
   6   4  -8    2.17    0.12
   6   4  -8    2.27    0.13
  -6  -4   8    2.04    0.08
   5   4  -8    2.85    0.14
   5   4  -8    2.76    0.14
  -5  -4   8    2.57    0.09
   4   4  -8    8.38    0.30
   4   4  -8    8.78    0.32
  -4  -4   8    8.65    0.23
   3   4  -8    5.68    0.15
   3   4  -8    5.59    0.22
   3   4  -8    5.36    0.20
  -3  -4   8    5.18    0.23
  -3  -4   8    5.63    0.15
  -3  -4   8    5.46    0.15
   2   4  -8    0.02    0.01
   2   4  -8   -0.01    0.03
   2   4  -8    0.01    0.01
  -2  -4   8    0.03    0.02
  -2  -4   8    0.00    0.02
  -2  -4   8    0.00    0.01
   1   4  -8   31.37    1.00
   1   4  -8   31.56    0.67
   1   4  -8   31.61    0.78
   1   4  -8   31.32    0.76
  -1  -4   8   31.28    0.77
  -1  -4   8   31.01    0.76
  -1  -4   8   31.68    1.08
   0   4  -8    5.90    0.17
   0   4  -8    5.74    0.16
   0   4  -8    5.79    0.22
   0   4  -8    5.86    0.14
   0  -4   8    5.78    0.16
   0  -4   8    6.03    0.24
  -1   4  -8   11.30    0.26
  -1   4  -8   11.31    0.39
  -1   4  -8   11.32    0.30
  -1   4  -8   11.49    0.29
   1  -4   8   11.15    0.28
   1  -4   8   10.60    0.45
   1  -4   8   12.01    0.41
  -2   4  -8    7.73    0.21
  -2   4  -8    7.28    0.17
  -2   4  -8    7.56    0.25
  -2   4  -8    7.46    0.28
   2  -4   8    7.04    0.32
   2  -4   8    7.71    0.19
  -3   4  -8   11.42    0.36
  -3   4  -8   11.26    0.39
  -3   4  -8   11.09    0.29
  -3   4  -8   10.89    0.25
  -4   4  -8    4.20    0.17
  -4   4  -8    4.00    0.11
  -4   4  -8    4.04    0.13
  -4   4  -8    4.24    0.18
  -5   4  -8    1.18    0.09
  -5   4  -8    1.47    0.10
  -5   4  -8    1.28    0.06
  -6   4  -8    1.24    0.10
  -6   4  -8    1.21    0.09
  -6   4  -8    1.10    0.05
   9   3  -8    0.40    0.07
  -9  -3   8    0.44    0.04
   8   3  -8    0.47    0.07
  -8  -3   8    0.46    0.04
   7   3  -8    0.18    0.04
  -7  -3   8    0.17    0.03
   6   3  -8    2.81    0.14
  -6  -3   8    2.79    0.09
   5   3  -8   11.24    0.39
   5   3  -8   11.09    0.40
  -5  -3   8   11.07    0.29
   4   3  -8    2.29    0.12
   4   3  -8    2.24    0.12
  -4  -3   8    2.33    0.08
  -4  -3   8    2.27    0.12
   3   3  -8   11.65    0.29
   3   3  -8   11.18    0.39
   3   3  -8   11.18    0.38
  -3  -3   8   11.56    0.29
  -3  -3   8   11.48    0.29
  -3  -3   8   11.18    0.42
   2   3  -8    8.35    0.29
   2   3  -8    8.72    0.22
   2   3  -8    8.10    0.30
  -2  -3   8    8.21    0.32
  -2  -3   8    8.65    0.22
  -2  -3   8    8.48    0.22
   1   3  -8   47.23    1.01
   1   3  -8   47.83    1.17
   1   3  -8   47.36    1.50
   1   3  -8   48.67    1.15
  -1  -3   8   47.39    1.16
  -1  -3   8   46.82    1.61
  -1  -3   8   49.47    1.14
   0   3  -8    0.15    0.02
   0   3  -8    0.15    0.02
   0   3  -8    0.22    0.04
   0   3  -8    0.19    0.02
   0  -3   8    0.13    0.03
   0  -3   8    0.21    0.02
  -1   3  -8   10.22    0.42
  -1   3  -8   10.22    0.27
  -1   3  -8   10.04    0.23
  -1   3  -8   10.10    0.26
  -1   3  -8   10.23    0.35
   1  -3   8   10.78    0.38
   1  -3   8   10.62    0.26
   1  -3   8    9.69    0.41
  -2   3  -8   17.86    0.67
  -2   3  -8   16.78    0.56
  -2   3  -8   16.80    0.37
  -2   3  -8   17.15    0.43
  -2   3  -8   17.18    0.51
   2  -3   8   15.11    0.65
   2  -3   8   16.98    0.41
   2  -3   8   16.80    0.59
  -3   3  -8    5.80    0.14
  -3   3  -8    5.92    0.21
  -3   3  -8    5.86    0.17
  -3   3  -8    6.04    0.23
  -4   3  -8    9.81    0.35
  -4   3  -8    9.82    0.22
  -4   3  -8    9.53    0.26
  -4   3  -8    9.72    0.32
  -5   3  -8    2.41    0.08
  -5   3  -8    2.39    0.13
  -5   3  -8    2.44    0.12
  -6   3  -8    3.49    0.17
  -6   3  -8    3.39    0.11
  -6   3  -8    3.49    0.15
  -7   3  -8    6.58    0.19
  -7   3  -8    6.42    0.24
  -7   3  -8    6.59    0.27
   8   2  -8    1.37    0.11
  -8  -2   8    1.46    0.06
   7   2  -8    0.57    0.07
  -7  -2   8    0.51    0.04
   6   2  -8    2.65    0.14
  -6  -2   8    2.68    0.09
   5   2  -8    4.00    0.17
  -5  -2   8    4.08    0.12
  -5  -2   8    3.51    0.17
   4   2  -8    1.41    0.09
   4   2  -8    1.43    0.09
  -4  -2   8    1.30    0.09
  -4  -2   8    1.36    0.05
   3   2  -8   10.99    0.38
   3   2  -8   10.64    0.27
   3   2  -8   10.84    0.36
  -3  -2   8   10.67    0.28
  -3  -2   8   10.46    0.40
  -3  -2   8   10.84    0.27
   2   2  -8    7.41    0.19
   2   2  -8    7.45    0.25
   2   2  -8    7.25    0.26
  -2  -2   8    7.00    0.28
  -2  -2   8    7.20    0.19
  -2  -2   8    7.29    0.19
   1   2  -8    1.28    0.05
   1   2  -8    1.27    0.05
   1   2  -8    1.21    0.07
   1   2  -8    1.31    0.05
   1   2  -8    1.23    0.08
  -1  -2   8    1.31    0.05
  -1  -2   8    1.38    0.05
  -1  -2   8    1.18    0.08
   0   2  -8   17.10    0.41
   0   2  -8   16.91    0.43
   0   2  -8   16.18    0.37
   0   2  -8   16.54    0.43
   0   2  -8   16.48    0.55
   0  -2   8   16.62    0.41
   0  -2   8   16.35    0.63
   0  -2   8   17.23    0.59
  -1   2  -8    8.52    0.20
  -1   2  -8    8.76    0.36
  -1   2  -8    8.66    0.23
  -1   2  -8    8.64    0.23
  -1   2  -8    8.97    0.30
   1  -2   8    9.19    0.33
   1  -2   8    8.88    0.22
   1  -2   8    8.11    0.35
  -2   2  -8   11.57    0.47
  -2   2  -8   11.46    0.26
  -2   2  -8   11.68    0.39
  -2   2  -8   11.39    0.30
  -2   2  -8   11.71    0.36
   2  -2   8   11.81    0.42
   2  -2   8   10.59    0.45
   2  -2   8   11.57    0.28
  -3   2  -8    1.89    0.05
  -3   2  -8    1.86    0.10
  -3   2  -8    1.92    0.07
  -3   2  -8    1.93    0.12
  -3   2  -8    1.83    0.09
   3  -2   8    1.65    0.11
   3  -2   8    1.70    0.10
  -4   2  -8   20.80    0.61
  -4   2  -8   20.80    0.52
  -4   2  -8   20.98    0.68
  -5   2  -8    6.84    0.18
  -5   2  -8    6.57    0.23
  -5   2  -8    6.82    0.26
  -6   2  -8    6.61    0.26
  -6   2  -8    6.90    0.18
  -6   2  -8    6.58    0.23
  -7   2  -8    4.08    0.12
  -7   2  -8    4.23    0.17
  -7   2  -8    4.03    0.19
  -8   2  -8    2.85    0.14
  -8   2  -8    3.03    0.16
   8   1  -8    1.15    0.10
  -8  -1   8    1.34    0.06
   7   1  -8    0.54    0.07
  -7  -1   8    0.54    0.04
   6   1  -8    2.67    0.14
  -6  -1   8    2.59    0.09
   5   1  -8    0.82    0.07
  -5  -1   8    0.78    0.04
  -5  -1   8    0.64    0.06
   4   1  -8    1.21    0.08
   4   1  -8    1.15    0.08
  -4  -1   8    1.18    0.08
  -4  -1   8    1.32    0.05
   3   1  -8   11.76    0.39
   3   1  -8   11.54    0.29
   3   1  -8   11.99    0.40
   3   1  -8   11.52    0.29
  -3  -1   8   11.96    0.30
  -3  -1   8   11.51    0.29
  -3  -1   8   10.73    0.42
   2   1  -8   11.85    0.30
   2   1  -8   11.81    0.39
   2   1  -8   11.91    0.40
  -2  -1   8   11.22    0.46
  -2  -1   8   10.80    0.42
  -2  -1   8   12.22    0.30
  -2  -1   8   12.08    0.30
   1   1  -8    3.12    0.12
   1   1  -8    2.94    0.09
   1   1  -8    2.80    0.12
   1   1  -8    2.89    0.09
   1   1  -8    2.97    0.08
  -1  -1   8    2.92    0.09
  -1  -1   8    3.00    0.14
  -1  -1   8    2.90    0.09
   0   1  -8   22.16    0.56
   0   1  -8   23.00    0.55
   0   1  -8   22.12    0.48
   0   1  -8   21.90    0.72
   0   1  -8   22.27    0.69
   0   1  -8   22.75    0.84
   0  -1   8   21.86    0.77
   0  -1   8   22.41    0.83
   0  -1   8   22.76    0.54
   0  -1   8   22.47    0.55
  -1   1  -8   20.79    0.67
  -1   1  -8   21.42    0.80
  -1   1  -8   20.29    0.45
  -1   1  -8   20.10    0.61
  -1   1  -8   21.30    0.52
  -1   1  -8   20.46    0.51
   1  -1   8   21.60    0.72
   1  -1   8   21.52    0.50
   1  -1   8   19.89    0.78
  -2   1  -8   12.99    0.43
  -2   1  -8   13.01    0.29
  -2   1  -8   13.98    0.53
  -2   1  -8   13.47    0.34
  -2   1  -8   13.23    0.40
   2  -1   8   13.07    0.32
   2  -1   8   12.66    0.52
   2  -1   8   13.05    0.47
  -3   1  -8    3.99    0.15
  -3   1  -8    4.30    0.16
  -3   1  -8    3.96    0.10
  -3   1  -8    4.19    0.21
  -3   1  -8    4.12    0.12
   3  -1   8    4.02    0.20
   3  -1   8    3.96    0.18
  -4   1  -8   10.27    0.26
  -4   1  -8   10.19    0.35
  -4   1  -8   10.00    0.32
   4  -1   8    9.73    0.38
  -5   1  -8    6.48    0.24
  -5   1  -8    6.10    0.22
  -5   1  -8    6.47    0.17
  -6   1  -8    6.01    0.16
  -6   1  -8    6.12    0.23
  -6   1  -8    5.81    0.21
  -7   1  -8    0.80    0.08
  -7   1  -8    0.68    0.06
  -8   1  -8    5.00    0.22
  -8   1  -8    4.99    0.19
   8   0  -8    0.44    0.07
  -8   0   8    0.45    0.04
   7   0  -8    0.38    0.06
  -7   0   8    0.48    0.04
   6   0  -8    3.41    0.17
  -6   0   8    3.48    0.11
   5   0  -8    3.32    0.16
  -5   0   8    2.98    0.10
   4   0  -8    0.13    0.03
  -4   0   8    0.11    0.02
  -4   0   8    0.10    0.03
   3   0  -8    7.69    0.27
   3   0  -8    7.16    0.27
   3   0  -8    7.05    0.19
  -3   0   8    6.92    0.28
  -3   0   8    7.22    0.19
  -3   0   8    7.50    0.19
   2   0  -8    3.59    0.15
   2   0  -8    3.78    0.15
   2   0  -8    3.63    0.11
  -2   0   8    3.66    0.10
  -2   0   8    3.72    0.11
  -2   0   8    3.44    0.16
  -2   0   8    3.30    0.15
   1   0  -8   11.89    0.40
   1   0  -8   11.85    0.30
   1   0  -8   12.17    0.39
   1   0  -8   12.10    0.31
  -1   0   8   11.51    0.43
  -1   0   8   11.84    0.30
  -1   0   8   11.53    0.47
  -1   0   8   12.09    0.30
   0   0  -8    8.20    0.19
   0   0  -8    8.36    0.22
   0   0  -8    8.37    0.34
   0   0  -8    8.17    0.21
   0   0  -8    8.03    0.28
   0   0  -8    8.34    0.27
   0   0   8    7.82    0.34
   0   0   8    8.26    0.21
   0   0   8    8.37    0.21
   0   0   8    7.89    0.31
  -1   0  -8   25.60    0.55
  -1   0  -8   25.97    0.62
  -1   0  -8   24.85    0.81
  -1   0  -8   25.96    0.64
  -1   0  -8   26.15    0.64
  -1   0  -8   25.70    0.97
  -1   0  -8   24.51    0.74
  -1   0  -8   26.22    0.78
   1   0   8   24.80    0.95
   1   0   8   26.14    0.88
   1   0   8   26.05    0.62
  -2   0  -8   30.81    0.66
  -2   0  -8   31.16    0.76
  -2   0  -8   31.68    1.16
  -2   0  -8   30.38    0.97
   2   0   8   30.71    0.73
   2   0   8   29.94    1.14
   2   0   8   30.66    1.05
  -3   0  -8   19.58    0.58
  -3   0  -8   19.88    0.64
  -3   0  -8   20.32    0.49
  -3   0  -8   20.47    0.78
  -3   0  -8   20.05    0.43
   3   0   8   19.01    0.76
   3   0   8   19.39    0.70
  -4   0  -8   13.21    0.54
  -4   0  -8   13.03    0.33
  -4   0  -8   13.17    0.43
  -4   0  -8   12.83    0.39
   4   0   8   12.15    0.51
   4   0   8   12.75    0.47
  -5   0  -8   10.93    0.37
  -5   0  -8   10.90    0.27
  -5   0  -8   10.62    0.33
   5   0   8   10.49    0.40
  -6   0  -8    7.06    0.26
  -6   0  -8    6.76    0.23
  -7   0  -8    0.86    0.06
  -7   0  -8    0.73    0.07
  -8   0  -8    3.76    0.15
  -9   0  -8    1.21    0.08
   7  -1  -8    0.02    0.03
  -7   1   8   -0.04    0.02
   6  -1  -8    2.30    0.13
  -6   1   8    2.15    0.08
   5  -1  -8    1.74    0.11
  -5   1   8    1.79    0.07
   4  -1  -8    1.14    0.08
  -4   1   8    1.03    0.05
   3  -1  -8    7.55    0.20
   3  -1  -8    8.14    0.28
  -3   1   8    6.90    0.29
  -3   1   8    7.56    0.20
  -3   1   8    7.89    0.20
   2  -1  -8   12.19    0.31
   2  -1  -8   13.06    0.41
   2  -1  -8   12.37    0.31
  -2   1   8   12.22    0.31
  -2   1   8   12.47    0.31
  -2   1   8   11.29    0.44
   1  -1  -8    3.62    0.14
   1  -1  -8    3.69    0.11
   1  -1  -8    3.64    0.15
   1  -1  -8    3.68    0.11
  -1   1   8    3.62    0.10
  -1   1   8    3.38    0.15
  -1   1   8    3.57    0.17
  -1   1   8    3.61    0.10
   0  -1  -8    2.38    0.08
   0  -1  -8    2.14    0.07
   0  -1  -8    2.33    0.10
   0  -1  -8    2.26    0.08
   0  -1  -8    2.32    0.12
   0  -1  -8    2.27    0.10
   0   1   8    2.41    0.07
   0   1   8    2.18    0.11
   0   1   8    2.38    0.07
   0   1   8    2.21    0.12
  -1  -1  -8    8.57    0.28
  -1  -1  -8    8.73    0.23
  -1  -1  -8    8.74    0.29
  -1  -1  -8    8.51    0.20
  -1  -1  -8    8.74    0.23
  -1  -1  -8    9.19    0.29
  -1  -1  -8    8.89    0.36
   1   1   8    8.22    0.33
   1   1   8    8.81    0.22
  -2  -1  -8   12.52    0.41
  -2  -1  -8   12.73    0.28
  -2  -1  -8   12.80    0.33
  -2  -1  -8   12.65    0.38
  -2  -1  -8   12.93    0.51
  -2  -1  -8   12.71    0.33
   2   1   8   12.60    0.46
   2   1   8   12.41    0.49
   2   1   8   12.73    0.31
  -3  -1  -8    1.34    0.10
  -3  -1  -8    1.26    0.05
  -3  -1  -8    1.29    0.07
  -3  -1  -8    1.29    0.04
   3   1   8    1.27    0.09
   3   1   8    1.31    0.09
  -4  -1  -8    7.70    0.20
  -4  -1  -8    7.40    0.25
  -4  -1  -8    7.82    0.34
   4   1   8    7.68    0.30
   4   1   8    7.10    0.32
  -5  -1  -8   20.61    0.60
  -5  -1  -8   20.37    0.51
   5   1   8   20.43    0.72
  -6  -1  -8   12.48    0.38
  -7  -1  -8    4.32    0.16
  -8  -1  -8    8.40    0.27
  -9  -1  -8    4.66    0.17
   7  -2  -8    0.41    0.07
  -7   2   8    0.30    0.03
   6  -2  -8    2.87    0.16
  -6   2   8    2.86    0.10
   5  -2  -8    1.05    0.09
  -5   2   8    1.00    0.05
   4  -2  -8    0.53    0.07
  -4   2   8    0.49    0.04
   3  -2  -8    7.23    0.27
   3  -2  -8    7.24    0.19
  -3   2   8    7.22    0.19
  -3   2   8    7.47    0.19
  -3   2   8    6.80    0.27
   2  -2  -8    3.76    0.11
   2  -2  -8    3.80    0.16
  -2   2   8    3.73    0.11
  -2   2   8    3.73    0.11
  -2   2   8    3.53    0.16
   1  -2  -8    5.24    0.15
   1  -2  -8    5.02    0.19
  -1   2   8    4.84    0.20
  -1   2   8    4.88    0.14
  -1   2   8    5.34    0.14
   0  -2  -8    4.91    0.18
   0  -2  -8    4.67    0.14
   0  -2  -8    4.66    0.22
   0  -2  -8    4.67    0.13
   0   2   8    4.44    0.21
   0   2   8    4.33    0.19
   0   2   8    4.75    0.13
   0   2   8    4.62    0.13
  -1  -2  -8    5.70    0.27
  -1  -2  -8    6.21    0.15
  -1  -2  -8    6.48    0.21
  -1  -2  -8    6.02    0.17
  -1  -2  -8    5.99    0.17
   1   2   8    6.14    0.16
   1   2   8    5.84    0.24
   1   2   8    5.77    0.26
  -2  -2  -8   13.99    0.42
  -2  -2  -8   14.40    0.57
  -2  -2  -8   13.91    0.31
  -2  -2  -8   14.10    0.36
  -2  -2  -8   14.70    0.44
   2   2   8   14.01    0.34
   2   2   8   13.47    0.51
  -3  -2  -8    6.67    0.15
  -3  -2  -8    6.99    0.18
  -3  -2  -8    6.79    0.30
  -3  -2  -8    6.51    0.22
   3   2   8    6.56    0.28
   3   2   8    6.32    0.27
  -4  -2  -8    4.66    0.23
  -4  -2  -8    4.67    0.17
  -4  -2  -8    4.54    0.13
   4   2   8    4.79    0.20
   4   2   8    4.36    0.21
  -5  -2  -8    7.39    0.25
  -5  -2  -8    7.58    0.20
   5   2   8    7.79    0.30
  -6  -2  -8    9.88    0.31
   6   2   8    9.89    0.38
  -7  -2  -8    4.21    0.16
  -8  -2  -8    7.18    0.24
  -9  -2  -8    2.53    0.11
   6  -3  -8    0.04    0.04
  -6   3   8    0.01    0.02
   5  -3  -8    1.54    0.11
  -5   3   8    1.71    0.07
   4  -3  -8    0.59    0.07
  -4   3   8    0.55    0.04
   3  -3  -8    4.82    0.13
   3  -3  -8    4.79    0.20
  -3   3   8    4.77    0.14
  -3   3   8    4.89    0.14
   2  -3  -8    1.15    0.08
   2  -3  -8    1.12    0.05
  -2   3   8    1.20    0.05
  -2   3   8    1.06    0.08
  -2   3   8    1.11    0.05
   1  -3  -8    9.59    0.25
   1  -3  -8    9.90    0.33
   1  -3  -8    9.37    0.25
  -1   3   8    9.56    0.25
  -1   3   8    9.84    0.25
  -1   3   8    9.11    0.36
   0  -3  -8    5.99    0.17
   0  -3  -8    6.14    0.22
   0  -3  -8    6.00    0.17
   0  -3  -8    5.95    0.27
   0   3   8    6.10    0.16
   0   3   8    5.73    0.25
   0   3   8    5.66    0.24
  -1  -3  -8   20.36    0.60
  -1  -3  -8   19.47    0.48
  -1  -3  -8   19.15    0.49
  -1  -3  -8   18.68    0.75
   1   3   8   18.23    0.74
   1   3   8   19.94    0.47
   1   3   8   18.79    0.68
  -2  -3  -8   10.48    0.45
  -2  -3  -8   10.60    0.24
  -2  -3  -8   11.35    0.35
  -2  -3  -8   10.58    0.33
  -2  -3  -8   10.69    0.28
  -2  -3  -8   10.54    0.28
   2   3   8   10.77    0.26
   2   3   8   10.38    0.40
  -3  -3  -8    4.07    0.10
  -3  -3  -8    4.11    0.12
  -3  -3  -8    4.32    0.15
  -3  -3  -8    4.28    0.15
  -3  -3  -8    4.16    0.21
   3   3   8    3.86    0.18
  -4  -3  -8   11.22    0.29
  -4  -3  -8   11.18    0.34
  -4  -3  -8   10.81    0.47
   4   3   8   11.03    0.42
  -5  -3  -8   29.17    0.83
  -5  -3  -8   29.26    0.71
   5   3   8   28.69    1.01
  -6  -3  -8    0.83    0.06
   6   3   8    0.85    0.08
  -7  -3  -8    1.41    0.08
  -8  -3  -8   13.15    0.40
  -9  -3  -8    3.58    0.14
 -10  -3  -8    0.16    0.03
   5  -4  -8    1.71    0.12
  -5   4   8    1.79    0.08
   4  -4  -8    0.68    0.07
  -4   4   8    0.65    0.04
   3  -4  -8    0.92    0.04
   3  -4  -8    1.01    0.08
  -3   4   8    0.91    0.05
  -3   4   8    0.94    0.05
   2  -4  -8    1.37    0.06
   2  -4  -8    1.40    0.09
  -2   4   8    1.34    0.06
  -2   4   8    1.46    0.06
   1  -4  -8    0.44    0.05
   1  -4  -8    0.37    0.04
  -1   4   8    0.33    0.03
  -1   4   8    0.32    0.05
  -1   4   8    0.49    0.04
   0  -4  -8    2.88    0.09
   0  -4  -8    2.87    0.10
   0  -4  -8    2.74    0.09
   0  -4  -8    2.80    0.16
   0  -4  -8    2.63    0.13
   0   4   8    2.75    0.14
   0   4   8    2.79    0.09
  -1  -4  -8   19.01    0.47
  -1  -4  -8   17.80    0.73
  -1  -4  -8   18.33    0.48
  -1  -4  -8   19.30    0.59
  -1  -4  -8   19.65    0.73
   1   4   8   18.66    0.72
   1   4   8   18.58    0.46
   1   4   8   17.94    0.66
  -2  -4  -8    1.58    0.11
  -2  -4  -8    1.63    0.06
  -2  -4  -8    1.60    0.09
  -2  -4  -8    1.72    0.09
  -2  -4  -8    1.65    0.07
   2   4   8    1.65    0.05
   2   4   8    1.71    0.10
  -3  -4  -8    9.09    0.40
  -3  -4  -8    9.16    0.21
  -3  -4  -8    9.50    0.25
  -3  -4  -8    9.14    0.29
  -3  -4  -8    9.82    0.31
   3   4   8    8.81    0.36
  -4  -4  -8   16.66    0.42
  -4  -4  -8   16.49    0.42
  -4  -4  -8   17.43    0.51
  -4  -4  -8   16.56    0.49
  -4  -4  -8   15.89    0.67
   4   4   8   15.41    0.59
  -5  -4  -8   10.89    0.34
  -5  -4  -8   11.12    0.28
   5   4   8   10.30    0.41
  -6  -4  -8    1.21    0.08
  -7  -4  -8    3.62    0.14
  -8  -4  -8    7.96    0.26
  -9  -4  -8    0.85    0.06
 -10  -4  -8    1.98    0.09
   5  -5  -8    1.41    0.11
  -5   5   8    1.27    0.07
   4  -5  -8    1.33    0.10
  -4   5   8    1.39    0.06
   3  -5  -8    0.57    0.07
   3  -5  -8    0.74    0.04
  -3   5   8    0.75    0.05
  -3   5   8    0.69    0.05
   2  -5  -8    5.97    0.24
   2  -5  -8    5.87    0.17
  -2   5   8    6.35    0.17
  -2   5   8    5.93    0.17
   1  -5  -8    4.15    0.18
   1  -5  -8    4.13    0.13
  -1   5   8    4.37    0.13
  -1   5   8    4.03    0.13
   0  -5  -8    1.79    0.07
   0  -5  -8    1.75    0.07
   0  -5  -8    1.79    0.13
   0  -5  -8    1.78    0.10
   0   5   8    1.79    0.10
   0   5   8    1.80    0.07
  -1  -5  -8    0.74    0.05
  -1  -5  -8    0.83    0.08
  -1  -5  -8    0.62    0.04
   1   5   8    0.73    0.07
   1   5   8    0.68    0.04
  -2  -5  -8    0.63    0.07
  -2  -5  -8    0.57    0.04
  -2  -5  -8    0.52    0.05
  -2  -5  -8    0.60    0.04
  -2  -5  -8    0.70    0.06
   2   5   8    0.67    0.07
   2   5   8    0.81    0.04
  -3  -5  -8    3.79    0.21
  -3  -5  -8    4.03    0.15
  -3  -5  -8    3.88    0.12
  -3  -5  -8    3.90    0.15
   3   5   8    3.67    0.18
  -4  -5  -8    4.66    0.17
  -4  -5  -8    4.84    0.12
  -4  -5  -8    4.93    0.17
  -4  -5  -8    4.82    0.14
   4   5   8    4.37    0.21
  -5  -5  -8    0.06    0.02
  -5  -5  -8    0.06    0.02
  -5  -5  -8    0.05    0.02
  -6  -5  -8   19.09    0.56
  -7  -5  -8    2.68    0.12
  -8  -5  -8    7.08    0.23
  -9  -5  -8    2.23    0.10
 -10  -5  -8    2.79    0.12
   4  -6  -8    0.31    0.06
  -4   6   8    0.36    0.04
   3  -6  -8    0.90    0.09
  -3   6   8    1.01    0.06
  -3   6   8    0.97    0.06
   2  -6  -8    2.00    0.08
   2  -6  -8    1.83    0.12
  -2   6   8    1.91    0.08
  -2   6   8    2.02    0.08
   1  -6  -8    1.51    0.07
   1  -6  -8    1.45    0.10
  -1   6   8    1.39    0.06
   0  -6  -8    3.03    0.14
   0  -6  -8    3.13    0.11
   0   6   8    3.20    0.10
  -1  -6  -8    5.66    0.17
  -1  -6  -8    5.99    0.17
  -1  -6  -8    5.85    0.22
   1   6   8    6.11    0.16
   1   6   8    5.55    0.24
  -2  -6  -8    7.17    0.21
  -2  -6  -8    7.47    0.21
  -2  -6  -8    7.73    0.26
   2   6   8    7.11    0.30
   2   6   8    7.56    0.19
  -3  -6  -8    2.31    0.11
  -3  -6  -8    2.19    0.09
  -3  -6  -8    2.24    0.10
  -4  -6  -8    6.23    0.22
  -4  -6  -8    6.39    0.18
  -4  -6  -8    6.29    0.22
  -5  -6  -8    1.56    0.09
  -5  -6  -8    1.40    0.06
  -5  -6  -8    1.53    0.08
  -6  -6  -8   13.16    0.42
  -6  -6  -8   13.36    0.41
  -6  -6  -8   13.10    0.34
  -7  -6  -8    0.37    0.04
  -8  -6  -8    2.98    0.13
  -9  -6  -8    5.60    0.20
 -10  -6  -8    1.94    0.09
   3  -7  -8    0.32    0.06
  -3   7   8    0.42    0.04
  -3   7   8    0.47    0.05
   2  -7  -8    0.33    0.06
   2  -7  -8    0.38    0.04
  -2   7   8    0.38    0.04
   1  -7  -8    1.28    0.09
   1  -7  -8    1.32    0.07
  -1   7   8    1.21    0.06
   0  -7  -8    1.58    0.07
   0  -7  -8    1.54    0.10
   0   7   8    1.64    0.07
  -1  -7  -8    1.24    0.09
  -1  -7  -8    1.36    0.07
  -1  -7  -8    1.30    0.06
   1   7   8    1.41    0.06
  -2  -7  -8    3.10    0.14
  -2  -7  -8    3.08    0.11
  -2  -7  -8    3.12    0.11
   2   7   8    3.26    0.10
  -3  -7  -8    4.17    0.17
  -3  -7  -8    4.05    0.13
  -4  -7  -8    3.13    0.11
  -4  -7  -8    3.35    0.14
  -4  -7  -8    3.19    0.14
  -5  -7  -8    2.54    0.12
  -5  -7  -8    2.80    0.12
  -5  -7  -8    2.52    0.09
  -6  -7  -8    6.17    0.22
  -6  -7  -8    6.00    0.18
  -6  -7  -8    5.88    0.22
  -7  -7  -8    2.93    0.13
  -7  -7  -8    3.04    0.13
  -8  -7  -8    1.62    0.09
  -9  -7  -8    3.37    0.14
 -10  -7  -8    0.92    0.07
   2  -8  -8    0.44    0.04
   2  -8  -8    0.32    0.06
  -2   8   8    0.35    0.04
   1  -8  -8    0.72    0.08
   1  -8  -8    0.82    0.05
  -1   8   8    0.80    0.05
   0  -8  -8    0.94    0.06
   0  -8  -8    0.98    0.08
   0   8   8    0.93    0.06
  -1  -8  -8    0.36    0.06
  -1  -8  -8    0.38    0.04
   1   8   8    0.43    0.04
  -2  -8  -8    1.87    0.08
  -2  -8  -8    1.96    0.08
  -2  -8  -8    1.94    0.11
   2   8   8    2.01    0.07
  -3  -8  -8    2.92    0.11
  -3  -8  -8    2.99    0.14
  -4  -8  -8    2.70    0.13
  -4  -8  -8    3.04    0.14
  -4  -8  -8    2.74    0.10
  -5  -8  -8    0.92    0.06
  -5  -8  -8    0.93    0.08
  -5  -8  -8    1.03    0.07
  -6  -8  -8    1.87    0.08
  -6  -8  -8    1.70    0.10
  -6  -8  -8    1.89    0.10
  -7  -8  -8    1.11    0.08
  -7  -8  -8    1.10    0.08
  -7  -8  -8    1.31    0.06
  -8  -8  -8    1.30    0.08
  -8  -8  -8    1.16    0.08
  -9  -8  -8    1.09    0.08
   0  -9  -8    1.06    0.07
   0  -9  -8    1.00    0.09
   0   9   8    0.99    0.06
  -1  -9  -8    0.56    0.07
  -1  -9  -8    0.58    0.05
   1   9   8    0.60    0.05
  -2  -9  -8    1.07    0.06
  -2  -9  -8    1.08    0.08
  -2  -9  -8    1.14    0.06
   2   9   8    1.13    0.05
  -3  -9  -8    0.83    0.07
  -3  -9  -8    0.86    0.06
  -4  -9  -8    0.40    0.05
  -4  -9  -8    0.43    0.04
  -5  -9  -8    2.14    0.12
  -5  -9  -8    1.99    0.09
  -5  -9  -8    1.83    0.10
  -6  -9  -8    4.23    0.14
  -6  -9  -8    4.24    0.17
  -6  -9  -8    4.40    0.18
  -7  -9  -8    1.86    0.10
  -7  -9  -8    1.88    0.08
  -7  -9  -8    2.07    0.11
  -8  -9  -8    1.45    0.09
  -8  -9  -8    1.49    0.09
  -9  -9  -8    2.27    0.11
  -2 -10  -8    1.63    0.08
   2  10   8    1.57    0.06
  -3 -10  -8    1.26    0.09
  -3 -10  -8    1.48    0.08
  -3 -10  -8    1.44    0.07
  -4 -10  -8    0.73    0.07
  -4 -10  -8    0.69    0.06
  -5 -10  -8    1.05    0.08
  -5 -10  -8    1.10    0.07
  -6 -10  -8    0.80    0.07
  -6 -10  -8    0.81    0.08
  -6 -10  -8    0.78    0.06
  -7 -10  -8    1.67    0.08
  -7 -10  -8    1.81    0.11
  -7 -10  -8    1.60    0.10
  -8 -10  -8    0.72    0.07
  -8 -10  -8    0.80    0.06
  -8 -10  -8    0.81    0.08
   6   9  -9    0.67    0.08
  -6  -9   9    0.59    0.05
   5   9  -9    0.56    0.08
  -5  -9   9    0.56    0.05
   4   9  -9    0.22    0.05
  -4  -9   9    0.21    0.04
  -4  -9   9    0.18    0.04
   3   9  -9    4.03    0.19
   3   9  -9    3.97    0.12
  -3  -9   9    3.72    0.13
   2   9  -9    1.10    0.05
   2   9  -9    1.11    0.10
  -2  -9   9    1.03    0.06
   1   9  -9    1.52    0.07
   1   9  -9    1.66    0.12
  -1  -9   9    1.58    0.07
   0   9  -9    1.22    0.10
   7   8  -9    3.62    0.18
   7   8  -9    3.94    0.19
  -7  -8   9    3.78    0.13
   6   8  -9    0.98    0.09
  -6  -8   9    0.83    0.06
   5   8  -9    1.45    0.11
  -5  -8   9    1.42    0.07
   4   8  -9    2.09    0.13
  -4  -8   9    2.10    0.08
  -4  -8   9    2.01    0.08
   3   8  -9    1.24    0.06
   3   8  -9    1.37    0.10
  -3  -8   9    1.17    0.06
  -3  -8   9    1.14    0.06
   2   8  -9    0.80    0.08
   2   8  -9    0.88    0.05
  -2  -8   9    0.79    0.05
   1   8  -9    1.25    0.09
   1   8  -9    1.25    0.06
  -1  -8   9    1.13    0.06
   0   8  -9    0.39    0.06
   0   8  -9    0.26    0.03
   0   8  -9    0.39    0.04
   0  -8   9    0.27    0.03
  -1   8  -9    1.63    0.06
  -1   8  -9    1.60    0.07
  -1   8  -9    1.75    0.11
   1  -8   9    1.66    0.06
   8   7  -9    1.40    0.11
  -8  -7   9    1.40    0.07
   7   7  -9    1.32    0.10
   7   7  -9    1.46    0.11
  -7  -7   9    1.39    0.07
   6   7  -9    3.76    0.18
   6   7  -9    3.55    0.17
  -6  -7   9    3.73    0.12
   5   7  -9    1.80    0.11
  -5  -7   9    1.64    0.07
   4   7  -9    3.12    0.16
  -4  -7   9    2.94    0.10
   3   7  -9    1.41    0.06
   3   7  -9    1.39    0.10
  -3  -7   9    1.33    0.06
  -3  -7   9    1.32    0.06
   2   7  -9    3.68    0.11
   2   7  -9    3.68    0.17
  -2  -7   9    3.63    0.12
   1   7  -9    1.83    0.11
   1   7  -9    1.82    0.07
   1   7  -9    1.83    0.06
  -1  -7   9    1.74    0.07
   0   7  -9    1.77    0.06
   0   7  -9    1.83    0.11
   0   7  -9    1.77    0.07
   0  -7   9    1.69    0.07
  -1   7  -9    3.60    0.12
  -1   7  -9    3.45    0.17
  -1   7  -9    3.50    0.11
  -1   7  -9    3.49    0.10
   1  -7   9    3.52    0.10
  -2   7  -9    0.58    0.07
  -2   7  -9    0.57    0.04
  -2   7  -9    0.55    0.04
  -3   7  -9    1.66    0.06
  -3   7  -9    1.50    0.07
  -3   7  -9    1.56    0.11
   8   6  -9    0.81    0.09
  -8  -6   9    0.79    0.05
   7   6  -9    0.93    0.09
   7   6  -9    1.07    0.09
  -7  -6   9    0.87    0.05
   6   6  -9    2.26    0.13
   6   6  -9    2.02    0.12
  -6  -6   9    2.13    0.08
   5   6  -9    1.66    0.11
   5   6  -9    1.48    0.10
  -5  -6   9    1.64    0.07
   4   6  -9    3.59    0.17
  -4  -6   9    3.36    0.11
   3   6  -9    6.80    0.18
   3   6  -9    6.64    0.26
  -3  -6   9    6.48    0.18
  -3  -6   9    6.68    0.19
   2   6  -9    4.96    0.21
   2   6  -9    5.08    0.15
  -2  -6   9    5.00    0.15
  -2  -6   9    5.07    0.15
   1   6  -9    1.26    0.06
   1   6  -9    1.28    0.09
   1   6  -9    1.29    0.05
  -1  -6   9    1.26    0.06
   0   6  -9    3.26    0.11
   0   6  -9    3.32    0.09
   0   6  -9    3.41    0.16
   0  -6   9    3.24    0.10
  -1   6  -9    3.80    0.17
  -1   6  -9    3.92    0.11
  -1   6  -9    3.75    0.12
  -1   6  -9    3.82    0.13
   1  -6   9    3.58    0.11
  -2   6  -9    1.44    0.10
  -2   6  -9    1.64    0.06
  -2   6  -9    1.59    0.07
  -3   6  -9    1.48    0.06
  -3   6  -9    1.37    0.10
  -3   6  -9    1.41    0.07
  -4   6  -9    1.86    0.07
  -4   6  -9    1.73    0.08
  -4   6  -9    1.80    0.12
   8   5  -9    0.78    0.08
  -8  -5   9    0.80    0.05
   7   5  -9    1.03    0.09
  -7  -5   9    0.94    0.06
   6   5  -9    2.21    0.13
   6   5  -9    1.96    0.12
  -6  -5   9    1.86    0.08
   5   5  -9    1.66    0.10
   5   5  -9    1.77    0.11
  -5  -5   9    1.64    0.07
   4   5  -9    3.32    0.16
   4   5  -9    3.55    0.10
   4   5  -9    3.77    0.17
  -4  -5   9    3.59    0.11
   3   5  -9    4.56    0.19
   3   5  -9    4.61    0.13
  -3  -5   9    4.38    0.13
  -3  -5   9    4.37    0.13
   2   5  -9    3.91    0.17
   2   5  -9    3.82    0.12
  -2  -5   9    3.90    0.12
  -2  -5   9    3.77    0.12
   1   5  -9    6.25    0.17
   1   5  -9    6.40    0.15
   1   5  -9    6.21    0.24
  -1  -5   9    6.27    0.17
   0   5  -9    8.52    0.31
   0   5  -9    8.60    0.23
   0   5  -9    8.20    0.22
   0   5  -9    8.49    0.20
   0  -5   9    8.10    0.22
  -1   5  -9    4.22    0.18
  -1   5  -9    4.35    0.14
  -1   5  -9    4.26    0.11
  -1   5  -9    4.32    0.13
   1  -5   9    4.40    0.12
  -2   5  -9    0.01    0.01
  -2   5  -9    0.01    0.03
  -2   5  -9    0.03    0.02
  -3   5  -9    3.00    0.15
  -3   5  -9    2.96    0.09
  -3   5  -9    2.82    0.10
  -4   5  -9    1.29    0.10
  -4   5  -9    1.29    0.09
  -4   5  -9    1.37    0.06
  -4   5  -9    1.39    0.06
  -5   5  -9    0.07    0.02
  -5   5  -9    0.04    0.03
  -5   5  -9    0.09    0.04
  -5   5  -9    0.08    0.02
   8   4  -9    1.75    0.12
  -8  -4   9    1.87    0.08
   7   4  -9    3.37    0.17
  -7  -4   9    3.49    0.11
   6   4  -9    6.39    0.26
   6   4  -9    6.54    0.27
  -6  -4   9    6.35    0.18
   5   4  -9    1.28    0.09
   5   4  -9    1.29    0.09
  -5  -4   9    1.17    0.06
   4   4  -9    6.33    0.25
   4   4  -9    5.91    0.23
   4   4  -9    6.19    0.16
  -4  -4   9    5.96    0.17
   3   4  -9   11.56    0.40
   3   4  -9   11.77    0.29
   3   4  -9   10.81    0.38
  -3  -4   9   10.87    0.29
  -3  -4   9   11.25    0.29
   2   4  -9    5.71    0.23
   2   4  -9    5.78    0.16
  -2  -4   9    5.81    0.16
  -2  -4   9    5.91    0.16
   1   4  -9    0.80    0.04
   1   4  -9    0.85    0.07
   1   4  -9    0.78    0.04
  -1  -4   9    0.83    0.04
  -1  -4   9    0.92    0.07
   0   4  -9    3.77    0.17
   0   4  -9    3.90    0.12
   0   4  -9    3.81    0.10
   0   4  -9    3.77    0.12
   0   4  -9    3.90    0.12
   0  -4   9    3.90    0.11
   0  -4   9    3.97    0.17
  -1   4  -9   12.12    0.32
  -1   4  -9   11.88    0.27
  -1   4  -9   11.79    0.42
  -1   4  -9   11.80    0.31
   1  -4   9   12.19    0.30
   1  -4   9   12.46    0.44
  -2   4  -9    2.66    0.13
  -2   4  -9    2.74    0.08
  -2   4  -9    2.86    0.10
   2  -4   9    2.71    0.08
  -3   4  -9    3.17    0.15
  -3   4  -9    3.15    0.11
  -3   4  -9    3.22    0.09
  -3   4  -9    3.40    0.14
  -4   4  -9    2.74    0.08
  -4   4  -9    2.59    0.14
  -4   4  -9    2.56    0.09
  -4   4  -9    2.76    0.13
  -5   4  -9    2.75    0.13
  -5   4  -9    2.70    0.14
  -5   4  -9    2.70    0.10
  -5   4  -9    2.86    0.08
  -6   4  -9    1.71    0.12
  -6   4  -9    1.68    0.07
  -6   4  -9    1.89    0.11
   8   3  -9    0.50    0.07
  -8  -3   9    0.53    0.04
   7   3  -9    2.00    0.13
  -7  -3   9    1.93    0.08
   6   3  -9    2.52    0.14
  -6  -3   9    2.48    0.09
   5   3  -9    0.30    0.05
   5   3  -9    0.23    0.05
  -5  -3   9    0.20    0.03
   4   3  -9    6.47    0.25
   4   3  -9    6.95    0.26
  -4  -3   9    6.81    0.19
   3   3  -9    9.77    0.35
   3   3  -9   10.43    0.37
   3   3  -9   10.47    0.26
  -3  -3   9   10.05    0.27
  -3  -3   9   10.26    0.26
   2   3  -9    4.65    0.13
   2   3  -9    4.67    0.19
   2   3  -9    4.49    0.17
  -2  -3   9    4.45    0.13
  -2  -3   9    4.25    0.19
  -2  -3   9    4.52    0.13
   1   3  -9    0.96    0.04
   1   3  -9    0.93    0.05
   1   3  -9    0.97    0.07
  -1  -3   9    1.04    0.08
  -1  -3   9    0.90    0.04
  -1  -3   9    0.94    0.05
   0   3  -9   14.58    0.50
   0   3  -9   14.58    0.38
   0   3  -9   14.65    0.37
   0   3  -9   14.83    0.33
   0   3  -9   14.95    0.39
   0  -3   9   15.34    0.53
   0  -3   9   14.64    0.37
  -1   3  -9   18.96    0.61
  -1   3  -9   18.05    0.46
  -1   3  -9   18.31    0.48
  -1   3  -9   18.22    0.41
   1  -3   9   19.51    0.66
   1  -3   9   18.47    0.45
  -2   3  -9    0.81    0.07
  -2   3  -9    1.01    0.07
  -2   3  -9    0.95    0.04
  -2   3  -9    0.89    0.05
  -2   3  -9    0.95    0.08
   2  -3   9    0.88    0.08
   2  -3   9    0.78    0.07
   2  -3   9    0.96    0.04
  -3   3  -9    5.90    0.21
  -3   3  -9    5.88    0.14
  -3   3  -9    5.81    0.23
  -3   3  -9    5.79    0.17
  -4   3  -9   10.16    0.23
  -4   3  -9    9.85    0.27
  -4   3  -9   10.30    0.36
  -4   3  -9    9.79    0.33
  -5   3  -9    3.77    0.12
  -5   3  -9    4.10    0.18
  -5   3  -9    3.94    0.16
  -6   3  -9    1.62    0.10
  -6   3  -9    1.59    0.07
  -6   3  -9    1.64    0.11
  -7   3  -9    1.00    0.08
  -7   3  -9    1.00    0.09
   8   2  -9    0.01    0.04
  -8  -2   9    0.02    0.02
   7   2  -9    1.07    0.09
  -7  -2   9    0.99    0.05
   6   2  -9    1.88    0.12
  -6  -2   9    1.96    0.08
   5   2  -9    1.66    0.11
  -5  -2   9    1.73    0.07
   4   2  -9    8.41    0.31
   4   2  -9    8.91    0.32
  -4  -2   9    8.62    0.23
   3   2  -9    4.00    0.16
   3   2  -9    3.63    0.16
   3   2  -9    3.65    0.11
  -3  -2   9    3.40    0.17
  -3  -2   9    3.63    0.11
  -3  -2   9    3.56    0.11
   2   2  -9    1.15    0.05
   2   2  -9    1.12    0.08
   2   2  -9    1.24    0.07
  -2  -2   9    1.09    0.05
  -2  -2   9    1.08    0.05
  -2  -2   9    1.03    0.08
   1   2  -9   35.00    0.75
   1   2  -9   34.75    0.84
   1   2  -9   34.91    1.11
  -1  -2   9   33.96    1.19
  -1  -2   9   34.66    0.85
  -1  -2   9   35.41    0.84
   0   2  -9    2.35    0.08
   0   2  -9    2.39    0.09
   0   2  -9    2.39    0.07
   0   2  -9    2.29    0.11
   0  -2   9    2.47    0.08
   0  -2   9    2.29    0.12
  -1   2  -9    7.01    0.25
  -1   2  -9    6.84    0.19
  -1   2  -9    6.59    0.16
  -1   2  -9    6.68    0.19
   1  -2   9    6.94    0.18
   1  -2   9    7.09    0.27
  -2   2  -9    0.63    0.06
  -2   2  -9    0.71    0.04
  -2   2  -9    0.72    0.03
  -2   2  -9    0.65    0.06
  -2   2  -9    0.65    0.07
   2  -2   9    0.80    0.07
   2  -2   9    0.58    0.06
   2  -2   9    0.78    0.03
  -3   2  -9   15.17    0.34
  -3   2  -9   15.49    0.47
  -3   2  -9   15.27    0.39
  -3   2  -9   15.51    0.51
   3  -2   9   14.80    0.55
  -4   2  -9    2.98    0.14
  -4   2  -9    2.92    0.08
  -4   2  -9    3.00    0.13
  -4   2  -9    2.96    0.10
  -5   2  -9    1.26    0.06
  -5   2  -9    1.38    0.09
  -5   2  -9    1.36    0.09
  -6   2  -9    1.45    0.10
  -6   2  -9    1.48    0.09
  -6   2  -9    1.43    0.06
  -7   2  -9    2.63    0.14
  -7   2  -9    2.55    0.09
  -7   2  -9    2.67    0.13
   8   1  -9    0.64    0.09
   7   1  -9    0.85    0.09
  -7  -1   9    0.89    0.05
   6   1  -9    1.40    0.10
  -6  -1   9    1.32    0.06
   5   1  -9    2.84    0.15
  -5  -1   9    2.87    0.09
   4   1  -9    2.15    0.12
   4   1  -9    2.05    0.12
  -4  -1   9    2.02    0.07
   3   1  -9    8.39    0.31
   3   1  -9    8.55    0.22
   3   1  -9    8.56    0.30
  -3  -1   9    8.12    0.32
  -3  -1   9    8.81    0.22
  -3  -1   9    8.44    0.23
   2   1  -9    8.50    0.31
   2   1  -9    8.76    0.30
   2   1  -9    8.91    0.23
  -2  -1   9    8.01    0.33
  -2  -1   9    9.02    0.23
  -2  -1   9    8.72    0.23
   1   1  -9   35.34    1.10
   1   1  -9   36.94    0.87
   1   1  -9   36.07    1.14
  -1  -1   9   34.24    1.23
  -1  -1   9   36.24    0.88
  -1  -1   9   37.38    0.87
   0   1  -9    0.19    0.02
   0   1  -9    0.21    0.02
   0   1  -9    0.26    0.03
   0   1  -9    0.16    0.04
   0  -1   9    0.12    0.04
   0  -1   9    0.22    0.02
  -1   1  -9   30.39    0.76
  -1   1  -9   30.53    0.65
  -1   1  -9   30.71    0.97
  -1   1  -9   30.47    0.74
  -1   1  -9   31.05    0.76
   1  -1   9   30.97    0.73
   1  -1   9   28.78    1.13
   1  -1   9   30.35    1.04
  -2   1  -9   15.26    0.33
  -2   1  -9   14.99    0.50
  -2   1  -9   15.07    0.46
  -2   1  -9   15.24    0.60
  -2   1  -9   15.35    0.39
   2  -1   9   14.84    0.54
   2  -1   9   14.22    0.58
   2  -1   9   15.09    0.36
  -3   1  -9    1.49    0.08
  -3   1  -9    1.59    0.11
  -3   1  -9    1.52    0.05
  -3   1  -9    1.51    0.06
  -3   1  -9    1.56    0.09
   3  -1   9    1.38    0.10
   3  -1   9    1.38    0.10
  -4   1  -9    1.97    0.07
  -4   1  -9    1.96    0.06
  -4   1  -9    1.94    0.10
  -4   1  -9    1.83    0.10
   4  -1   9    1.79    0.11
  -5   1  -9    2.37    0.11
  -5   1  -9    2.43    0.08
  -5   1  -9    2.36    0.12
  -6   1  -9    1.33    0.08
  -6   1  -9    1.29    0.05
  -6   1  -9    1.42    0.09
  -7   1  -9    3.43    0.16
  -7   1  -9    3.30    0.14
  -8   1  -9    0.47    0.05
  -8   1  -9    0.55    0.07
   7   0  -9    0.29    0.06
  -7   0   9    0.21    0.03
   6   0  -9    2.47    0.14
  -6   0   9    2.33    0.09
   5   0  -9    4.16    0.19
  -5   0   9    4.17    0.13
   4   0  -9    3.07    0.15
  -4   0   9    2.98    0.10
   3   0  -9    2.57    0.08
   3   0  -9    2.57    0.13
   3   0  -9    2.77    0.13
  -3   0   9    2.42    0.13
  -3   0   9    2.56    0.08
  -3   0   9    2.55    0.08
   2   0  -9    4.28    0.12
   2   0  -9    4.19    0.17
   2   0  -9    4.21    0.17
  -2   0   9    4.16    0.12
  -2   0   9    4.11    0.12
  -2   0   9    4.00    0.18
   1   0  -9    4.60    0.18
   1   0  -9    4.46    0.18
   1   0  -9    4.61    0.13
  -1   0   9    4.65    0.13
  -1   0   9    4.19    0.19
  -1   0   9    4.57    0.13
   0   0  -9    9.18    0.31
   0   0  -9    9.13    0.32
   0   0  -9    9.17    0.24
   0   0  -9    9.21    0.25
   0   0  -9    9.56    0.22
   0   0   9    9.31    0.35
   0   0   9    9.62    0.24
  -1   0  -9    8.34    0.28
  -1   0  -9    8.21    0.22
  -1   0  -9    8.20    0.19
  -1   0  -9    8.21    0.35
  -1   0  -9    8.05    0.22
   1   0   9    8.16    0.32
   1   0   9    7.82    0.33
   1   0   9    8.07    0.21
  -2   0  -9    9.37    0.39
  -2   0  -9    9.23    0.30
  -2   0  -9    9.32    0.32
  -2   0  -9    9.44    0.25
  -2   0  -9    9.30    0.21
   2   0   9    9.00    0.38
   2   0   9    9.22    0.36
   2   0   9    9.29    0.23
  -3   0  -9   11.98    0.26
  -3   0  -9   12.00    0.37
  -3   0  -9   11.91    0.31
  -3   0  -9   11.91    0.40
  -3   0  -9   12.11    0.49
   3   0   9   11.03    0.47
   3   0   9   11.64    0.44
  -4   0  -9   28.46    0.90
  -4   0  -9   28.29    0.70
  -4   0  -9   28.30    0.82
   4   0   9   27.77    0.98
  -5   0  -9    5.68    0.20
  -5   0  -9    5.70    0.16
  -5   0  -9    5.87    0.22
   5   0   9    5.46    0.24
  -6   0  -9    4.19    0.16
  -6   0  -9    4.12    0.12
  -7   0  -9    6.22    0.22
  -8   0  -9    2.17    0.11
   7  -1  -9    0.26    0.06
  -7   1   9    0.20    0.03
   6  -1  -9    1.03    0.09
  -6   1   9    1.02    0.06
   5  -1  -9    0.76    0.08
  -5   1   9    0.86    0.05
   4  -1  -9    1.59    0.10
  -4   1   9    1.62    0.06
   3  -1  -9    3.70    0.16
   3  -1  -9    3.49    0.10
  -3   1   9    3.53    0.11
  -3   1   9    3.37    0.11
  -3   1   9    3.16    0.15
   2  -1  -9    6.64    0.18
   2  -1  -9    7.04    0.25
  -2   1   9    6.39    0.18
  -2   1   9    6.00    0.26
  -2   1   9    6.69    0.18
   1  -1  -9    4.52    0.18
   1  -1  -9    4.29    0.18
   1  -1  -9    4.57    0.13
  -1   1   9    4.32    0.19
  -1   1   9    4.67    0.13
  -1   1   9    4.62    0.13
   0  -1  -9    4.50    0.17
   0  -1  -9    4.30    0.17
   0  -1  -9    4.45    0.13
   0  -1  -9    4.54    0.13
   0   1   9    4.06    0.19
   0   1   9    4.58    0.13
  -1  -1  -9   10.56    0.27
  -1  -1  -9   10.29    0.24
  -1  -1  -9    9.93    0.42
  -1  -1  -9   10.45    0.35
  -1  -1  -9   10.87    0.34
  -1  -1  -9   10.36    0.28
   1   1   9    9.73    0.39
   1   1   9   10.19    0.26
  -2  -1  -9    9.04    0.25
  -2  -1  -9    9.13    0.29
  -2  -1  -9    9.20    0.39
  -2  -1  -9    8.99    0.21
  -2  -1  -9    9.22    0.25
   2   1   9    8.97    0.37
   2   1   9    8.92    0.23
   2   1   9    8.78    0.35
  -3  -1  -9    5.05    0.12
  -3  -1  -9    5.16    0.15
  -3  -1  -9    5.25    0.25
  -3  -1  -9    4.97    0.18
   3   1   9    4.99    0.23
   3   1   9    4.90    0.22
  -4  -1  -9    7.39    0.24
  -4  -1  -9    7.34    0.20
   4   1   9    6.92    0.29
  -5  -1  -9    9.56    0.31
  -5  -1  -9    9.46    0.25
   5   1   9    9.47    0.37
  -6  -1  -9    8.45    0.28
  -7  -1  -9    1.51    0.09
  -8  -1  -9    4.72    0.18
  -9  -1  -9    0.97    0.07
   6  -2  -9    0.71    0.08
  -6   2   9    0.76    0.05
   5  -2  -9    1.41    0.10
  -5   2   9    1.22    0.06
   4  -2  -9    1.74    0.11
  -4   2   9    1.62    0.06
   3  -2  -9    4.85    0.14
   3  -2  -9    4.91    0.20
  -3   2   9    4.88    0.14
  -3   2   9    4.68    0.14
   2  -2  -9    5.29    0.21
   2  -2  -9    5.40    0.15
  -2   2   9    5.52    0.15
  -2   2   9    5.26    0.15
  -2   2   9    4.94    0.22
   1  -2  -9    7.83    0.22
   1  -2  -9    8.39    0.29
  -1   2   9    7.53    0.31
  -1   2   9    8.17    0.21
  -1   2   9    8.42    0.21
   0  -2  -9    5.71    0.17
   0  -2  -9    5.84    0.16
   0  -2  -9    6.11    0.22
   0   2   9    5.56    0.24
   0   2   9    5.71    0.16
  -1  -2  -9   16.46    0.42
  -1  -2  -9   16.25    0.36
  -1  -2  -9   16.59    0.41
  -1  -2  -9   16.66    0.52
  -1  -2  -9   15.89    0.64
   1   2   9   15.57    0.59
   1   2   9   16.86    0.40
  -2  -2  -9   11.86    0.31
  -2  -2  -9   11.95    0.38
  -2  -2  -9   11.79    0.27
  -2  -2  -9   11.60    0.36
  -2  -2  -9   11.43    0.48
   2   2   9   11.32    0.44
   2   2   9   11.77    0.29
  -3  -2  -9    6.49    0.30
  -3  -2  -9    6.60    0.18
  -3  -2  -9    6.52    0.18
  -3  -2  -9    6.37    0.22
  -3  -2  -9    6.40    0.15
   3   2   9    6.24    0.27
  -4  -2  -9    4.81    0.14
  -4  -2  -9    4.75    0.17
   4   2   9    4.66    0.21
  -5  -2  -9    7.67    0.25
  -5  -2  -9    7.46    0.20
  -6  -2  -9    5.50    0.20
  -7  -2  -9    1.15    0.07
  -8  -2  -9    2.51    0.12
  -9  -2  -9    1.19    0.08
   6  -3  -9    1.22    0.10
  -6   3   9    1.22    0.06
   5  -3  -9    0.76    0.08
  -5   3   9    0.75    0.05
   4  -3  -9    0.46    0.07
  -4   3   9    0.49    0.04
   3  -3  -9    0.47    0.06
   3  -3  -9    0.45    0.03
  -3   3   9    0.50    0.04
  -3   3   9    0.50    0.04
   2  -3  -9    6.55    0.25
   2  -3  -9    6.47    0.18
  -2   3   9    6.34    0.26
  -2   3   9    6.78    0.18
  -2   3   9    6.64    0.18
   1  -3  -9    9.39    0.33
   1  -3  -9    9.24    0.25
   1  -3  -9    9.10    0.25
  -1   3   9    8.83    0.35
  -1   3   9    9.85    0.25
  -1   3   9    9.59    0.25
   0  -3  -9    6.18    0.18
   0  -3  -9    6.07    0.17
   0  -3  -9    6.21    0.23
   0   3   9    6.28    0.17
   0   3   9    5.73    0.25
  -1  -3  -9    6.02    0.28
  -1  -3  -9    5.88    0.17
  -1  -3  -9    6.00    0.17
  -1  -3  -9    6.22    0.22
   1   3   9    5.62    0.25
   1   3   9    6.27    0.16
  -2  -3  -9   15.65    0.64
  -2  -3  -9   16.35    0.51
  -2  -3  -9   15.81    0.48
  -2  -3  -9   16.34    0.40
  -2  -3  -9   16.36    0.41
  -2  -3  -9   15.86    0.36
   2   3   9   15.19    0.58
   2   3   9   16.25    0.39
  -3  -3  -9   10.81    0.34
  -3  -3  -9   10.36    0.24
  -3  -3  -9   10.30    0.45
  -3  -3  -9   10.08    0.33
  -3  -3  -9   10.45    0.28
   3   3   9    9.98    0.40
  -4  -3  -9    3.65    0.12
  -4  -3  -9    3.71    0.12
  -4  -3  -9    3.82    0.15
   4   3   9    3.56    0.18
  -5  -3  -9    5.46    0.16
  -5  -3  -9    5.52    0.20
  -6  -3  -9    7.67    0.26
  -7  -3  -9    2.68    0.12
  -8  -3  -9    5.00    0.18
  -9  -3  -9    3.70    0.15
   5  -4  -9    0.23    0.05
  -5   4   9    0.20    0.03
   4  -4  -9    0.49    0.07
  -4   4   9    0.52    0.04
   3  -4  -9    3.21    0.10
   3  -4  -9    2.87    0.15
  -3   4   9    3.19    0.11
  -3   4   9    3.19    0.11
   2  -4  -9    0.84    0.05
   2  -4  -9    0.93    0.08
  -2   4   9    0.91    0.05
  -2   4   9    0.89    0.05
   1  -4  -9    0.27    0.05
   1  -4  -9    0.35    0.03
  -1   4   9    0.21    0.05
  -1   4   9    0.32    0.03
  -1   4   9    0.22    0.03
   0  -4  -9    0.29    0.03
   0  -4  -9    0.36    0.03
   0  -4  -9    0.38    0.03
   0  -4  -9    0.21    0.04
   0   4   9    0.27    0.03
   0   4   9    0.21    0.05
  -1  -4  -9    3.24    0.18
  -1  -4  -9    3.12    0.14
  -1  -4  -9    3.24    0.11
  -1  -4  -9    3.13    0.11
   1   4   9    3.03    0.16
   1   4   9    3.31    0.10
  -2  -4  -9   13.11    0.40
  -2  -4  -9   13.09    0.34
  -2  -4  -9   13.04    0.34
  -2  -4  -9   13.45    0.42
  -2  -4  -9   12.26    0.54
   2   4   9   12.43    0.48
   2   4   9   13.31    0.32
  -3  -4  -9    4.72    0.12
  -3  -4  -9    4.69    0.18
  -3  -4  -9    4.80    0.18
  -3  -4  -9    4.30    0.24
  -3  -4  -9    4.57    0.14
  -4  -4  -9    2.71    0.12
  -4  -4  -9    2.67    0.08
  -4  -4  -9    2.70    0.09
  -4  -4  -9    2.72    0.12
  -5  -4  -9   17.49    0.52
  -5  -4  -9   17.31    0.44
  -6  -4  -9   15.44    0.40
  -6  -4  -9   15.83    0.47
  -7  -4  -9    1.46    0.08
  -8  -4  -9    2.34    0.11
  -9  -4  -9    2.97    0.13
   4  -5  -9    0.74    0.08
  -4   5   9    0.80    0.05
   3  -5  -9    1.92    0.07
   3  -5  -9    1.75    0.12
  -3   5   9    1.86    0.08
  -3   5   9    1.89    0.08
   2  -5  -9    0.71    0.05
   2  -5  -9    0.65    0.07
  -2   5   9    0.69    0.05
  -2   5   9    0.66    0.05
   1  -5  -9    6.80    0.20
   1  -5  -9    6.89    0.27
  -1   5   9    7.05    0.19
   0  -5  -9    2.73    0.13
   0  -5  -9    2.55    0.10
   0   5   9    2.49    0.14
   0   5   9    2.60    0.09
  -1  -5  -9    2.93    0.10
  -1  -5  -9    2.81    0.13
  -1  -5  -9    2.89    0.10
   1   5   9    3.07    0.09
  -2  -5  -9    4.23    0.14
  -2  -5  -9    4.26    0.17
  -2  -5  -9    4.19    0.13
   2   5   9    4.24    0.12
  -3  -5  -9    3.11    0.14
  -3  -5  -9    3.33    0.14
  -3  -5  -9    3.29    0.11
  -4  -5  -9    1.53    0.08
  -4  -5  -9    1.54    0.06
  -4  -5  -9    1.50    0.09
  -4  -5  -9    1.57    0.07
  -5  -5  -9   17.37    0.52
  -5  -5  -9   16.75    0.44
  -6  -5  -9    0.72    0.07
  -6  -5  -9    0.81    0.05
  -7  -5  -9    2.67    0.12
  -8  -5  -9    7.53    0.25
  -9  -5  -9    2.58    0.12
   3  -6  -9    0.33    0.06
  -3   6   9    0.47    0.05
  -3   6   9    0.46    0.05
   2  -6  -9    1.28    0.06
   2  -6  -9    1.16    0.10
  -2   6   9    1.28    0.06
   1  -6  -9    1.66    0.11
   1  -6  -9    1.81    0.08
  -1   6   9    1.65    0.07
   0  -6  -9    1.48    0.10
   0  -6  -9    1.65    0.07
   0   6   9    1.56    0.07
  -1  -6  -9    7.17    0.21
  -1  -6  -9    7.20    0.21
  -1  -6  -9    7.37    0.21
  -1  -6  -9    7.44    0.27
   1   6   9    7.73    0.20
  -2  -6  -9    2.35    0.09
  -2  -6  -9    2.37    0.12
  -2  -6  -9    2.11    0.09
   2   6   9    2.29    0.08
  -3  -6  -9    5.91    0.22
  -3  -6  -9    5.99    0.18
  -3  -6  -9    6.03    0.22
  -4  -6  -9    4.35    0.14
  -4  -6  -9    4.49    0.18
  -4  -6  -9    4.77    0.18
  -5  -6  -9    8.95    0.29
  -5  -6  -9    8.58    0.30
  -5  -6  -9    8.63    0.24
  -6  -6  -9    0.48    0.04
  -6  -6  -9    0.46    0.05
  -7  -6  -9    3.57    0.15
  -8  -6  -9    6.54    0.23
  -9  -6  -9    0.92    0.07
   2  -7  -9    0.66    0.08
   2  -7  -9    0.56    0.04
  -2   7   9    0.64    0.05
   1  -7  -9    0.50    0.07
   1  -7  -9    0.57    0.05
  -1   7   9    0.50    0.04
   0  -7  -9    1.23    0.09
   0  -7  -9    1.35    0.07
   0   7   9    1.35    0.06
  -1  -7  -9    2.00    0.12
  -1  -7  -9    1.98    0.09
   1   7   9    2.20    0.08
  -2  -7  -9    1.19    0.07
  -2  -7  -9    1.13    0.06
  -2  -7  -9    1.05    0.08
  -2  -7  -9    1.17    0.07
   2   7   9    1.10    0.05
  -3  -7  -9    2.73    0.10
  -3  -7  -9    2.82    0.13
  -4  -7  -9    1.63    0.07
  -4  -7  -9    1.52    0.09
  -4  -7  -9    1.68    0.10
  -5  -7  -9    0.68    0.08
  -5  -7  -9    0.70    0.06
  -5  -7  -9    0.64    0.05
  -6  -7  -9    7.08    0.21
  -6  -7  -9    7.15    0.25
  -6  -7  -9    7.21    0.25
  -7  -7  -9    0.94    0.06
  -7  -7  -9    1.07    0.08
  -8  -7  -9    3.20    0.14
  -9  -7  -9    1.66    0.09
   1  -8  -9    0.55    0.05
   1  -8  -9    0.54    0.07
  -1   8   9    0.49    0.05
   0  -8  -9    0.30    0.04
   0  -8  -9    0.26    0.05
   0   8   9    0.26    0.03
  -1  -8  -9    0.41    0.04
  -1  -8  -9    0.37    0.06
   1   8   9    0.42    0.04
  -2  -8  -9    0.95    0.08
  -2  -8  -9    1.12    0.06
  -2  -8  -9    1.04    0.06
   2   8   9    1.10    0.05
  -3  -8  -9    2.48    0.10
  -3  -8  -9    2.33    0.12
  -4  -8  -9    3.42    0.12
  -4  -8  -9    3.50    0.15
  -5  -8  -9    1.68    0.10
  -5  -8  -9    1.41    0.07
  -5  -8  -9    1.28    0.09
  -6  -8  -9    4.60    0.15
  -6  -8  -9    4.77    0.19
  -6  -8  -9    4.92    0.19
  -7  -8  -9    0.86    0.06
  -7  -8  -9    0.91    0.07
  -7  -8  -9    0.95    0.08
  -8  -8  -9    2.26    0.12
  -9  -8  -9    1.00    0.08
  -1  -9  -9    1.35    0.07
  -1  -9  -9    1.23    0.10
   1   9   9    1.29    0.06
  -2  -9  -9    0.61    0.06
   2   9   9    0.60    0.04
  -3  -9  -9    0.72    0.06
  -3  -9  -9    0.75    0.07
  -4  -9  -9    0.94    0.06
  -4  -9  -9    0.95    0.08
  -5  -9  -9    1.21    0.07
  -5  -9  -9    1.21    0.09
  -5  -9  -9    1.34    0.10
  -6  -9  -9    3.43    0.13
  -6  -9  -9    3.60    0.16
  -6  -9  -9    3.79    0.17
  -7  -9  -9    1.46    0.10
  -7  -9  -9    1.73    0.11
  -7  -9  -9    1.59    0.08
  -8  -9  -9    1.48    0.09
  -8  -9  -9    1.57    0.10
  -8  -9  -9    1.62    0.08
  -3 -10  -9    1.42    0.08
  -4 -10  -9    1.02    0.09
  -4 -10  -9    1.09    0.07
  -5 -10  -9    0.31    0.04
  -5 -10  -9    0.26    0.05
  -6 -10  -9    1.16    0.10
  -6 -10  -9    0.88    0.06
  -6 -10  -9    0.88    0.08
   3   9 -10    0.26    0.06
  -3  -9  10    0.21    0.04
   6   8 -10    1.54    0.12
  -6  -8  10    1.50    0.07
   5   8 -10    0.81    0.09
  -5  -8  10    0.75    0.05
   4   8 -10    1.31    0.10
  -4  -8  10    1.20    0.06
  -4  -8  10    1.25    0.07
   3   8 -10    0.35    0.03
   3   8 -10    0.34    0.06
  -3  -8  10    0.30    0.04
   2   8 -10    0.59    0.04
   2   8 -10    0.56    0.07
  -2  -8  10    0.54    0.05
   1   8 -10    1.49    0.07
   1   8 -10    1.52    0.11
  -1  -8  10    1.43    0.06
   0   8 -10    1.36    0.07
   0   8 -10    1.52    0.11
   0   8 -10    1.54    0.06
   0  -8  10    1.45    0.06
   7   7 -10    1.17    0.11
   6   7 -10    1.65    0.11
   6   7 -10    1.63    0.12
  -6  -7  10    1.61    0.07
   5   7 -10    1.31    0.10
  -5  -7  10    1.32    0.06
   4   7 -10    0.46    0.07
  -4  -7  10    0.41    0.04
  -4  -7  10    0.47    0.04
   3   7 -10    3.65    0.18
   3   7 -10    3.70    0.11
  -3  -7  10    3.72    0.12
  -3  -7  10    3.62    0.12
   2   7 -10    0.62    0.07
   2   7 -10    0.53    0.04
  -2  -7  10    0.55    0.04
   1   7 -10    1.43    0.06
   1   7 -10    1.43    0.10
  -1  -7  10    1.34    0.06
   0   7 -10    2.04    0.12
   0   7 -10    2.01    0.08
   0   7 -10    2.10    0.07
   0  -7  10    1.91    0.07
  -1   7 -10    0.71    0.08
  -1   7 -10    0.66    0.05
  -1   7 -10    0.62    0.04
   1  -7  10    0.64    0.04
  -2   7 -10    1.16    0.10
  -2   7 -10    1.23    0.07
  -2   7 -10    1.16    0.05
  -2   7 -10    1.20    0.06
   7   6 -10    2.24    0.14
   7   6 -10    2.40    0.14
  -7  -6  10    2.17    0.09
   6   6 -10    0.46    0.07
   6   6 -10    0.41    0.06
  -6  -6  10    0.46    0.04
   5   6 -10    0.56    0.07
  -5  -6  10    0.54    0.04
   4   6 -10    2.79    0.14
  -4  -6  10    2.55    0.09
  -4  -6  10    2.49    0.09
   3   6 -10    2.96    0.15
   3   6 -10    3.05    0.10
  -3  -6  10    2.98    0.10
  -3  -6  10    2.95    0.10
   2   6 -10    1.83    0.07
   2   6 -10    1.79    0.11
  -2  -6  10    1.78    0.07
   1   6 -10    1.12    0.05
   1   6 -10    0.93    0.05
   1   6 -10    1.03    0.08
  -1  -6  10    0.91    0.05
   0   6 -10    0.32    0.03
   0   6 -10    0.29    0.05
   0   6 -10    0.21    0.02
   0  -6  10    0.30    0.03
  -1   6 -10    1.64    0.07
  -1   6 -10    1.67    0.08
  -1   6 -10    1.76    0.11
  -1   6 -10    1.70    0.06
   1  -6  10    1.61    0.06
  -2   6 -10    0.57    0.07
  -2   6 -10    0.56    0.05
  -2   6 -10    0.55    0.04
  -2   6 -10    0.62    0.04
  -3   6 -10    0.63    0.04
  -3   6 -10    0.69    0.08
  -3   6 -10    0.75    0.05
   7   5 -10    0.60    0.07
  -7  -5  10    0.59    0.05
   6   5 -10    2.42    0.14
   6   5 -10    2.56    0.14
  -6  -5  10    2.32    0.09
   5   5 -10    1.09    0.09
   5   5 -10    0.94    0.08
  -5  -5  10    0.98    0.05
   4   5 -10    0.78    0.08
  -4  -5  10    0.72    0.05
   3   5 -10    0.26    0.03
   3   5 -10    0.23    0.05
  -3  -5  10    0.22    0.03
  -3  -5  10    0.27    0.03
   2   5 -10    4.19    0.13
   2   5 -10    4.63    0.19
  -2  -5  10    4.16    0.13
  -2  -5  10    4.20    0.13
   1   5 -10    1.59    0.10
   1   5 -10    1.68    0.07
   1   5 -10    1.70    0.06
  -1  -5  10    1.69    0.06
   0   5 -10    1.54    0.07
   0   5 -10    1.72    0.10
   0   5 -10    1.66    0.06
   0  -5  10    1.70    0.06
  -1   5 -10    3.63    0.17
  -1   5 -10    3.77    0.10
  -1   5 -10    3.48    0.12
  -1   5 -10    3.68    0.12
   1  -5  10    3.62    0.11
  -2   5 -10    0.88    0.08
  -2   5 -10    0.88    0.04
  -2   5 -10    0.91    0.05
  -3   5 -10    1.63    0.06
  -3   5 -10    1.59    0.07
  -3   5 -10    1.68    0.11
  -4   5 -10    1.29    0.07
  -4   5 -10    1.49    0.10
  -4   5 -10    1.29    0.06
   7   4 -10    0.93    0.09
  -7  -4  10    0.77    0.05
   6   4 -10    2.53    0.14
   6   4 -10    2.12    0.13
  -6  -4  10    2.17    0.09
   5   4 -10    1.92    0.12
   5   4 -10    1.87    0.11
  -5  -4  10    1.87    0.08
   4   4 -10    1.56    0.10
   4   4 -10    1.59    0.10
  -4  -4  10    1.52    0.07
   3   4 -10    3.29    0.16
   3   4 -10    3.63    0.11
  -3  -4  10    3.32    0.11
  -3  -4  10    3.48    0.11
   2   4 -10    5.59    0.23
   2   4 -10    5.67    0.16
  -2  -4  10    5.58    0.16
  -2  -4  10    5.52    0.16
   1   4 -10    0.86    0.05
   1   4 -10    0.83    0.07
   1   4 -10    0.83    0.04
  -1  -4  10    0.84    0.04
   0   4 -10    4.21    0.14
   0   4 -10    4.08    0.13
   0   4 -10    4.38    0.18
   0   4 -10    4.27    0.11
   0   4 -10    4.06    0.13
   0  -4  10    4.21    0.12
  -1   4 -10    4.80    0.15
  -1   4 -10    4.58    0.14
  -1   4 -10    4.60    0.12
  -1   4 -10    4.52    0.19
   1  -4  10    4.80    0.13
  -2   4 -10    2.88    0.09
  -2   4 -10    2.99    0.14
  -2   4 -10    2.84    0.10
  -3   4 -10    2.29    0.12
  -3   4 -10    2.19    0.09
  -3   4 -10    2.35    0.07
  -4   4 -10    1.56    0.07
  -4   4 -10    1.69    0.11
  -4   4 -10    1.63    0.06
  -4   4 -10    1.61    0.10
  -5   4 -10    1.26    0.06
  -5   4 -10    1.25    0.10
  -5   4 -10    1.39    0.06
  -5   4 -10    1.29    0.10
   7   3 -10    0.49    0.07
  -7  -3  10    0.51    0.04
   6   3 -10    1.95    0.12
  -6  -3  10    1.89    0.08
   5   3 -10    2.18    0.13
   5   3 -10    1.95    0.12
  -5  -3  10    2.04    0.08
   4   3 -10    1.73    0.11
   4   3 -10    1.73    0.10
  -4  -3  10    1.54    0.07
   3   3 -10    2.30    0.12
   3   3 -10    2.14    0.11
   3   3 -10    2.21    0.08
  -3  -3  10    1.99    0.08
  -3  -3  10    2.09    0.08
   2   3 -10    5.63    0.16
   2   3 -10    5.92    0.23
  -2  -3  10    5.41    0.16
  -2  -3  10    5.48    0.16
   1   3 -10    1.50    0.05
   1   3 -10    1.45    0.09
   1   3 -10    1.44    0.06
  -1  -3  10    1.44    0.06
   0   3 -10    2.33    0.07
   0   3 -10    2.31    0.12
   0   3 -10    2.28    0.08
   0   3 -10    2.29    0.09
   0  -3  10    2.31    0.08
  -1   3 -10    4.46    0.12
  -1   3 -10    4.39    0.18
  -1   3 -10    4.35    0.14
  -1   3 -10    4.46    0.13
   1  -3  10    4.47    0.12
  -2   3 -10    0.74    0.07
  -2   3 -10    0.70    0.05
  -2   3 -10    0.79    0.04
   2  -3  10    0.87    0.03
  -3   3 -10    3.28    0.09
  -3   3 -10    3.23    0.14
  -3   3 -10    3.27    0.15
  -3   3 -10    3.27    0.11
  -4   3 -10    1.51    0.07
  -4   3 -10    1.52    0.10
  -4   3 -10    1.60    0.06
  -4   3 -10    1.58    0.10
  -5   3 -10    2.08    0.08
  -5   3 -10    2.07    0.12
  -5   3 -10    2.12    0.07
  -5   3 -10    2.10    0.11
  -6   3 -10    0.88    0.09
  -6   3 -10    0.79    0.05
  -6   3 -10    0.89    0.08
   7   2 -10    0.42    0.07
  -7  -2  10    0.34    0.04
   6   2 -10    3.17    0.16
  -6  -2  10    2.85    0.10
   5   2 -10    1.53    0.10
  -5  -2  10    1.58    0.07
   4   2 -10    2.78    0.14
   4   2 -10    2.52    0.13
  -4  -2  10    2.49    0.09
   3   2 -10    5.74    0.16
   3   2 -10    5.88    0.23
   3   2 -10    5.59    0.22
  -3  -2  10    5.71    0.16
  -3  -2  10    5.58    0.16
   2   2 -10   11.22    0.39
   2   2 -10   10.76    0.37
   2   2 -10   11.13    0.29
  -2  -2  10   10.67    0.28
  -2  -2  10   11.08    0.29
   1   2 -10    0.04    0.01
   1   2 -10    0.03    0.02
   1   2 -10    0.02    0.03
  -1  -2  10   -0.03    0.02
   0   2 -10    3.59    0.16
   0   2 -10    3.71    0.10
   0   2 -10    3.58    0.12
   0   2 -10    3.62    0.11
   0  -2  10    3.53    0.11
  -1   2 -10    4.00    0.13
  -1   2 -10    3.96    0.11
  -1   2 -10    4.16    0.17
  -1   2 -10    4.02    0.13
  -1   2 -10    3.97    0.12
   1  -2  10    4.16    0.11
  -2   2 -10    0.11    0.02
  -2   2 -10    0.17    0.04
  -2   2 -10    0.12    0.02
   2  -2  10    0.16    0.02
  -3   2 -10    0.51    0.06
  -3   2 -10    0.45    0.05
  -3   2 -10    0.58    0.03
  -3   2 -10    0.60    0.04
  -4   2 -10    1.41    0.05
  -4   2 -10    1.51    0.09
  -4   2 -10    1.39    0.06
  -4   2 -10    1.38    0.09
  -5   2 -10    2.89    0.14
  -5   2 -10    2.68    0.10
  -5   2 -10    2.89    0.13
  -6   2 -10    1.45    0.09
  -6   2 -10    1.41    0.06
  -6   2 -10    1.45    0.10
  -7   2 -10    0.63    0.04
  -7   2 -10    0.80    0.07
  -7   2 -10    0.66    0.08
   7   1 -10    1.29    0.11
   6   1 -10    1.77    0.12
  -6  -1  10    1.70    0.07
   5   1 -10    0.03    0.03
  -5  -1  10   -0.03    0.02
   4   1 -10    2.63    0.13
  -4  -1  10    2.55    0.09
   3   1 -10    4.24    0.18
   3   1 -10    4.31    0.19
   3   1 -10    4.31    0.13
  -3  -1  10    4.40    0.13
  -3  -1  10    4.17    0.13
   2   1 -10    7.04    0.19
   2   1 -10    6.92    0.25
   2   1 -10    7.03    0.26
  -2  -1  10    6.95    0.19
  -2  -1  10    6.79    0.19
   1   1 -10    0.11    0.02
   1   1 -10    0.12    0.03
   1   1 -10    0.13    0.04
  -1  -1  10    0.05    0.02
   0   1 -10   17.42    0.45
   0   1 -10   17.61    0.44
   0   1 -10   17.65    0.39
   0   1 -10   16.87    0.58
   0  -1  10   17.69    0.43
  -1   1 -10   21.52    0.69
  -1   1 -10   21.23    0.54
  -1   1 -10   20.84    0.47
  -1   1 -10   21.32    0.53
   1  -1  10   21.61    0.52
  -2   1 -10    2.12    0.07
  -2   1 -10    2.21    0.08
  -2   1 -10    2.01    0.11
  -2   1 -10    2.19    0.11
   2  -1  10    2.11    0.06
  -3   1 -10    3.22    0.11
  -3   1 -10    3.10    0.14
  -3   1 -10    3.26    0.14
  -3   1 -10    2.93    0.09
  -4   1 -10    3.66    0.16
  -4   1 -10    3.86    0.16
  -4   1 -10    3.74    0.12
  -4   1 -10    3.80    0.10
  -5   1 -10    5.01    0.20
  -5   1 -10    5.11    0.19
  -5   1 -10    4.97    0.15
  -6   1 -10    0.34    0.04
  -6   1 -10    0.39    0.03
  -6   1 -10    0.34    0.05
  -7   1 -10    0.01    0.03
  -7   1 -10    0.04    0.02
   6   0 -10    0.87    0.09
  -6   0  10    0.98    0.05
   5   0 -10    0.83    0.08
  -5   0  10    0.81    0.05
   4   0 -10    4.65    0.20
  -4   0  10    4.54    0.14
   3   0 -10    1.34    0.09
   3   0 -10    1.20    0.09
   3   0 -10    1.28    0.05
  -3   0  10    1.22    0.06
  -3   0  10    1.21    0.06
   2   0 -10    1.11    0.08
   2   0 -10    1.06    0.08
   2   0 -10    0.88    0.05
  -2   0  10    0.90    0.05
  -2   0  10    0.91    0.05
   1   0 -10   11.67    0.40
   1   0 -10   11.51    0.30
   1   0 -10   11.75    0.39
  -1   0  10   11.55    0.30
  -1   0  10   11.46    0.30
   0   0 -10    1.59    0.07
   0   0 -10    1.55    0.06
   0   0 -10    1.58    0.09
   0   0 -10    1.48    0.09
   0   0 -10    1.57    0.07
   0   0  10    1.57    0.06
  -1   0 -10    5.40    0.17
  -1   0 -10    5.55    0.16
  -1   0 -10    5.49    0.14
  -1   0 -10    5.57    0.21
   1   0  10    5.63    0.15
  -2   0 -10    0.69    0.04
  -2   0 -10    0.68    0.07
  -2   0 -10    0.76    0.05
  -2   0 -10    0.59    0.06
  -2   0 -10    0.72    0.05
   2   0  10    0.65    0.03
   2   0  10    0.72    0.07
  -3   0 -10   18.25    0.56
  -3   0 -10   18.72    0.41
  -3   0 -10   18.65    0.48
  -4   0 -10    2.58    0.12
  -4   0 -10    2.49    0.07
  -4   0 -10    2.50    0.09
  -5   0 -10    3.26    0.14
  -5   0 -10    3.16    0.10
  -6   0 -10    1.33    0.09
  -6   0 -10    1.27    0.06
  -7   0 -10    2.36    0.12
  -7   0 -10    2.18    0.08
  -8   0 -10    1.59    0.10
   6  -1 -10    0.63    0.08
  -6   1  10    0.64    0.05
   5  -1 -10    1.66    0.11
  -5   1  10    1.84    0.07
   4  -1 -10    1.87    0.12
  -4   1  10    1.85    0.07
   3  -1 -10    2.13    0.08
   3  -1 -10    2.29    0.12
  -3   1  10    2.07    0.08
  -3   1  10    2.16    0.08
   2  -1 -10    4.41    0.13
   2  -1 -10    4.30    0.13
   2  -1 -10    4.33    0.18
  -2   1  10    4.28    0.13
  -2   1  10    4.23    0.13
   1  -1 -10   13.71    0.35
   1  -1 -10   13.04    0.45
   1  -1 -10   13.25    0.46
  -1   1  10   14.09    0.35
  -1   1  10   13.65    0.34
   0  -1 -10    0.00    0.03
   0  -1 -10    0.03    0.02
   0   1  10    0.03    0.02
  -1  -1 -10   10.21    0.27
  -1  -1 -10   10.21    0.28
  -1  -1 -10   10.33    0.24
   1   1  10   10.53    0.26
  -2  -1 -10    4.14    0.21
  -2  -1 -10    4.35    0.13
  -2  -1 -10    4.20    0.11
  -2  -1 -10    4.12    0.16
   2   1  10    4.10    0.11
  -3  -1 -10    0.79    0.04
  -3  -1 -10    0.84    0.05
  -3  -1 -10    0.89    0.09
  -3  -1 -10    0.83    0.05
  -3  -1 -10    0.82    0.07
  -4  -1 -10    0.72    0.07
  -4  -1 -10    0.63    0.04
  -4  -1 -10    0.61    0.04
  -5  -1 -10    4.25    0.17
  -5  -1 -10    4.03    0.13
  -6  -1 -10    0.70    0.06
  -6  -1 -10    0.73    0.04
  -7  -1 -10    2.78    0.13
  -8  -1 -10    0.70    0.07
   5  -2 -10    0.97    0.09
  -5   2  10    0.93    0.05
   4  -2 -10    2.07    0.13
  -4   2  10    2.24    0.08
   3  -2 -10    2.91    0.09
   3  -2 -10    2.83    0.15
  -3   2  10    2.97    0.10
  -3   2  10    3.03    0.10
   2  -2 -10    5.52    0.16
   2  -2 -10    5.73    0.23
  -2   2  10    5.70    0.16
  -2   2  10    5.64    0.16
   1  -2 -10    3.84    0.16
   1  -2 -10    3.58    0.12
  -1   2  10    3.61    0.11
   0  -2 -10    4.88    0.15
   0  -2 -10    4.76    0.19
   0  -2 -10    4.78    0.14
   0   2  10    4.70    0.14
  -1  -2 -10    6.36    0.19
  -1  -2 -10    6.56    0.19
  -1  -2 -10    6.72    0.24
   1   2  10    6.71    0.18
  -2  -2 -10    3.38    0.14
  -2  -2 -10    3.29    0.11
  -2  -2 -10    3.34    0.18
  -2  -2 -10    3.42    0.10
   2   2  10    3.23    0.09
  -3  -2 -10    2.74    0.13
  -3  -2 -10    2.77    0.08
  -3  -2 -10    2.79    0.10
  -4  -2 -10    6.78    0.16
  -4  -2 -10    6.82    0.19
  -4  -2 -10    6.82    0.24
  -5  -2 -10    2.85    0.13
  -5  -2 -10    2.82    0.10
  -6  -2 -10    2.15    0.11
  -6  -2 -10    2.11    0.08
  -7  -2 -10    5.93    0.21
  -8  -2 -10    1.12    0.08
   5  -3 -10    0.51    0.07
  -5   3  10    0.55    0.05
   4  -3 -10    0.73    0.08
  -4   3  10    0.68    0.05
   3  -3 -10    0.16    0.05
   3  -3 -10    0.07    0.02
  -3   3  10    0.07    0.02
  -3   3  10    0.05    0.02
   2  -3 -10    1.13    0.09
   2  -3 -10    1.17    0.06
  -2   3  10    1.26    0.06
  -2   3  10    1.15    0.06
   1  -3 -10    4.68    0.14
   1  -3 -10    4.68    0.14
   1  -3 -10    4.71    0.20
  -1   3  10    4.73    0.14
   0  -3 -10    4.32    0.18
   0  -3 -10    4.21    0.13
   0  -3 -10    4.10    0.13
   0   3  10    4.49    0.13
  -1  -3 -10    5.76    0.18
  -1  -3 -10    6.15    0.23
  -1  -3 -10    5.90    0.17
   1   3  10    6.01    0.16
  -2  -3 -10    7.63    0.26
  -2  -3 -10    7.40    0.21
  -2  -3 -10    7.01    0.33
  -2  -3 -10    7.31    0.21
  -2  -3 -10    7.35    0.18
   2   3  10    7.48    0.19
  -3  -3 -10    9.50    0.31
  -3  -3 -10    9.61    0.23
  -3  -3 -10    9.70    0.27
  -4  -3 -10    6.04    0.18
  -4  -3 -10    6.12    0.15
  -4  -3 -10    6.32    0.22
  -4  -3 -10    6.20    0.18
  -5  -3 -10    3.46    0.11
  -5  -3 -10    3.67    0.15
  -6  -3 -10    1.98    0.07
  -6  -3 -10    2.00    0.11
  -7  -3 -10    1.43    0.09
  -8  -3 -10    2.46    0.12
  -9  -3 -10    0.76    0.07
   4  -4 -10    1.04    0.09
  -4   4  10    1.17    0.06
   3  -4 -10    1.28    0.06
   3  -4 -10    1.17    0.10
  -3   4  10    1.29    0.07
  -3   4  10    1.42    0.07
   2  -4 -10    2.06    0.08
   2  -4 -10    2.06    0.12
  -2   4  10    2.08    0.08
  -2   4  10    2.22    0.08
   1  -4 -10    1.16    0.06
   1  -4 -10    1.23    0.09
  -1   4  10    1.07    0.06
   0  -4 -10    0.75    0.07
   0  -4 -10    0.86    0.05
   0  -4 -10    0.74    0.05
   0   4  10    0.80    0.05
  -1  -4 -10    4.17    0.13
  -1  -4 -10    4.10    0.17
  -1  -4 -10    3.97    0.13
   1   4  10    4.20    0.12
  -2  -4 -10    2.74    0.10
  -2  -4 -10    2.84    0.13
  -2  -4 -10    2.76    0.10
   2   4  10    2.93    0.09
  -3  -4 -10    2.90    0.13
  -3  -4 -10    2.91    0.13
  -3  -4 -10    2.78    0.10
  -3  -4 -10    2.85    0.09
  -4  -4 -10    4.03    0.16
  -4  -4 -10    3.79    0.11
  -4  -4 -10    3.83    0.13
  -5  -4 -10    5.29    0.16
  -5  -4 -10    5.43    0.16
  -5  -4 -10    5.40    0.20
  -6  -4 -10    3.71    0.15
  -6  -4 -10    3.60    0.12
  -7  -4 -10    1.40    0.09
  -8  -4 -10    0.61    0.06
  -9  -4 -10    0.69    0.06
   3  -5 -10    0.27    0.06
  -3   5  10    0.30    0.03
  -3   5  10    0.35    0.04
   2  -5 -10    2.43    0.14
   2  -5 -10    2.72    0.10
  -2   5  10    2.67    0.10
   1  -5 -10    3.42    0.12
   1  -5 -10    3.29    0.16
  -1   5  10    3.49    0.11
   0  -5 -10    3.57    0.12
   0  -5 -10    3.76    0.17
   0   5  10    3.70    0.12
  -1  -5 -10    1.36    0.09
  -1  -5 -10    1.34    0.07
  -1  -5 -10    1.27    0.07
   1   5  10    1.19    0.06
  -2  -5 -10    4.50    0.15
  -2  -5 -10    4.58    0.19
  -2  -5 -10    4.35    0.14
   2   5  10    4.73    0.13
  -3  -5 -10    5.14    0.16
  -3  -5 -10    5.35    0.20
  -3  -5 -10    5.50    0.21
  -4  -5 -10    1.24    0.08
  -4  -5 -10    1.22    0.06
  -4  -5 -10    1.26    0.05
  -4  -5 -10    1.33    0.09
  -5  -5 -10    0.66    0.05
  -5  -5 -10    0.69    0.08
  -6  -5 -10    6.14    0.18
  -6  -5 -10    5.95    0.18
  -6  -5 -10    6.28    0.22
  -7  -5 -10    2.69    0.13
  -8  -5 -10    1.11    0.08
  -9  -5 -10    1.92    0.10
   2  -6 -10    0.67    0.08
   2  -6 -10    0.73    0.05
  -2   6  10    0.74    0.05
   1  -6 -10    0.94    0.09
   1  -6 -10    1.09    0.06
  -1   6  10    1.07    0.06
   0  -6 -10    0.99    0.09
   0  -6 -10    1.05    0.06
   0   6  10    1.15    0.06
  -1  -6 -10    0.90    0.06
  -1  -6 -10    0.89    0.06
  -1  -6 -10    0.84    0.06
  -1  -6 -10    0.75    0.08
   1   6  10    0.89    0.05
  -2  -6 -10    5.14    0.21
  -2  -6 -10    5.11    0.16
  -2  -6 -10    5.34    0.16
   2   6  10    5.29    0.14
  -3  -6 -10    2.43    0.10
  -3  -6 -10    2.43    0.12
  -4  -6 -10    1.24    0.07
  -4  -6 -10    1.30    0.10
  -4  -6 -10    1.13    0.08
  -5  -6 -10    5.07    0.14
  -5  -6 -10    5.25    0.17
  -5  -6 -10    5.38    0.20
  -5  -6 -10    5.51    0.21
  -6  -6 -10    7.38    0.22
  -6  -6 -10    7.58    0.27
  -7  -6 -10    1.58    0.07
  -7  -6 -10    1.58    0.10
  -8  -6 -10    1.70    0.10
  -9  -6 -10    3.65    0.15
   1  -7 -10    0.67    0.08
   1  -7 -10    0.78    0.05
  -1   7  10    0.74    0.05
   0  -7 -10    0.70    0.08
   0  -7 -10    0.79    0.06
   0   7  10    0.69    0.05
  -1  -7 -10    1.51    0.10
  -1  -7 -10    1.53    0.08
   1   7  10    1.56    0.07
  -2  -7 -10    3.48    0.12
  -2  -7 -10    3.26    0.12
  -2  -7 -10    3.39    0.12
  -2  -7 -10    3.50    0.16
   2   7  10    3.51    0.10
  -3  -7 -10    1.73    0.08
  -3  -7 -10    1.74    0.10
  -4  -7 -10    0.30    0.05
  -4  -7 -10    0.26    0.05
  -4  -7 -10    0.33    0.04
  -5  -7 -10    6.75    0.25
  -5  -7 -10    6.65    0.21
  -5  -7 -10    7.26    0.25
  -6  -7 -10    0.45    0.06
  -6  -7 -10    0.36    0.04
  -7  -7 -10    0.84    0.08
  -7  -7 -10    0.84    0.06
  -8  -7 -10    0.75    0.07
   0  -8 -10    0.31    0.06
   0  -8 -10    0.34    0.04
   0   8  10    0.28    0.04
  -1  -8 -10    0.59    0.07
  -1  -8 -10    0.50    0.05
   1   8  10    0.53    0.04
  -2  -8 -10    0.50    0.05
  -2  -8 -10    0.47    0.05
  -2  -8 -10    0.40    0.06
   2   8  10    0.43    0.04
  -3  -8 -10    2.24    0.12
  -3  -8 -10    2.28    0.10
  -4  -8 -10    1.80    0.11
  -4  -8 -10    1.70    0.08
  -5  -8 -10    4.11    0.18
  -5  -8 -10    3.82    0.14
  -5  -8 -10    4.56    0.19
  -6  -8 -10    0.31    0.05
  -6  -8 -10    0.24    0.05
  -6  -8 -10    0.23    0.04
  -7  -8 -10    3.34    0.15
  -7  -8 -10    3.10    0.12
  -8  -8 -10    2.14    0.12
  -2  -9 -10    0.61    0.06
  -3  -9 -10    0.80    0.06
  -3  -9 -10    0.89    0.06
  -3  -9 -10    0.83    0.08
  -4  -9 -10    0.28    0.05
  -5  -9 -10    0.82    0.08
  -5  -9 -10    0.75    0.06
  -6  -9 -10    2.00    0.09
  -6  -9 -10    2.07    0.12
  -6  -9 -10    2.30    0.13
   3   8 -11    1.15    0.06
   3   8 -11    1.40    0.11
  -3  -8  11    1.13    0.07
   2   8 -11    1.00    0.09
   5   7 -11    0.25    0.06
  -5  -7  11    0.30    0.04
   4   7 -11    2.84    0.15
  -4  -7  11    2.72    0.10
  -4  -7  11    2.85    0.10
   3   7 -11    0.15    0.05
   3   7 -11    0.09    0.02
  -3  -7  11    0.10    0.03
   2   7 -11    0.45    0.04
   2   7 -11    0.45    0.06
  -2  -7  11    0.39    0.04
   1   7 -11    0.34    0.06
   1   7 -11    0.31    0.03
  -1  -7  11    0.27    0.03
   0   7 -11    2.85    0.15
   0   7 -11    2.98    0.09
   0   7 -11    2.63    0.10
   0  -7  11    2.79    0.09
  -1   7 -11    0.90    0.09
   6   6 -11    1.07    0.10
   6   6 -11    1.03    0.09
  -6  -6  11    0.98    0.06
   5   6 -11    0.18    0.05
  -5  -6  11    0.13    0.03
   4   6 -11    0.94    0.09
  -4  -6  11    0.96    0.06
  -4  -6  11    0.97    0.05
   3   6 -11    0.94    0.05
   3   6 -11    0.94    0.09
  -3  -6  11    0.90    0.05
   2   6 -11    1.74    0.07
   2   6 -11    1.80    0.11
  -2  -6  11    1.69    0.07
   1   6 -11    1.46    0.10
   1   6 -11    1.40    0.06
  -1  -6  11    1.32    0.06
   0   6 -11    2.09    0.09
   0   6 -11    2.30    0.08
   0   6 -11    2.23    0.13
   0  -6  11    2.05    0.08
  -1   6 -11    0.11    0.02
  -1   6 -11    0.13    0.03
  -1   6 -11    0.25    0.05
   1  -6  11    0.14    0.02
  -2   6 -11    1.20    0.06
  -2   6 -11    1.28    0.10
  -2   6 -11    1.29    0.06
  -2   6 -11    1.29    0.07
   6   5 -11    0.90    0.09
   6   5 -11    0.77    0.08
  -6  -5  11    0.85    0.05
   5   5 -11    0.82    0.08
   5   5 -11    0.86    0.08
  -5  -5  11    0.80    0.05
   4   5 -11    0.27    0.05
  -4  -5  11    0.33    0.04
  -4  -5  11    0.29    0.03
   3   5 -11    3.38    0.16
   3   5 -11    3.39    0.11
  -3  -5  11    3.15    0.11
  -3  -5  11    3.28    0.11
   2   5 -11    0.50    0.04
   2   5 -11    0.51    0.07
  -2  -5  11    0.42    0.04
   1   5 -11    1.51    0.06
   1   5 -11    1.42    0.05
   1   5 -11    1.33    0.10
  -1  -5  11    1.39    0.06
   0   5 -11    4.64    0.12
   0   5 -11    4.39    0.14
   0   5 -11    4.46    0.20
   0  -5  11    4.39    0.13
  -1   5 -11    0.84    0.05
  -1   5 -11    0.99    0.08
  -1   5 -11    0.85    0.05
  -1   5 -11    0.89    0.06
   1  -5  11    0.80    0.04
  -2   5 -11    1.66    0.06
  -2   5 -11    1.60    0.08
  -2   5 -11    1.78    0.11
  -2   5 -11    1.69    0.07
  -3   5 -11    1.76    0.08
  -3   5 -11    1.76    0.11
  -3   5 -11    1.73    0.07
   6   4 -11    0.48    0.07
   6   4 -11    0.49    0.07
  -6  -4  11    0.45    0.04
   5   4 -11    0.76    0.08
   5   4 -11    0.70    0.07
  -5  -4  11    0.70    0.05
   4   4 -11    1.46    0.10
  -4  -4  11    1.38    0.06
  -4  -4  11    1.57    0.07
   3   4 -11    1.31    0.10
   3   4 -11    1.25    0.06
  -3  -4  11    1.21    0.06
  -3  -4  11    1.35    0.06
   2   4 -11    1.06    0.08
   2   4 -11    1.11    0.05
  -2  -4  11    1.11    0.05
   1   4 -11    1.90    0.11
   1   4 -11    1.85    0.07
   1   4 -11    1.96    0.07
  -1  -4  11    1.84    0.07
   0   4 -11    1.65    0.06
   0   4 -11    1.60    0.10
   0   4 -11    1.65    0.07
   0  -4  11    1.54    0.06
  -1   4 -11    1.91    0.07
  -1   4 -11    1.87    0.11
  -1   4 -11    1.77    0.07
  -1   4 -11    1.91    0.08
  -1   4 -11    1.87    0.08
   1  -4  11    1.85    0.07
  -2   4 -11    2.29    0.09
  -2   4 -11    2.33    0.13
  -2   4 -11    2.32    0.08
  -3   4 -11    2.58    0.14
  -3   4 -11    2.49    0.08
  -3   4 -11    2.41    0.10
  -4   4 -11    0.68    0.08
  -4   4 -11    0.54    0.05
  -4   4 -11    0.62    0.04
   6   3 -11    1.16    0.10
  -6  -3  11    1.11    0.06
   5   3 -11    0.64    0.07
   5   3 -11    0.81    0.08
  -5  -3  11    0.61    0.05
   4   3 -11    0.36    0.05
   4   3 -11    0.34    0.06
  -4  -3  11    0.40    0.04
   3   3 -11    0.69    0.07
   3   3 -11    0.65    0.04
  -3  -3  11    0.63    0.05
   2   3 -11    2.84    0.14
   2   3 -11    2.61    0.09
  -2  -3  11    2.63    0.09
   1   3 -11    0.08    0.03
   1   3 -11    0.05    0.01
   1   3 -11    0.04    0.02
  -1  -3  11    0.01    0.02
   0   3 -11    0.08    0.02
   0   3 -11    0.11    0.02
   0   3 -11    0.20    0.04
   0   3 -11    0.13    0.02
   0  -3  11    0.08    0.02
  -1   3 -11    2.79    0.09
  -1   3 -11    2.54    0.10
  -1   3 -11    2.56    0.13
  -1   3 -11    2.49    0.10
  -1   3 -11    2.64    0.08
   1  -3  11    2.74    0.08
  -2   3 -11    3.43    0.16
  -2   3 -11    3.27    0.12
  -2   3 -11    3.31    0.10
  -3   3 -11    1.11    0.08
  -3   3 -11    1.11    0.05
  -3   3 -11    1.04    0.06
  -4   3 -11    2.13    0.07
  -4   3 -11    1.96    0.08
  -4   3 -11    1.99    0.12
  -4   3 -11    2.08    0.12
  -5   3 -11    3.33    0.16
  -5   3 -11    3.25    0.12
  -5   3 -11    3.57    0.10
  -5   3 -11    3.30    0.16
   6   2 -11    0.31    0.06
  -6  -2  11    0.25    0.03
   5   2 -11    1.56    0.11
  -5  -2  11    1.57    0.07
   4   2 -11    1.05    0.09
   4   2 -11    0.94    0.08
  -4  -2  11    0.92    0.05
   3   2 -11    1.29    0.06
   3   2 -11    1.28    0.09
   3   2 -11    1.32    0.09
  -3  -2  11    1.23    0.06
  -3  -2  11    1.28    0.06
   2   2 -11    3.98    0.13
   2   2 -11    4.37    0.18
  -2  -2  11    3.90    0.12
  -2  -2  11    3.75    0.12
   1   2 -11    3.64    0.16
   1   2 -11    3.70    0.12
  -1  -2  11    3.68    0.11
   0   2 -11    5.05    0.13
   0   2 -11    5.45    0.21
   0   2 -11    4.82    0.15
   0   2 -11    4.97    0.16
   0  -2  11    5.12    0.14
  -1   2 -11    0.82    0.07
  -1   2 -11    0.78    0.04
  -1   2 -11    0.72    0.05
  -1   2 -11    0.72    0.04
   1  -2  11    0.77    0.04
  -2   2 -11    1.54    0.07
  -2   2 -11    1.50    0.06
  -2   2 -11    1.64    0.10
   2  -2  11    1.41    0.05
  -3   2 -11    1.14    0.05
  -3   2 -11    1.14    0.08
  -3   2 -11    1.14    0.06
  -4   2 -11    0.87    0.05
  -4   2 -11    0.80    0.08
  -4   2 -11    0.89    0.04
  -4   2 -11    0.98    0.08
  -5   2 -11    0.95    0.05
  -5   2 -11    0.99    0.08
  -5   2 -11    1.05    0.08
  -5   2 -11    0.93    0.05
  -6   2 -11    0.41    0.04
  -6   2 -11    0.46    0.06
  -6   2 -11    0.40    0.05
   6   1 -11    0.91    0.09
  -6  -1  11    0.87    0.05
   5   1 -11    1.71    0.11
  -5  -1  11    1.60    0.07
   4   1 -11    0.09    0.04
  -4  -1  11    0.06    0.02
   3   1 -11    0.53    0.04
   3   1 -11    0.55    0.06
   3   1 -11    0.45    0.04
   3   1 -11    0.46    0.06
  -3  -1  11    0.42    0.04
  -3  -1  11    0.52    0.04
   2   1 -11    5.50    0.22
   2   1 -11    5.35    0.16
   2   1 -11    5.36    0.21
  -2  -1  11    5.46    0.16
  -2  -1  11    5.47    0.16
   1   1 -11    2.02    0.08
   1   1 -11    1.98    0.11
  -1  -1  11    1.97    0.07
   0   1 -11    0.73    0.07
   0   1 -11    0.72    0.04
   0   1 -11    0.71    0.04
   0   1 -11    0.72    0.05
   0  -1  11    0.69    0.04
  -1   1 -11    4.51    0.15
  -1   1 -11    4.70    0.12
  -1   1 -11    4.84    0.14
  -1   1 -11    4.38    0.19
   1  -1  11    4.78    0.13
  -2   1 -11    8.04    0.23
  -2   1 -11    7.97    0.19
  -2   1 -11    7.81    0.29
  -2   1 -11    7.65    0.23
  -3   1 -11    2.42    0.09
  -3   1 -11    2.49    0.12
  -3   1 -11    2.47    0.08
  -3   1 -11    2.46    0.12
  -4   1 -11    0.61    0.04
  -4   1 -11    0.43    0.05
  -4   1 -11    0.60    0.04
  -5   1 -11    3.23    0.15
  -5   1 -11    3.11    0.11
  -6   1 -11    0.90    0.05
  -6   1 -11    0.90    0.08
   6   0 -11    0.88    0.09
   5   0 -11    1.07    0.09
  -5   0  11    1.05    0.06
   4   0 -11    0.31    0.05
  -4   0  11    0.40    0.04
   3   0 -11    1.67    0.07
   3   0 -11    1.55    0.10
  -3   0  11    1.65    0.07
  -3   0  11    1.62    0.07
   2   0 -11    5.28    0.21
   2   0 -11    5.28    0.16
   2   0 -11    5.48    0.21
  -2   0  11    5.28    0.15
  -2   0  11    5.24    0.15
   1   0 -11    0.62    0.06
   1   0 -11    0.66    0.07
   1   0 -11    0.64    0.05
  -1   0  11    0.53    0.04
   0   0 -11    2.08    0.08
   0   0 -11    2.09    0.08
   0   0 -11    2.16    0.11
   0   0  11    2.11    0.07
  -1   0 -11    1.52    0.07
  -1   0 -11    1.48    0.06
  -1   0 -11    1.55    0.06
   1   0  11    1.55    0.06
  -2   0 -11    1.70    0.06
  -2   0 -11    1.74    0.08
   2   0  11    1.77    0.06
  -3   0 -11    0.24    0.03
  -3   0 -11    0.23    0.02
  -3   0 -11    0.22    0.04
  -4   0 -11    2.68    0.10
  -4   0 -11    2.77    0.08
  -4   0 -11    2.67    0.13
  -5   0 -11    4.42    0.14
  -5   0 -11    4.75    0.19
  -6   0 -11    2.46    0.09
  -6   0 -11    2.57    0.13
  -7   0 -11    1.16    0.06
  -7   0 -11    1.20    0.09
   5  -1 -11    0.64    0.08
  -5   1  11    0.58    0.04
   4  -1 -11    1.43    0.10
  -4   1  11    1.42    0.06
   3  -1 -11    0.98    0.05
   3  -1 -11    1.06    0.08
  -3   1  11    1.02    0.05
  -3   1  11    1.07    0.06
   2  -1 -11    3.98    0.12
   2  -1 -11    4.00    0.13
   2  -1 -11    3.81    0.17
  -2   1  11    3.74    0.12
  -2   1  11    4.08    0.12
   1  -1 -11    0.18    0.04
   1  -1 -11    0.22    0.03
  -1   1  11    0.19    0.03
   0  -1 -11    8.35    0.23
   0  -1 -11    8.38    0.24
   0  -1 -11    8.66    0.30
   0   1  11    8.72    0.23
  -1  -1 -11    2.12    0.09
  -1  -1 -11    2.17    0.08
  -1  -1 -11    2.26    0.07
   1   1  11    2.26    0.08
  -2  -1 -11    0.74    0.05
  -2  -1 -11    0.79    0.04
   2   1  11    0.71    0.03
  -3  -1 -11    1.92    0.08
  -3  -1 -11    1.72    0.06
  -3  -1 -11    1.88    0.08
  -3  -1 -11    1.83    0.10
  -4  -1 -11    2.29    0.09
  -4  -1 -11    2.43    0.08
  -4  -1 -11    2.49    0.12
  -5  -1 -11    4.77    0.15
  -5  -1 -11    4.99    0.19
  -6  -1 -11    0.64    0.04
  -6  -1 -11    0.73    0.07
  -7  -1 -11    0.00    0.02
  -7  -1 -11    0.01    0.02
   5  -2 -11    0.07    0.04
  -5   2  11    0.06    0.03
   4  -2 -11    1.30    0.10
  -4   2  11    1.20    0.06
   3  -2 -11    1.50    0.10
   3  -2 -11    1.54    0.06
  -3   2  11    1.53    0.07
  -3   2  11    1.63    0.07
   2  -2 -11    2.40    0.13
   2  -2 -11    2.34    0.09
  -2   2  11    2.32    0.09
   1  -2 -11    3.93    0.13
   1  -2 -11    3.99    0.17
  -1   2  11    3.95    0.12
   0  -2 -11    2.60    0.13
   0  -2 -11    2.42    0.09
   0   2  11    2.49    0.09
  -1  -2 -11    5.00    0.15
  -1  -2 -11    4.96    0.16
  -1  -2 -11    5.00    0.20
   1   2  11    5.19    0.14
  -2  -2 -11    1.74    0.07
  -2  -2 -11    1.83    0.08
  -2  -2 -11    1.65    0.06
   2   2  11    1.74    0.06
  -3  -2 -11    5.39    0.14
  -3  -2 -11    5.42    0.20
  -3  -2 -11    5.09    0.16
  -4  -2 -11   -0.01    0.02
  -4  -2 -11    0.02    0.02
  -4  -2 -11    0.00    0.01
  -4  -2 -11    0.00    0.02
  -5  -2 -11    2.86    0.10
  -5  -2 -11    2.97    0.14
  -6  -2 -11    1.71    0.07
  -6  -2 -11    1.75    0.10
  -7  -2 -11    0.92    0.07
  -7  -2 -11    0.93    0.05
  -8  -2 -11    1.55    0.10
   4  -3 -11    0.44    0.07
  -4   3  11    0.58    0.05
   3  -3 -11    0.04    0.04
   3  -3 -11    0.04    0.02
  -3   3  11    0.02    0.02
  -3   3  11    0.02    0.03
   2  -3 -11    0.47    0.06
   2  -3 -11    0.37    0.04
  -2   3  11    0.32    0.04
   1  -3 -11    3.50    0.12
   1  -3 -11    3.48    0.12
   1  -3 -11    3.50    0.16
  -1   3  11    3.46    0.11
   0  -3 -11    0.19    0.04
   0  -3 -11    0.20    0.03
   0   3  11    0.18    0.03
  -1  -3 -11    3.05    0.11
  -1  -3 -11    3.04    0.14
  -1  -3 -11    3.06    0.11
   1   3  11    3.19    0.10
  -2  -3 -11    2.85    0.10
  -2  -3 -11    3.07    0.11
   2   3  11    2.95    0.09
  -3  -3 -11    2.89    0.11
  -3  -3 -11    3.02    0.14
  -3  -3 -11    2.78    0.09
  -4  -3 -11    1.27    0.05
  -4  -3 -11    1.38    0.09
  -4  -3 -11    1.31    0.07
  -5  -3 -11    3.06    0.14
  -5  -3 -11    2.97    0.11
  -5  -3 -11    3.12    0.11
  -6  -3 -11    0.14    0.02
  -6  -3 -11    0.18    0.04
  -7  -3 -11    1.32    0.06
  -7  -3 -11    1.39    0.09
  -8  -3 -11    0.82    0.07
   3  -4 -11    1.23    0.05
   3  -4 -11    1.05    0.09
  -3   4  11    1.20    0.06
   2  -4 -11    1.91    0.08
   2  -4 -11    1.84    0.12
  -2   4  11    1.89    0.08
   1  -4 -11    0.78    0.05
   1  -4 -11    0.82    0.08
  -1   4  11    0.65    0.05
   0  -4 -11    0.48    0.04
   0  -4 -11    0.48    0.04
   0  -4 -11    0.51    0.06
   0   4  11    0.49    0.04
  -1  -4 -11    1.40    0.09
  -1  -4 -11    1.35    0.07
  -1  -4 -11    1.29    0.07
   1   4  11    1.35    0.06
  -2  -4 -11    1.09    0.06
  -2  -4 -11    1.06    0.06
  -2  -4 -11    1.07    0.08
   2   4  11    1.00    0.05
  -3  -4 -11    0.70    0.05
  -3  -4 -11    0.75    0.04
  -4  -4 -11    2.05    0.09
  -4  -4 -11    1.98    0.07
  -4  -4 -11    2.10    0.11
  -5  -4 -11    2.40    0.09
  -5  -4 -11    2.51    0.13
  -6  -4 -11    1.59    0.07
  -6  -4 -11    1.65    0.07
  -6  -4 -11    1.71    0.10
  -7  -4 -11    2.91    0.10
  -7  -4 -11    2.94    0.14
  -8  -4 -11    0.33    0.05
   2  -5 -11    0.56    0.05
   2  -5 -11    0.42    0.06
  -2   5  11    0.50    0.05
   1  -5 -11    1.63    0.07
   1  -5 -11    1.54    0.11
  -1   5  11    1.54    0.07
   0  -5 -11    1.64    0.08
   0  -5 -11    1.62    0.11
   0   5  11    1.52    0.07
  -1  -5 -11    2.11    0.09
  -1  -5 -11    2.06    0.09
  -1  -5 -11    2.21    0.12
   1   5  11    2.23    0.08
  -2  -5 -11    2.33    0.12
  -2  -5 -11    2.35    0.09
  -2  -5 -11    2.51    0.10
   2   5  11    2.36    0.08
  -3  -5 -11    3.04    0.11
  -3  -5 -11    3.01    0.14
  -4  -5 -11    2.37    0.09
  -4  -5 -11    2.41    0.13
  -4  -5 -11    2.26    0.08
  -5  -5 -11    2.12    0.12
  -5  -5 -11    2.19    0.09
  -5  -5 -11    2.14    0.07
  -6  -5 -11    1.31    0.07
  -6  -5 -11    1.54    0.10
  -7  -5 -11    1.54    0.07
  -7  -5 -11    1.73    0.08
  -7  -5 -11    1.84    0.11
  -8  -5 -11    0.90    0.08
   1  -6 -11    1.10    0.06
   1  -6 -11    0.92    0.09
  -1   6  11    1.09    0.06
   0  -6 -11    0.89    0.06
   0  -6 -11    0.83    0.09
   0   6  11    0.93    0.05
  -1  -6 -11    1.27    0.07
  -1  -6 -11    1.27    0.09
   1   6  11    1.24    0.06
  -2  -6 -11    0.43    0.04
  -2  -6 -11    0.48    0.06
  -2  -6 -11    0.43    0.04
   2   6  11    0.36    0.03
  -3  -6 -11    1.42    0.10
  -3  -6 -11    1.34    0.07
  -4  -6 -11    2.34    0.12
  -4  -6 -11    2.24    0.09
  -5  -6 -11    0.58    0.07
  -5  -6 -11    0.57    0.04
  -5  -6 -11    0.57    0.05
  -6  -6 -11    0.49    0.05
  -6  -6 -11    0.45    0.06
  -7  -6 -11    2.30    0.09
  -7  -6 -11    2.21    0.12
  -8  -6 -11    1.27    0.09
   0  -7 -11    0.64    0.08
   0  -7 -11    0.55    0.05
   0   7  11    0.58    0.05
  -1  -7 -11    0.65    0.05
  -1  -7 -11    0.58    0.07
   1   7  11    0.63    0.05
  -2  -7 -11    1.80    0.08
  -2  -7 -11    1.69    0.11
  -2  -7 -11    1.60    0.08
  -2  -7 -11    1.74    0.08
   2   7  11    1.83    0.06
  -3  -7 -11    1.97    0.09
  -3  -7 -11    1.94    0.12
  -4  -7 -11    0.89    0.08
  -4  -7 -11    0.84    0.06
  -5  -7 -11    0.00    0.04
  -5  -7 -11    0.02    0.03
  -5  -7 -11    0.08    0.04
  -6  -7 -11    2.88    0.11
  -6  -7 -11    3.16    0.15
  -7  -7 -11    0.64    0.05
  -7  -7 -11    0.62    0.07
  -2  -8 -11    0.71    0.08
  -2  -8 -11    0.80    0.06
  -3  -8 -11    0.90    0.06
  -3  -8 -11    0.75    0.08
  -4  -8 -11    1.02    0.07
  -4  -8 -11    1.04    0.09
  -5  -8 -11    1.07    0.07
  -6  -8 -11    3.03    0.12
  -6  -8 -11    3.55    0.17
   4   6 -12    0.49    0.08
  -4  -6  12    0.48    0.04
  -4  -6  12    0.41    0.04
   3   6 -12    2.61    0.15
   3   6 -12    2.47    0.09
  -3  -6  12    2.42    0.09
   2   6 -12    2.18    0.13
   2   6 -12    1.96    0.08
  -2  -6  12    1.94    0.08
   1   6 -12    0.31    0.03
   1   6 -12    0.33    0.06
  -1  -6  12    0.24    0.03
   0   6 -12    0.69    0.05
   0   6 -12    0.75    0.05
   0   6 -12    0.61    0.08
   0  -6  12    0.63    0.04
  -1   6 -12    2.23    0.13
   5   5 -12    0.29    0.06
  -5  -5  12    0.39    0.04
   4   5 -12    2.40    0.14
  -4  -5  12    2.18    0.09
  -4  -5  12    2.32    0.09
   3   5 -12    0.25    0.06
   3   5 -12    0.20    0.03
  -3  -5  12    0.18    0.03
   2   5 -12    1.96    0.12
   2   5 -12    1.75    0.07
   1   5 -12    0.56    0.07
   1   5 -12    0.63    0.05
  -1  -5  12    0.65    0.04
   0   5 -12    3.75    0.11
   0   5 -12    3.27    0.12
   0   5 -12    3.48    0.17
   0  -5  12    3.48    0.11
  -1   5 -12    3.02    0.16
  -1   5 -12    2.74    0.10
  -1   5 -12    2.97    0.09
   1  -5  12    2.82    0.09
  -2   5 -12    0.79    0.05
  -2   5 -12    0.86    0.09
  -2   5 -12    0.87    0.06
  -2   5 -12    0.91    0.06
   5   4 -12    0.31    0.06
   5   4 -12    0.28    0.06
  -5  -4  12    0.24    0.03
   4   4 -12    0.51    0.07
  -4  -4  12    0.36    0.04
  -4  -4  12    0.44    0.04
   3   4 -12    0.48    0.07
   3   4 -12    0.46    0.04
  -3  -4  12    0.38    0.04
   2   4 -12    1.55    0.11
   2   4 -12    1.50    0.07
  -2  -4  12    1.58    0.07
   1   4 -12    1.45    0.10
   1   4 -12    1.43    0.07
  -1  -4  12    1.46    0.06
   0   4 -12    3.78    0.17
   0   4 -12    3.59    0.12
   0   4 -12    3.55    0.11
   0  -4  12    3.66    0.11
  -1   4 -12    1.16    0.07
  -1   4 -12    1.14    0.05
  -1   4 -12    1.06    0.06
  -1   4 -12    1.03    0.09
   1  -4  12    1.13    0.05
  -2   4 -12    3.51    0.16
  -2   4 -12    3.27    0.11
  -2   4 -12    3.23    0.10
  -2   4 -12    3.20    0.12
  -3   4 -12    1.89    0.12
  -3   4 -12    1.80    0.08
  -3   4 -12    1.83    0.07
   5   3 -12    0.61    0.07
   5   3 -12    0.67    0.08
  -5  -3  12    0.61    0.05
   4   3 -12    0.44    0.06
   4   3 -12    0.46    0.07
  -4  -3  12    0.42    0.04
  -4  -3  12    0.33    0.04
   3   3 -12    3.97    0.19
   3   3 -12    3.98    0.12
  -3  -3  12    3.93    0.13
  -3  -3  12    3.91    0.12
   2   3 -12    0.73    0.07
   2   3 -12    0.71    0.05
  -2  -3  12    0.66    0.05
   1   3 -12    0.40    0.04
   1   3 -12    0.48    0.06
  -1  -3  12    0.32    0.03
   0   3 -12    1.96    0.07
   0   3 -12    2.00    0.11
   0   3 -12    1.77    0.08
   0  -3  12    1.91    0.07
  -1   3 -12    0.55    0.07
  -1   3 -12    0.52    0.04
  -1   3 -12    0.56    0.04
  -1   3 -12    0.53    0.05
   1  -3  12    0.51    0.03
  -2   3 -12    1.99    0.09
  -2   3 -12    1.90    0.09
  -2   3 -12    2.12    0.12
  -2   3 -12    2.06    0.07
  -3   3 -12    0.59    0.04
  -3   3 -12    0.70    0.08
  -3   3 -12    0.63    0.05
  -4   3 -12    1.23    0.09
  -4   3 -12    1.10    0.06
  -4   3 -12    1.28    0.06
   5   2 -12    0.52    0.07
  -5  -2  12    0.49    0.04
   4   2 -12    1.23    0.10
   4   2 -12    1.07    0.09
  -4  -2  12    1.12    0.06
  -4  -2  12    1.10    0.06
   3   2 -12    1.24    0.09
   3   2 -12    1.17    0.06
  -3  -2  12    1.11    0.05
  -3  -2  12    1.19    0.06
   2   2 -12    1.04    0.05
   2   2 -12    1.03    0.09
  -2  -2  12    1.04    0.06
   1   2 -12    4.34    0.14
   1   2 -12    4.59    0.19
  -1  -2  12    4.22    0.13
   0   2 -12    3.46    0.12
   0   2 -12    3.54    0.10
   0   2 -12    3.65    0.16
   0  -2  12    3.51    0.11
  -1   2 -12    1.32    0.06
  -1   2 -12    1.38    0.09
  -1   2 -12    1.41    0.06
  -1   2 -12    1.39    0.07
   1  -2  12    1.33    0.05
  -2   2 -12    1.83    0.11
  -2   2 -12    1.73    0.07
  -2   2 -12    1.76    0.08
  -2   2 -12    1.77    0.08
  -3   2 -12    1.98    0.11
  -3   2 -12    1.84    0.07
  -3   2 -12    1.68    0.08
  -4   2 -12    1.11    0.05
  -4   2 -12    0.97    0.06
  -4   2 -12    1.13    0.09
  -5   2 -12    2.92    0.11
  -5   2 -12    3.15    0.10
  -5   2 -12    3.04    0.15
   5   1 -12    0.30    0.06
  -5  -1  12    0.25    0.03
   4   1 -12    0.17    0.04
  -4  -1  12    0.12    0.03
  -4  -1  12    0.12    0.03
   3   1 -12    0.46    0.04
   3   1 -12    0.54    0.04
   3   1 -12    0.53    0.07
   3   1 -12    0.44    0.06
  -3  -1  12    0.49    0.04
   2   1 -12    1.10    0.09
   2   1 -12    0.97    0.05
  -2  -1  12    0.90    0.05
   1   1 -12    0.34    0.04
   1   1 -12    0.52    0.06
  -1  -1  12    0.36    0.04
   0   1 -12    0.64    0.04
   0   1 -12    0.64    0.04
   0   1 -12    0.65    0.07
   0  -1  12    0.61    0.04
  -1   1 -12    3.52    0.16
  -1   1 -12    3.62    0.11
  -1   1 -12    3.47    0.12
  -1   1 -12    3.48    0.12
   1  -1  12    3.64    0.11
  -2   1 -12    7.21    0.18
  -2   1 -12    7.46    0.22
  -3   1 -12    1.44    0.07
  -3   1 -12    1.52    0.07
  -3   1 -12    1.51    0.06
  -4   1 -12    3.42    0.10
  -4   1 -12    3.47    0.16
  -4   1 -12    3.36    0.12
  -5   1 -12    4.76    0.20
  -5   1 -12    4.96    0.13
  -5   1 -12    4.40    0.15
   5   0 -12    0.68    0.08
  -5   0  12    0.56    0.04
   4   0 -12    0.47    0.07
  -4   0  12    0.49    0.04
  -4   0  12    0.36    0.04
   3   0 -12    0.49    0.04
   3   0 -12    0.54    0.06
  -3   0  12    0.51    0.04
  -3   0  12    0.52    0.04
   2   0 -12    0.46    0.04
   2   0 -12    0.47    0.06
   2   0 -12    0.42    0.06
  -2   0  12    0.42    0.04
   1   0 -12    2.52    0.09
  -1   0  12    2.51    0.09
   0   0 -12    1.58    0.07
   0   0  12    1.65    0.07
  -1   0 -12    0.24    0.02
  -1   0 -12    0.36    0.04
  -1   0 -12    0.34    0.03
   1   0  12    0.35    0.03
  -2   0 -12    3.10    0.10
  -2   0 -12    2.98    0.11
  -3   0 -12    1.91    0.08
  -3   0 -12    1.95    0.08
  -3   0 -12    2.08    0.07
  -4   0 -12    1.54    0.10
  -4   0 -12    1.67    0.08
  -4   0 -12    1.54    0.06
  -5   0 -12    1.44    0.07
  -5   0 -12    1.39    0.10
  -5   0 -12    1.45    0.06
  -6   0 -12    0.90    0.05
  -6   0 -12    1.01    0.08
   4  -1 -12    0.37    0.06
  -4   1  12    0.23    0.03
  -4   1  12    0.34    0.04
   3  -1 -12    0.38    0.06
   3  -1 -12    0.38    0.04
  -3   1  12    0.34    0.03
  -3   1  12    0.47    0.04
   2  -1 -12    2.33    0.09
   2  -1 -12    2.39    0.13
   2  -1 -12    2.34    0.09
  -2   1  12    2.26    0.09
   1  -1 -12    4.20    0.18
   1  -1 -12    4.06    0.13
  -1   1  12    4.20    0.13
   0  -1 -12    0.05    0.02
   0   1  12    0.02    0.02
  -1  -1 -12    0.45    0.04
  -1  -1 -12    0.50    0.04
  -1  -1 -12    0.43    0.04
   1   1  12    0.44    0.04
  -2  -1 -12    4.87    0.16
  -2  -1 -12    4.90    0.13
  -2  -1 -12    4.71    0.15
   2   1  12    4.80    0.13
  -3  -1 -12    0.93    0.06
  -3  -1 -12    1.02    0.05
  -4  -1 -12    0.77    0.05
  -4  -1 -12    0.78    0.08
  -4  -1 -12    0.81    0.05
  -4  -1 -12    0.75    0.04
  -5  -1 -12    2.96    0.09
  -5  -1 -12    2.67    0.10
  -5  -1 -12    2.98    0.14
  -6  -1 -12    1.49    0.07
  -6  -1 -12    1.52    0.10
   4  -2 -12    0.05    0.04
  -4   2  12    0.01    0.03
  -4   2  12   -0.02    0.02
   3  -2 -12    0.87    0.05
   3  -2 -12    0.85    0.08
  -3   2  12    0.80    0.05
   2  -2 -12    3.38    0.11
   2  -2 -12    3.31    0.16
  -2   2  12    3.26    0.11
   1  -2 -12    0.03    0.03
   1  -2 -12    0.02    0.02
  -1   2  12   -0.01    0.02
   0  -2 -12    2.14    0.09
   0  -2 -12    2.31    0.12
   0   2  12    2.29    0.08
  -1  -2 -12    2.09    0.09
  -1  -2 -12    2.22    0.09
   1   2  12    2.26    0.08
  -2  -2 -12    5.15    0.16
  -2  -2 -12    5.05    0.16
  -3  -2 -12    0.04    0.02
  -3  -2 -12    0.00    0.01
  -4  -2 -12    1.47    0.06
  -4  -2 -12    1.32    0.07
  -4  -2 -12    1.38    0.09
  -5  -2 -12    2.36    0.10
  -5  -2 -12    2.66    0.13
  -5  -2 -12    2.59    0.10
  -5  -2 -12    2.52    0.08
  -6  -2 -12    3.14    0.11
  -6  -2 -12    3.40    0.15
  -7  -2 -12    1.57    0.07
  -7  -2 -12    1.48    0.10
   3  -3 -12    0.06    0.04
   3  -3 -12    0.08    0.02
  -3   3  12    0.08    0.03
   2  -3 -12    0.47    0.04
   2  -3 -12    0.44    0.06
  -2   3  12    0.38    0.04
   1  -3 -12    0.09    0.04
   1  -3 -12    0.08    0.03
   1  -3 -12    0.11    0.03
  -1   3  12    0.09    0.03
   0  -3 -12    3.51    0.12
   0  -3 -12    3.82    0.17
   0   3  12    3.69    0.12
  -1  -3 -12    0.10    0.03
  -1  -3 -12    0.09    0.04
  -1  -3 -12    0.08    0.02
   1   3  12    0.15    0.02
  -2  -3 -12    1.30    0.07
  -2  -3 -12    1.32    0.07
   2   3  12    1.33    0.05
  -3  -3 -12    2.62    0.09
  -3  -3 -12    2.62    0.10
  -4  -3 -12    2.59    0.09
  -4  -3 -12    2.73    0.11
  -4  -3 -12    2.93    0.14
  -5  -3 -12    2.60    0.13
  -5  -3 -12    2.62    0.09
  -5  -3 -12    2.64    0.10
  -6  -3 -12    1.20    0.07
  -6  -3 -12    1.30    0.07
  -6  -3 -12    1.35    0.09
  -7  -3 -12    0.07    0.02
  -7  -3 -12    0.03    0.03
   2  -4 -12    0.91    0.05
   2  -4 -12    0.94    0.09
  -2   4  12    1.02    0.06
   1  -4 -12    1.08    0.06
   1  -4 -12    1.05    0.09
  -1   4  12    0.99    0.06
   0  -4 -12    1.12    0.06
   0  -4 -12    1.10    0.09
   0  -4 -12    1.21    0.07
   0   4  12    1.12    0.06
  -1  -4 -12    1.03    0.06
  -1  -4 -12    0.97    0.08
   1   4  12    0.94    0.05
  -2  -4 -12    1.07    0.06
  -2  -4 -12    1.02    0.06
   2   4  12    1.11    0.05
  -3  -4 -12    2.06    0.09
  -4  -4 -12    0.08    0.03
  -4  -4 -12    0.07    0.03
  -4  -4 -12    0.05    0.02
  -5  -4 -12    2.34    0.08
  -5  -4 -12    2.20    0.13
  -5  -4 -12    2.14    0.09
  -6  -4 -12    1.92    0.09
  -6  -4 -12    2.02    0.11
  -7  -4 -12    0.26    0.03
  -7  -4 -12    0.30    0.05
  -7  -4 -12    0.23    0.03
   1  -5 -12    0.88    0.06
   1  -5 -12    0.85    0.09
  -1   5  12    0.85    0.06
   0  -5 -12    0.20    0.04
   0  -5 -12    0.20    0.05
   0   5  12    0.28    0.03
  -1  -5 -12    0.83    0.06
  -1  -5 -12    0.80    0.08
  -1  -5 -12    0.85    0.06
   1   5  12    0.83    0.05
  -2  -5 -12    1.39    0.07
  -2  -5 -12    1.52    0.10
  -2  -5 -12    1.35    0.07
   2   5  12    1.37    0.05
  -3  -5 -12    1.20    0.07
  -4  -5 -12    0.37    0.04
  -5  -5 -12    2.20    0.08
  -5  -5 -12    2.16    0.09
  -5  -5 -12    2.38    0.13
  -6  -5 -12    1.79    0.11
  -6  -5 -12    1.71    0.08
  -7  -5 -12    1.51    0.10
  -7  -5 -12    1.44    0.07
   0  -6 -12    0.51    0.07
   0  -6 -12    0.64    0.05
   0   6  12    0.59    0.05
  -1  -6 -12    0.52    0.05
  -1  -6 -12    0.57    0.07
   1   6  12    0.49    0.04
  -2  -6 -12    0.46    0.05
  -2  -6 -12    0.52    0.05
  -2  -6 -12    0.42    0.04
  -2  -6 -12    0.50    0.07
  -3  -6 -12    0.37    0.04
  -3  -6 -12    0.38    0.06
  -4  -6 -12    0.61    0.05
  -5  -6 -12    0.55    0.07
  -5  -6 -12    0.58    0.05
  -6  -6 -12    0.36    0.04
  -6  -6 -12    0.38    0.06
  -2  -7 -12    0.97    0.07
  -2  -7 -12    0.96    0.09
  -3  -7 -12    1.04    0.07
  -4  -7 -12    0.91    0.06
  -4  -7 -12    0.86    0.08
  -5  -7 -12    1.47    0.08
   2   5 -13    1.72    0.12
   2   5 -13    1.64    0.07
   1   5 -13    1.21    0.10
   1   5 -13    1.17    0.06
   0   5 -13    0.89    0.09
   0  -5  13    0.87    0.05
   3   4 -13    1.37    0.11
   3   4 -13    1.26    0.06
  -3  -4  13    1.19    0.06
   2   4 -13    0.80    0.09
   2   4 -13    0.66    0.05
  -2  -4  13    0.68    0.05
   1   4 -13    0.41    0.06
   1   4 -13    0.32    0.03
  -1  -4  13    0.26    0.03
   0   4 -13    0.59    0.05
   0   4 -13    0.49    0.04
   0   4 -13    0.51    0.07
   0  -4  13    0.53    0.04
  -1   4 -13    3.27    0.16
  -1   4 -13    2.85    0.10
  -1   4 -13    2.84    0.11
   1  -4  13    2.93    0.09
  -2   4 -13    1.32    0.10
  -4  -3  13    1.41    0.07
   3   3 -13    0.56    0.07
   3   3 -13    0.50    0.04
  -3  -3  13    0.55    0.05
   2   3 -13    3.34    0.11
   2   3 -13    3.34    0.17
  -2  -3  13    3.12    0.11
   1   3 -13    0.45    0.06
   1   3 -13    0.38    0.04
  -1  -3  13    0.41    0.04
   0   3 -13    0.49    0.04
   0   3 -13    0.47    0.07
   0   3 -13    0.46    0.04
   0  -3  13    0.34    0.03
  -1   3 -13    2.65    0.14
  -1   3 -13    2.59    0.10
  -1   3 -13    2.68    0.09
   1  -3  13    2.64    0.08
  -2   3 -13    0.61    0.05
  -2   3 -13    0.61    0.05
  -2   3 -13    0.56    0.04
  -2   3 -13    0.74    0.08
  -3   3 -13    0.11    0.02
  -3   3 -13    0.12    0.03
  -3   3 -13    0.16    0.05
   4   2 -13    0.31    0.06
   4   2 -13    0.36    0.06
  -4  -2  13    0.27    0.03
  -4  -2  13    0.30    0.04
   3   2 -13    0.65    0.04
   3   2 -13    0.62    0.08
  -3  -2  13    0.58    0.05
   2   2 -13    2.28    0.13
   2   2 -13    2.04    0.08
  -2  -2  13    1.91    0.08
   1   2 -13    2.07    0.12
   1   2 -13    2.10    0.08
  -1  -2  13    2.10    0.08
   0   2 -13    3.85    0.13
   0   2 -13    3.90    0.11
   0   2 -13    4.23    0.19
   0  -2  13    3.96    0.12
  -1   2 -13    2.72    0.10
  -1   2 -13    2.76    0.14
  -1   2 -13    2.70    0.09
   1  -2  13    2.63    0.09
  -2   2 -13    2.83    0.14
  -2   2 -13    2.74    0.10
  -2   2 -13    2.91    0.11
  -2   2 -13    2.63    0.09
  -3   2 -13    1.17    0.06
  -3   2 -13    1.01    0.06
  -3   2 -13    0.97    0.06
  -4   2 -13    3.69    0.14
  -4   2 -13    4.07    0.12
  -4  -1  13    0.20    0.03
   3   1 -13    1.34    0.06
   3   1 -13    1.13    0.10
   3   1 -13    1.38    0.06
  -3  -1  13    1.23    0.06
   2   1 -13    0.58    0.07
   2   1 -13    0.60    0.04
  -2  -1  13    0.55    0.04
   1   1 -13    0.96    0.06
   1   1 -13    0.88    0.08
  -1  -1  13    0.84    0.05
   0   1 -13    1.56    0.07
   0  -1  13    1.55    0.07
  -1   1 -13    1.33    0.07
  -1   1 -13    1.19    0.06
  -1   1 -13    1.30    0.07
   1  -1  13    1.32    0.06
  -2   1 -13    2.37    0.08
  -2   1 -13    2.56    0.10
  -2   1 -13    2.59    0.10
  -3   1 -13    0.85    0.05
  -3   1 -13    0.95    0.06
  -4   1 -13    1.93    0.09
  -4   1 -13    2.19    0.08
   3   0 -13    0.97    0.05
   3   0 -13    0.93    0.08
  -3   0  13    0.87    0.06
   2   0 -13    0.42    0.04
  -2   0  13    0.48    0.04
   1   0 -13    1.16    0.06
  -1   0  13    1.04    0.06
   0   0 -13    0.81    0.05
   0   0  13    0.84    0.05
  -1   0 -13    1.25    0.07
  -1   0 -13    1.28    0.07
  -1   0 -13    1.25    0.06
   1   0  13    1.31    0.06
  -2   0 -13    1.85    0.07
  -2   0 -13    1.89    0.08
  -2   0 -13    1.85    0.09
  -3   0 -13    1.58    0.07
  -3   0 -13    1.52    0.08
  -4   0 -13    1.44    0.08
  -4   0 -13    1.36    0.07
  -4   0 -13    1.33    0.06
  -5   0 -13    1.99    0.08
  -5   0 -13    2.03    0.12
  -5   0 -13    1.84    0.09
   3  -1 -13    0.74    0.08
   3  -1 -13    0.80    0.05
  -3   1  13    0.79    0.05
   2  -1 -13    0.62    0.05
   2  -1 -13    0.62    0.07
   2  -1 -13    0.54    0.05
  -2   1  13    0.64    0.05
   1  -1 -13    1.44    0.07
  -1   1  13    1.56    0.07
   0  -1 -13    1.55    0.07
   0   1  13    1.56    0.07
  -1  -1 -13    1.43    0.07
  -1  -1 -13    1.45    0.07
   1   1  13    1.43    0.06
  -2  -1 -13    1.95    0.08
  -2  -1 -13    1.85    0.07
  -2  -1 -13    1.94    0.09
  -3  -1 -13    0.93    0.06
  -3  -1 -13    1.01    0.05
  -4  -1 -13    3.92    0.12
  -4  -1 -13    3.89    0.14
  -5  -1 -13    3.02    0.12
  -5  -1 -13    2.93    0.12
  -5  -1 -13    3.14    0.10
  -5  -1 -13    3.08    0.15
   2  -2 -13    0.07    0.03
   2  -2 -13    0.15    0.05
  -2   2  13    0.06    0.03
   1  -2 -13    2.63    0.10
   1  -2 -13    2.76    0.14
  -1   2  13    2.50    0.09
   0  -2 -13    0.88    0.06
   0   2  13    1.02    0.05
  -1  -2 -13    1.30    0.07
   1   2  13    1.28    0.06
  -2  -2 -13    3.35    0.12
  -2  -2 -13    3.54    0.13
  -3  -2 -13    2.29    0.10
  -3  -2 -13    2.27    0.08
  -4  -2 -13    0.90    0.06
  -4  -2 -13    0.85    0.05
  -5  -2 -13    0.78    0.08
  -5  -2 -13    0.63    0.05
  -5  -2 -13    0.67    0.06
   1  -3 -13    2.23    0.09
   1  -3 -13    2.32    0.13
   1  -3 -13    2.18    0.09
   0  -3 -13    0.02    0.02
   0  -3 -13   -0.06    0.03
   0   3  13    0.02    0.02
  -1  -3 -13    0.33    0.04
   1   3  13    0.33    0.03
  -2  -3 -13    2.60    0.10
  -2  -3 -13    2.75    0.11
  -3  -3 -13    0.87    0.05
  -3  -3 -13    0.81    0.06
  -4  -3 -13    0.85    0.06
  -4  -3 -13    0.90    0.05
  -5  -3 -13    1.37    0.10
  -5  -3 -13    1.29    0.06
  -5  -3 -13    1.25    0.07
  -6  -3 -13    1.17    0.10
   0  -4 -13    0.80    0.06
   0  -4 -13    0.83    0.06
   0  -4 -13    0.86    0.09
  -1  -4 -13    0.74    0.06
  -1  -4 -13    0.83    0.08
   1   4  13    0.80    0.05
  -2  -4 -13    2.23    0.10
  -2  -4 -13    2.36    0.10
  -3  -4 -13    0.14    0.03
  -4  -4 -13    2.40    0.09
  -4  -4 -13    2.30    0.10
  -5  -4 -13    1.35    0.11
  -5  -4 -13    1.30    0.06
  -5  -4 -13    1.30    0.07
  -1  -5 -13    0.01    0.04
  -1  -5 -13    0.04    0.03
  -1  -5 -13    0.02    0.03
   1   5  13    0.05    0.02
  -2  -5 -13    0.88    0.06
  -2  -5 -13    1.01    0.06
  -3  -5 -13    0.79    0.06
  -4  -5 -13    0.96    0.07
  -5  -5 -13    1.08    0.10
  -5  -5 -13    1.03    0.07
   1   2 -14    0.94    0.09
   1   2 -14    0.81    0.06
  -1  -2  14    0.80    0.05
   0   2 -14    0.49    0.04
   0  -2  14    0.44    0.04
  -1   2 -14    2.54    0.10
  -1   2 -14    2.50    0.09
   1   1 -14    0.50    0.05
  -1  -1  14    0.47    0.04
   0   1 -14    0.11    0.03
   0  -1  14    0.10    0.03
  -1   1 -14    2.14    0.09
  -1   1 -14    2.27    0.08
  -2   1 -14    0.59    0.05
  -2   1 -14    0.55    0.04
  -2   1 -14    0.52    0.05
   1   0 -14    0.47    0.05
  -1   0  14    0.34    0.04
   0   0 -14    0.60    0.05
   0   0  14    0.62    0.04
  -1   0 -14    1.40    0.07
  -2   0 -14    1.65    0.07
  -2   0 -14    1.52    0.08
  -2   0 -14    1.59    0.08
  -3   0 -14    0.61    0.04
   1  -1 -14    1.37    0.07
  -1   1  14    1.31    0.06
   0  -1 -14    1.35    0.07
   0   1  14    1.28    0.06
  -1  -1 -14    0.73    0.06
   1   1  14    0.80    0.05
  -2  -1 -14    0.55    0.05
  -2  -1 -14    0.63    0.05
  -2  -1 -14    0.64    0.05
  -3  -1 -14    0.52    0.05
  -3  -1 -14    0.47    0.04
   0  -2 -14    0.37    0.04
   0   2  14    0.28    0.03
  -1  -2 -14    1.32    0.07
  -2  -2 -14    1.29    0.07
  -2  -2 -14    1.18    0.07
  -3  -2 -14    1.02    0.06
  -3  -2 -14    0.92    0.07
  -1  -3 -14    0.61    0.05
  -2  -3 -14    0.58    0.06
  -2  -3 -14    0.52    0.05
   0   0   0    0.00    0.00
;
_shelx_hkl_checksum              83508
#END Tags that were not found in dictionaries
loop_
_space_group_symop_operation_xyz
'x, y, z'
'-x, -y, -z'
loop_
_atom_site_label
_atom_site_type_symbol
_atom_site_fract_x
_atom_site_fract_y
_atom_site_fract_z
_atom_site_U_iso_or_equiv
_atom_site_adp_type
_atom_site_occupancy
_atom_site_site_symmetry_order
_atom_site_calc_flag
_atom_site_refinement_flags_posn
_atom_site_refinement_flags_adp
_atom_site_refinement_flags_occupancy
O1 O -0.0592(2) 0.4942(2) 0.67036(14) 0.0518(4) Uani 1 1 d . . .
O2 O -0.2428(2) 0.3001(3) 0.95267(18) 0.0700(5) Uani 1 1 d . . .
O3 O 0.2535(2) 0.1192(3) 1.16977(16) 0.0635(4) Uani 1 1 d . . .
O4 O 0.2320(2) 0.4127(2) 0.80391(13) 0.0473(3) Uani 1 1 d . . .
N2 N -0.1145(2) 0.4286(2) 0.76294(16) 0.0443(4) Uani 1 1 d . . .
N3 N 0.0044(2) 0.2104(2) 1.06202(15) 0.0440(4) Uani 1 1 d . . .
N4 N 0.2443(2) 0.2623(2) 0.98426(14) 0.0391(3) Uani 1 1 d . . .
C4 C -0.0150(2) 0.3617(2) 0.86225(17) 0.0375(4) Uani 1 1 d . . .
C6 C -0.0967(3) 0.2916(3) 0.95904(19) 0.0446(4) Uani 1 1 d . . .
C8 C 0.1720(3) 0.1930(2) 1.07804(17) 0.0420(4) Uani 1 1 d . . .
C9 C 0.4215(3) 0.2475(3) 1.0023(2) 0.0535(5) Uani 1 1 d . . .
H9A H 0.4111 0.3542 1.0186 0.080 Uiso 1 1 calc GR . .
H9B H 0.4992 0.2009 0.9250 0.080 Uiso 1 1 calc GR . .
H9C H 0.4701 0.1779 1.0750 0.080 Uiso 1 1 calc GR . .
C10 C 0.1589(2) 0.3512(2) 0.87768(16) 0.0346(3) Uani 1 1 d . . .
C11 C -0.0751(4) 0.1430(4) 1.1640(2) 0.0670(7) Uani 1 1 d . . .
H11A H 0.0111 0.0339 1.1845 0.100 Uiso 1 1 calc GR . .
H11B H -0.1776 0.1400 1.1334 0.100 Uiso 1 1 calc GR . .
H11C H -0.1107 0.2112 1.2407 0.100 Uiso 1 1 calc GR . .
Cd1 Cd 0.5000 0.5000 0.5000 0.03384(10) Uani 1 2 d S T P
N1 N 0.6017(2) 0.22348(18) 0.46278(14) 0.0376(3) Uani 1 1 d . . .
C1 C 0.5374(3) 0.1701(2) 0.37123(17) 0.0407(4) Uani 1 1 d . . .
H1 H 0.4441 0.2467 0.3262 0.049 Uiso 1 1 calc R . .
C2 C 0.6037(3) 0.0058(2) 0.34060(18) 0.0449(4) Uani 1 1 d . . .
H2 H 0.5563 -0.0272 0.2758 0.054 Uiso 1 1 calc R . .
C3 C 0.7406(3) -0.1080(2) 0.4074(2) 0.0484(5) Uani 1 1 d . . .
H3 H 0.7876 -0.2194 0.3888 0.058 Uiso 1 1 calc R . .
C5 C 0.7350(3) 0.1114(2) 0.5273(2) 0.0468(4) Uani 1 1 d . . .
H5 H 0.7806 0.1469 0.5916 0.056 Uiso 1 1 calc R . .
C7 C 0.8072(3) -0.0542(3) 0.5024(2) 0.0522(5) Uani 1 1 d . . .
H7 H 0.8997 -0.1288 0.5492 0.063 Uiso 1 1 calc R . .
O1W O 0.21049(19) 0.5461(2) 0.53722(14) 0.0458(3) Uani 1 1 d D . .
O2W O 0.5371(2) 0.4554(2) 0.72118(14) 0.0519(4) Uani 1 1 d D . .
H1WA H 0.165(3) 0.522(3) 0.6022(14) 0.066(8) Uiso 1 1 d D . .
H2WA H 0.461(3) 0.445(4) 0.770(2) 0.088(11) Uiso 1 1 d D . .
H2WB H 0.624(2) 0.436(4) 0.763(2) 0.086(11) Uiso 1 1 d D . .
H1WB H 0.161(3) 0.531(3) 0.4775(15) 0.052(7) Uiso 1 1 d D . .
loop_
_atom_site_aniso_label
_atom_site_aniso_U_11
_atom_site_aniso_U_22
_atom_site_aniso_U_33
_atom_site_aniso_U_23
_atom_site_aniso_U_13
_atom_site_aniso_U_12
O1 0.0413(8) 0.0707(10) 0.0490(7) 0.0170(7) -0.0167(6) -0.0294(7)
O2 0.0432(9) 0.1109(16) 0.0726(10) 0.0228(10) -0.0157(8) -0.0491(10)
O3 0.0566(10) 0.0875(12) 0.0492(8) 0.0237(8) -0.0202(7) -0.0341(9)
O4 0.0411(8) 0.0670(9) 0.0449(7) 0.0114(6) -0.0129(6) -0.0334(7)
N2 0.0334(8) 0.0563(9) 0.0442(8) 0.0034(7) -0.0104(6) -0.0205(7)
N3 0.0398(9) 0.0587(10) 0.0380(7) 0.0031(7) -0.0025(6) -0.0267(8)
N4 0.0303(8) 0.0529(9) 0.0360(7) 0.0030(6) -0.0093(6) -0.0199(7)
C4 0.0289(9) 0.0473(9) 0.0372(8) -0.0014(7) -0.0062(6) -0.0175(7)
C6 0.0343(10) 0.0573(11) 0.0444(9) 0.0006(8) -0.0053(7) -0.0226(9)
C8 0.0384(10) 0.0504(10) 0.0362(8) 0.0010(7) -0.0059(7) -0.0191(8)
C9 0.0351(11) 0.0769(15) 0.0537(11) 0.0098(10) -0.0179(9) -0.0284(10)
C10 0.0293(9) 0.0418(8) 0.0333(7) -0.0018(6) -0.0067(6) -0.0162(7)
C11 0.0671(17) 0.0932(19) 0.0539(12) 0.0156(12) -0.0001(11) -0.0498(15)
Cd1 0.03112(13) 0.03362(12) 0.03927(12) 0.00427(7) -0.00940(7) -0.01614(8)
N1 0.0358(8) 0.0350(7) 0.0438(7) 0.0036(6) -0.0085(6) -0.0170(6)
C1 0.0405(10) 0.0421(9) 0.0403(8) 0.0050(7) -0.0108(7) -0.0186(8)
C2 0.0516(12) 0.0473(10) 0.0397(9) -0.0038(7) -0.0028(8) -0.0260(9)
C3 0.0524(12) 0.0362(9) 0.0519(10) -0.0025(8) 0.0049(9) -0.0175(9)
C5 0.0430(11) 0.0438(10) 0.0550(10) 0.0049(8) -0.0192(9) -0.0188(9)
C7 0.0448(12) 0.0418(10) 0.0617(12) 0.0087(9) -0.0164(9) -0.0112(9)
O1W 0.0388(8) 0.0617(9) 0.0457(7) 0.0102(6) -0.0107(6) -0.0299(7)
O2W 0.0457(9) 0.0782(10) 0.0417(7) 0.0168(7) -0.0183(6) -0.0354(8)
loop_
_atom_type_symbol
_atom_type_description
_atom_type_scat_dispersion_real
_atom_type_scat_dispersion_imag
_atom_type_scat_source
C C 0.0033 0.0016 'International Tables Vol C Tables 4.2.6.8 and 6.1.1.4'
H H 0.0000 0.0000 'International Tables Vol C Tables 4.2.6.8 and 6.1.1.4'
Cd Cd -0.8075 1.2024 'International Tables Vol C Tables 4.2.6.8 and 6.1.1.4'
N N 0.0061 0.0033 'International Tables Vol C Tables 4.2.6.8 and 6.1.1.4'
O O 0.0106 0.0060 'International Tables Vol C Tables 4.2.6.8 and 6.1.1.4'
loop_
_geom_angle_atom_site_label_1
_geom_angle_atom_site_label_2
_geom_angle_atom_site_label_3
_geom_angle
_geom_angle_site_symmetry_1
_geom_angle_site_symmetry_3
_geom_angle_publ_flag
O1 N2 C4 119.67(16) . . ?
C6 N3 C11 118.01(19) . . ?
C8 N3 C6 124.70(16) . . ?
C8 N3 C11 117.26(18) . . ?
C8 N4 C9 117.61(16) . . ?
C10 N4 C8 125.23(15) . . ?
C10 N4 C9 117.10(16) . . ?
N2 C4 C6 112.79(16) . . ?
N2 C4 C10 126.25(17) . . ?
C10 C4 C6 120.95(16) . . ?
O2 C6 N3 120.04(19) . . ?
O2 C6 C4 123.76(19) . . ?
N3 C6 C4 116.19(17) . . ?
O3 C8 N3 121.21(19) . . ?
O3 C8 N4 121.52(19) . . ?
N3 C8 N4 117.27(16) . . ?
N4 C9 H9A 109.5 . . ?
N4 C9 H9B 109.5 . . ?
N4 C9 H9C 109.5 . . ?
H9A C9 H9B 109.5 . . ?
H9A C9 H9C 109.5 . . ?
H9B C9 H9C 109.5 . . ?
O4 C10 N4 119.86(16) . . ?
O4 C10 C4 124.58(16) . . ?
N4 C10 C4 115.55(16) . . ?
N3 C11 H11A 109.5 . . ?
N3 C11 H11B 109.5 . . ?
N3 C11 H11C 109.5 . . ?
H11A C11 H11B 109.5 . . ?
H11A C11 H11C 109.5 . . ?
H11B C11 H11C 109.5 . . ?
N1 Cd1 N1 180.0 2_666 . y
N1 Cd1 O2W 91.07(6) . . y
N1 Cd1 O2W 88.93(6) . 2_666 y
N1 Cd1 O2W 91.07(6) 2_666 2_666 y
N1 Cd1 O2W 88.93(6) 2_666 . y
O1W Cd1 N1 87.51(6) . 2_666 y
O1W Cd1 N1 92.49(6) 2_666 2_666 y
O1W Cd1 N1 87.51(6) 2_666 . y
O1W Cd1 N1 92.49(6) . . y
O1W Cd1 O1W 180.0 . 2_666 y
O1W Cd1 O2W 90.20(5) . 2_666 y
O1W Cd1 O2W 89.80(5) . . y
O1W Cd1 O2W 90.20(5) 2_666 . y
O1W Cd1 O2W 89.80(5) 2_666 2_666 y
O2W Cd1 O2W 180.0 2_666 . y
C1 N1 Cd1 121.33(12) . . ?
C1 N1 C5 117.79(16) . . ?
C5 N1 Cd1 120.76(13) . . ?
N1 C1 H1 118.6 . . ?
N1 C1 C2 122.74(18) . . ?
C2 C1 H1 118.6 . . ?
C1 C2 H2 120.6 . . ?
C3 C2 C1 118.88(18) . . ?
C3 C2 H2 120.6 . . ?
C2 C3 H3 120.6 . . ?
C2 C3 C7 118.79(18) . . ?
C7 C3 H3 120.6 . . ?
N1 C5 H5 118.7 . . ?
N1 C5 C7 122.69(19) . . ?
C7 C5 H5 118.7 . . ?
C3 C7 H7 120.4 . . ?
C5 C7 C3 119.10(19) . . ?
C5 C7 H7 120.4 . . ?
Cd1 O1W H1WA 127.5(18) . . ?
Cd1 O1W H1WB 119.1(15) . . ?
H1WA O1W H1WB 103(2) . . ?
Cd1 O2W H2WA 121(2) . . ?
Cd1 O2W H2WB 130.7(19) . . ?
H2WA O2W H2WB 108(3) . . ?
loop_
_geom_bond_atom_site_label_1
_geom_bond_atom_site_label_2
_geom_bond_distance
_geom_bond_site_symmetry_2
_geom_bond_publ_flag
O1 N2 1.281(2) . ?
O2 C6 1.210(3) . ?
O3 C8 1.212(2) . ?
O4 C10 1.223(2) . ?
N2 C4 1.329(2) . ?
N3 C6 1.390(3) . ?
N3 C8 1.375(3) . ?
N3 C11 1.472(3) . ?
N4 C8 1.391(3) . ?
N4 C9 1.470(3) . ?
N4 C10 1.390(2) . ?
C4 C6 1.463(3) . ?
C4 C10 1.452(2) . ?
C9 H9A 0.9600 . ?
C9 H9B 0.9600 . ?
C9 H9C 0.9600 . ?
C11 H11A 0.9600 . ?
C11 H11B 0.9600 . ?
C11 H11C 0.9600 . ?
Cd1 N1 2.3071(15) . y
Cd1 N1 2.3071(15) 2_666 y
Cd1 O1W 2.2856(14) 2_666 y
Cd1 O1W 2.2856(14) . y
Cd1 O2W 2.3247(14) 2_666 y
Cd1 O2W 2.3247(14) . y
N1 C1 1.335(2) . ?
N1 C5 1.338(2) . ?
C1 H1 0.9300 . ?
C1 C2 1.382(3) . ?
C2 H2 0.9300 . ?
C2 C3 1.374(3) . ?
C3 H3 0.9300 . ?
C3 C7 1.376(3) . ?
C5 H5 0.9300 . ?
C5 C7 1.375(3) . ?
C7 H7 0.9300 . ?
O1W H1WA 0.822(8) . ?
O1W H1WB 0.822(8) . ?
O2W H2WA 0.822(8) . ?
O2W H2WB 0.822(8) . ?
loop_
_geom_hbond_atom_site_label_D
_geom_hbond_atom_site_label_H
_geom_hbond_atom_site_label_A
_geom_hbond_distance_DH
_geom_hbond_distance_HA
_geom_hbond_distance_DA
_geom_hbond_angle_DHA
_geom_hbond_site_symmetry_A
O1W H1WA O1 0.822(8) 2.086(17) 2.784(2) 143(2) .
O1W H1WA O4 0.822(8) 2.280(16) 2.9602(19) 140(2) .
O2W H2WA O4 0.822(8) 2.094(15) 2.843(2) 151(3) .
O2W H2WB O2 0.822(8) 2.37(2) 3.048(2) 141(3) 1_655
O2W H2WB N2 0.822(8) 2.186(16) 2.910(2) 147(3) 1_655
O1W H1WB O1 0.822(8) 1.880(8) 2.699(2) 174(2) 2_566
loop_
_geom_torsion_atom_site_label_1
_geom_torsion_atom_site_label_2
_geom_torsion_atom_site_label_3
_geom_torsion_atom_site_label_4
_geom_torsion
O1 N2 C4 C6 -179.70(18)
O1 N2 C4 C10 -1.3(3)
N2 C4 C6 O2 -3.2(3)
N2 C4 C6 N3 176.19(18)
N2 C4 C10 O4 4.9(3)
N2 C4 C10 N4 -174.37(18)
C6 N3 C8 O3 -179.3(2)
C6 N3 C8 N4 0.2(3)
C6 C4 C10 O4 -176.77(19)
C6 C4 C10 N4 3.9(2)
C8 N3 C6 O2 179.6(2)
C8 N3 C6 C4 0.2(3)
C8 N4 C10 O4 176.95(18)
C8 N4 C10 C4 -3.7(3)
C9 N4 C8 O3 -1.9(3)
C9 N4 C8 N3 178.59(19)
C9 N4 C10 O4 0.1(3)
C9 N4 C10 C4 179.41(17)
C10 N4 C8 O3 -178.7(2)
C10 N4 C8 N3 1.7(3)
C10 C4 C6 O2 178.3(2)
C10 C4 C6 N3 -2.3(3)
C11 N3 C6 O2 -2.7(3)
C11 N3 C6 C4 177.9(2)
C11 N3 C8 O3 2.9(3)
C11 N3 C8 N4 -177.6(2)
Cd1 N1 C1 C2 175.57(14)
Cd1 N1 C5 C7 -175.84(17)
N1 C1 C2 C3 0.4(3)
N1 C5 C7 C3 0.1(4)
C1 N1 C5 C7 0.3(3)
C1 C2 C3 C7 -0.1(3)
C2 C3 C7 C5 -0.1(3)
C5 N1 C1 C2 -0.5(3)
