#------------------------------------------------------------------------------
#$Date: 2016-03-26 22:57:29 +0200 (Sat, 26 Mar 2016) $
#$Revision: 180524 $
#$URL: svn://www.crystallography.net/cod/cif/7/21/93/7219316.cif $
#------------------------------------------------------------------------------
#
# This file is available in the Crystallography Open Database (COD),
# http://www.crystallography.net/
#
# All data on this site have been placed in the public domain by the
# contributors.
#
data_7219316
loop_
_publ_author_name
'Tarasevych, Arkadii V.'
'Sorochinsky, Alexander E.'
'Kukhar, Valery P.'
'Toupet, Lo\"ic'
'Crassous, Jeanne'
'Guillemin, Jean-Claude'
_publ_section_title
;
 Attrition-induced spontaneous chiral amplification of the \g polymorphic
 modification of glycine
;
_journal_issue                   7
_journal_name_full               CrystEngComm
_journal_page_first              1513
_journal_paper_doi               10.1039/C4CE02434F
_journal_volume                  17
_journal_year                    2015
_chemical_formula_sum            'C2 H5 N O2'
_chemical_formula_weight         75.07
_space_group_crystal_system      trigonal
_space_group_IT_number           144
_space_group_name_Hall           'P 31'
_space_group_name_H-M_alt        'P 31'
_symmetry_space_group_name_Hall  'P 31'
_symmetry_space_group_name_H-M   'P 31'
_atom_sites_solution_hydrogens   geom
_audit_block_doi                 10.5517/cc13td8l
_audit_creation_method           SHELXL-2014/6
_audit_update_record
;
2014-12-03 deposited with the CCDC.
2015-01-06 downloaded from the CCDC.
;
_cell_angle_alpha                90
_cell_angle_beta                 90
_cell_angle_gamma                120
_cell_formula_units_Z            3
_cell_length_a                   7.0051(3)
_cell_length_b                   7.0051(3)
_cell_length_c                   5.4758(2)
_cell_measurement_reflns_used    2544
_cell_measurement_temperature    200(2)
_cell_measurement_theta_max      69.1150
_cell_measurement_theta_min      7.2800
_cell_volume                     232.706(16)
_computing_cell_refinement
;
CrysAlisPro, Agilent Technologies,
Version 1.171.37.34 (release 22-05-2014 CrysAlis171 .NET)
(compiled May 22 2014,16:03:01)
;
_computing_data_collection
;
CrysAlisPro, Agilent Technologies,
Version 1.171.37.34 (release 22-05-2014 CrysAlis171 .NET)
(compiled May 22 2014,16:03:01)
;
_computing_data_reduction
;
CrysAlisPro, Agilent Technologies,
Version 1.171.37.34 (release 22-05-2014 CrysAlis171 .NET)
(compiled May 22 2014,16:03:01)
;
_computing_molecular_graphics    'MERCURY 3.3(CCDC, 2014)'
_computing_publication_material  'WINGX (L.J. Farrugia, 2012)'
_computing_structure_refinement  'SHELXL-2014/6 (Sheldrick, 2014)'
_computing_structure_solution    'SIR-97_(Altomare & al., 1999)'
_diffrn_ambient_temperature      200(2)
_diffrn_detector                 'CCD plate'
_diffrn_detector_area_resol_mean 8.0662
_diffrn_detector_type            EosS2
_diffrn_measured_fraction_theta_full 0.562
_diffrn_measured_fraction_theta_max 1.000
_diffrn_measurement_device       'four-circle diffractometer'
_diffrn_measurement_device_type  'SuperNova, Single source at offset, EosS2'
_diffrn_radiation_monochromator  mirror
_diffrn_radiation_probe          x-ray
_diffrn_radiation_type           'Cu K\a'
_diffrn_radiation_wavelength     1.54184
_diffrn_reflns_av_R_equivalents  0.0302
_diffrn_reflns_av_unetI/netI     0.0142
_diffrn_reflns_Laue_measured_fraction_full 0.562
_diffrn_reflns_Laue_measured_fraction_max 1.000
_diffrn_reflns_limit_h_max       6
_diffrn_reflns_limit_h_min       -6
_diffrn_reflns_limit_k_max       6
_diffrn_reflns_limit_k_min       -6
_diffrn_reflns_limit_l_max       5
_diffrn_reflns_limit_l_min       -5
_diffrn_reflns_number            1687
_diffrn_reflns_point_group_measured_fraction_full 0.562
_diffrn_reflns_point_group_measured_fraction_max 1.000
_diffrn_reflns_theta_full        67.684
_diffrn_reflns_theta_max         49.725
_diffrn_reflns_theta_min         7.301
_diffrn_source                   'sealed X-ray tube'
_diffrn_source_type              'SuperNova (Cu) X-ray Source'
_exptl_absorpt_coefficient_mu    1.243
_exptl_absorpt_correction_T_max  1.00000
_exptl_absorpt_correction_T_min  0.66047
_exptl_absorpt_correction_type   multi-scan
_exptl_absorpt_process_details
;
CrysAlisPro, Agilent Technologies,
Version 1.171.37.34 (release 22-05-2014 CrysAlis171 .NET)
(compiled May 22 2014,16:03:01)
Empirical absorption correction using spherical harmonics,
 implemented in SCALE3 ABSPACK scaling algorithm.
;
_exptl_crystal_colour            colourless
_exptl_crystal_density_diffrn    1.607
_exptl_crystal_description       block
_exptl_crystal_F_000             120
_exptl_crystal_size_max          0.247
_exptl_crystal_size_mid          0.214
_exptl_crystal_size_min          0.116
_refine_diff_density_max         0.108
_refine_diff_density_min         -0.128
_refine_diff_density_rms         0.044
_refine_ls_abs_structure_details
;
 Flack x determined using 157 quotients [(I+)-(I-)]/[(I+)+(I-)]
 (Parsons, Flack and Wagner, Acta Cryst. B69 (2013) 249-259).
;
_refine_ls_abs_structure_Flack   0.1(4)
_refine_ls_extinction_coef       0.19(2)
_refine_ls_extinction_expression Fc^*^=kFc[1+0.001xFc^2^\l^3^/sin(2\q)]^-1/4^
_refine_ls_extinction_method     SHELXL
_refine_ls_goodness_of_fit_ref   0.668
_refine_ls_hydrogen_treatment    constr
_refine_ls_matrix_type           full
_refine_ls_number_parameters     47
_refine_ls_number_reflns         316
_refine_ls_number_restraints     1
_refine_ls_restrained_S_all      0.667
_refine_ls_R_factor_all          0.0269
_refine_ls_R_factor_gt           0.0269
_refine_ls_shift/su_max          0.000
_refine_ls_shift/su_mean         0.000
_refine_ls_structure_factor_coef Fsqd
_refine_ls_weighting_details
'w=1/[\s^2^(Fo^2^)+(0.0665P)^2^+0.4365P] where P=(Fo^2^+2Fc^2^)/3'
_refine_ls_weighting_scheme      calc
_refine_ls_wR_factor_gt          0.0724
_refine_ls_wR_factor_ref         0.0724
_reflns_Friedel_coverage         1.000
_reflns_Friedel_fraction_full    0.562
_reflns_Friedel_fraction_max     1.000
_reflns_number_gt                316
_reflns_number_total             316
_reflns_threshold_expression     'I > 2\s(I)'
_cod_data_source_file            c4ce02434f2.cif
_cod_data_source_block           shelx
_cod_depositor_comments
'Adding full bibliography for 7219316--7219319.cif.'
_cod_original_cell_volume        232.71(2)
_cod_database_code               7219316
#BEGIN Tags that were not found in dictionaries:
_shelx_space_group_comment
;
The symmetry employed for this shelxl refinement is uniquely defined
by the following loop, which should always be used as a source of
symmetry information in preference to the above space-group names.
They are only intended as comments.
;
_shelxl_version_number           2014/6
_shelx_res_file
;
TITL test structure: gly_g_cu_200k
CELL  1.54184   7.0051   7.0051   5.4758   90.000   90.000  120.000
ZERR     3.00   0.0003   0.0003   0.0002    0.000    0.000    0.000
LATT  -1
SYMM  - Y,   X - Y, 1/3 + Z
SYMM  - X + Y, - X, 2/3 + Z
SFAC  C    H    N    O
UNIT  6    15   3    6
MERG   2
OMIT    -4.00 100.00
FMAP   2
PLAN   45
ACTA
BOND   $H
CONF
LIST   4
WPDB  -2
L.S.   18
TEMP  -73.00
WGHT    0.066500    0.436500
EXTI    0.187718
FVAR      31.24169
O1    4    0.011728    0.232881    0.208311    11.00000    0.02730    0.01918 =
         0.01210   -0.00111    0.00012    0.01383
O2    4   -0.000948    0.543116    0.176578    11.00000    0.04309    0.02215 =
         0.01487    0.00010   -0.00542    0.01952
N1    3    0.028617    0.245059    0.696525    11.00000    0.02086    0.01874 =
         0.00927    0.00023    0.00234    0.00910
AFIX  33
H1A   2    0.011751    0.251582    0.860544    11.00000   -1.50000
H1B   2   -0.062919    0.105311    0.642869    11.00000   -1.50000
H1C   2    0.170744    0.283793    0.663161    11.00000   -1.50000
AFIX   0
C1    1   -0.000238    0.392914    0.297443    11.00000    0.01537    0.01887 =
         0.01172   -0.00171   -0.00379    0.00725
C2    1   -0.025913    0.397838    0.572025    11.00000    0.02694    0.02306 =
         0.01547    0.00228    0.00091    0.01652
AFIX  23
H2A   2    0.072099    0.549369    0.632799    11.00000   -1.20000
H2B   2   -0.179737    0.357005    0.610929    11.00000   -1.20000
AFIX   0
HKLF    4

REM  test structure: gly_g_cu_200k
REM R1 =  0.0269 for     316 Fo > 4sig(Fo)  and  0.0269 for all     316 data
REM     47 parameters refined using      1 restraints

END

WGHT      0.0391      0.0623

REM Highest difference peak  0.108,  deepest hole -0.128,  1-sigma level  0.044
Q1    1   0.3424  0.6084  0.6647  11.00000  0.05    0.11
Q2    1   0.0589  0.1340  0.2930  11.00000  0.05    0.10
Q3    1  -0.1925  0.5163  0.5529  11.00000  0.05    0.10
Q4    1  -0.0296  0.6204  0.2626  11.00000  0.05    0.10
Q5    1  -0.0529  0.5133  0.6744  11.00000  0.05    0.09
Q6    1   0.2366  0.7145  0.5235  11.00000  0.05    0.09
Q7    1  -0.2747  0.2587  0.5945  11.00000  0.05    0.09
Q8    1   0.0221  0.0557  0.5637  11.00000  0.05    0.08
Q9    1   0.0362  0.1665  0.1605  11.00000  0.05    0.08
Q10   1   0.1031  0.7241  0.6946  11.00000  0.05    0.07
Q11   1   0.1913  0.5875  0.7844  11.00000  0.05    0.07
Q12   1  -0.1391  0.1088  0.1147  11.00000  0.05    0.06
Q13   1   0.2252  0.2009  0.7360  11.00000  0.05    0.06
Q14   1  -0.1383  0.4594  0.1074  11.00000  0.05    0.06
;
_shelx_res_checksum              15823
_shelx_hkl_file
;
   0   0  -6 66880.5 1590.55  33
   0   0  -6 68832.5 1594.64  41
   0   0  -5 40.9132 40.9562  41
   0   0  -5-8.76967 51.2390  33
   0   0  -4 67.1976 91.8754  64
   0   0  -3 377908. 3977.13  64
   0   0  -2 47.0652 38.3822  64
   0   0  -2 1.25216 28.8432  35
   0   0  -1 456.667 54.6866  59
   0   0   2 122.713 49.4027   4
   0   0   2 12.0957 29.8721  58
   0   0   2 68.3277 35.8169  61
   0   0   3 387845. 3619.80  58
   0   0   3 398086. 3507.30   4
   0   0   4 7.62763 48.7415  58
   0   0   5 32.8990 56.2646   7
   0   0   5-115.587 93.0801  20
   0   0   5 41.1642 91.7273  23
   0   0   5 97.6782 90.3878  43
   0   0   6 66638.0 2013.05  43
  -1   0  -6 15920.1 784.989  33
   1  -1  -6 15999.3 773.160  33
   1  -1  -6 16182.4 762.597  41
   0   1  -6 16134.3 710.322  33
   0   1  -5 31749.0 1249.09  40
  -1   0  -5 34765.2 1250.03  41
   0   1  -5 32858.7 1308.61  41
  -1   0  -5 35525.5 1343.85  33
   1  -1  -5 33915.4 1295.81  41
   0   1  -5 33619.7 1239.87  33
  -1   0  -5 32221.6 1245.33  40
  -1   0  -4 55189.7 1843.27  64
   0   1  -4 50820.3 1898.03  64
   1  -1  -4 57110.8 2034.63  64
   1  -1  -3 7247.13 484.408  39
   1  -1  -3 7811.52 588.412  64
  -1   0  -3 7023.88 506.150  64
  -1   0  -3 7364.87 549.992  36
   1  -1  -3 7477.21 488.551  35
   0   1  -3 7836.05 612.128  64
   1  -1  -2 29463.8 865.088  64
   0   1  -2 25183.2 865.195  64
  -1   0  -2 29510.5 558.365  59
   1  -1  -2 27197.9 729.143  38
   1  -1  -2 27002.9 794.061  59
   1  -1  -2 26491.8 714.625  39
  -1   0  -2 28330.1 887.114  36
   0   1  -2 27378.5 771.391  52
   1  -1  -2 25962.0 699.683  35
  -1   0  -2 27978.6 741.175  64
  -1   0  -1 270507. 2163.99  36
   1  -1  -1 267440. 1987.45  59
   0   1  -1 267053. 1972.62  69
   1  -1   0 24723.3 440.260  59
   0   1   0 24890.8 599.076   1
  -1   0   0 25386.7 582.774   1
  -1   0   1 174549. 1701.64   5
   1  -1   1 181447. 1610.99  37
   0   1   1 174543. 1522.16  58
   1  -1   1 179103. 1359.12  67
   1  -1   2 856937. 4103.26   4
   1  -1   2 896711. 3893.39  68
   1  -1   2 972229. 4252.62  67
   1  -1   2 916867. 3766.45  58
  -1   0   2 888595. 4909.96   5
   0   1   2 825234. 4399.76  58
  -1   0   2 884484. 4103.70   4
  -1   0   2 907402. 4397.86  59
   1  -1   2 946869. 4391.01  61
  -1   0   3 18285.4 762.023   4
  -1   0   3 17673.8 828.177  58
   0   1   3 17509.0 805.370  58
   1  -1   3 16753.5 684.669  58
   1  -1   3 17244.7 750.390   4
   1  -1   3 16552.6 747.711  61
  -1   0   4 23146.8 1132.12  58
   1  -1   4 24070.1 1067.25   4
   0   1   4 23477.5 1132.50  58
   0   1   5 4480.02 494.535  23
   1  -1   5 5069.33 567.411  23
   1  -1   5 4594.50 525.614  20
  -1   0   5 4887.87 544.528  20
   0   1   5 3852.47 602.569  43
  -1   0   5 4153.70 468.872   7
   0   1   6 9107.34 719.849  42
   1  -1   6 8925.34 616.055  23
  -1   0   6 8335.21 699.944  43
   0   1   6 8971.47 771.433  43
  -1   0   6 8690.42 548.662   7
  -1   1  -6 9197.08 578.176  12
  -1   1  -6 10052.1 606.474  33
   0  -1  -6 9689.71 616.027  33
   1   0  -6 8394.24 520.029  33
   1   0  -6 10070.6 624.035  41
  -1   1  -5 4205.72 455.880  41
  -1   1  -5 4227.42 464.280  40
   0  -1  -5 4365.41 467.534  33
  -1   1  -5 4224.85 457.316  33
   1   0  -5 4463.29 480.297  41
   1   0  -4 22836.6 1316.52  64
   0  -1  -4 23721.5 1238.14  64
  -1   1  -4 21956.3 963.098  40
  -1   1  -3 16720.6 826.467  64
   0  -1  -3 17628.3 832.362  64
   0  -1  -3 17575.0 767.022  35
   1   0  -3 16869.7 714.241  35
   1   0  -3 18364.2 963.447  64
   0  -1  -2 937306. 4180.59  39
   0  -1  -2 988176. 4427.63  35
   0  -1  -2 908945. 4225.80  59
   1   0  -2 929904. 3977.82  35
   1   0  -2 999999. 4347.74  39
   1   0  -1 170596. 1700.09  64
   0  -1  -1 175177. 1404.95  63
   0  -1  -1 177779. 1308.95  35
   1   0  -1 179294. 1379.43  38
  -1   1  -1 168354. 1543.72  52
   1   0   0 25248.2 594.223   1
   0  -1   0 24973.8 602.671   1
  -1   1   1 276702. 1940.79  45
  -1   1   1 283625. 1999.10  59
  -1   1   1 274985. 1859.72  58
   0  -1   1 277356. 2051.34   3
   0  -1   1 285572. 1955.84  61
   0  -1   2 26585.6 667.678  37
   1   0   2 24011.9 593.240  61
  -1   1   2 24390.5 757.366  45
   0  -1   2 24436.6 776.802  61
   0  -1   2 27124.8 587.060  59
   1   0   2 26178.3 789.030  68
   1   0   2 25836.3 709.876  58
  -1   1   2 27697.1 823.207  58
   0  -1   2 27538.1 807.734   5
   0  -1   3 7488.81 497.347  58
   1   0   3 7298.27 480.236  58
  -1   1   3 7776.09 558.746  58
   0  -1   3 7891.15 520.693   4
   1   0   4 52583.1 1567.52  58
   0  -1   4 52391.3 1568.71  58
   0  -1   4 55101.6 1628.18   4
  -1   1   4 57134.7 1803.43  58
   0  -1   5 34653.5 1422.03  23
   1   0   5 33630.2 1671.67  43
   1   0   5 34936.9 1469.93  23
   0  -1   5 37571.1 1527.99  20
  -1   1   5 35130.2 1785.83  43
  -1   1   5 36684.9 1480.86  20
  -1   1   5 35994.4 1387.18   7
   1   0   6 15808.5 805.693  23
   0  -1   6 16341.8 852.877  20
   1   0   6 15458.9 894.272  42
  -1   1   6 16727.5 1051.06  43
   1  -2  -6 2675.36 315.537  33
  -2   1  -6 2782.07 317.039  33
   1   1  -6 2932.98 326.125  41
  -2   1  -5 12718.6 812.617  33
   1   1  -5 12227.5 792.184  41
   1   1  -5 13238.0 807.875  10
  -2   1  -5 13062.4 781.757  12
   1  -2  -4 73165.8 1940.81  35
  -2   1  -4 70597.4 1829.26  33
   1  -2  -4 74878.3 2319.17  64
  -2   1  -4 72422.3 1835.53  40
   1   1  -4 70915.4 1821.18  41
   1   1  -4 65795.1 1877.91  25
   1  -2  -3 36975.0 1140.28  39
   1  -2  -3 36928.6 1162.22  35
  -2   1  -3 35849.1 1094.93  40
   1   1  -2 11428.9 421.688  35
  -2   1  -2 10680.5 478.562  40
   1  -2  -2 10138.6 481.151  35
   1  -2  -2 10480.6 473.604  39
   1  -2  -2 10509.1 462.209  38
  -2   1  -2 11375.9 537.259   6
   1   1  -1 153860. 2182.41  65
   1   1  -1 148174. 1706.33  69
  -2   1  -1 153544. 1741.79   6
   1   1  -1 151750. 2336.28   1
   1  -2  -1 152141. 1773.11  59
  -2   1  -1 146817. 1382.76   1
   1  -2   0 754544. 3503.34   1
  -2   1   0 758676. 3873.64   6
   1   1   1 45761.9 965.647  68
   1   1   1 59302.4 1049.97  46
   1  -2   1 43880.5 706.205  67
   1  -2   1 43251.1 887.126  61
   1  -2   1 65710.1 1138.69   3
  -2   1   1 54954.1 1092.11  59
  -2   1   1 64586.2 1056.64   5
  -2   1   1 46060.3 846.058  56
  -2   1   2 281819. 2609.47  45
   1   1   2 287731. 2961.94  68
  -2   1   2 272221. 2194.58   4
   1  -2   2 276974. 2354.40   5
   1  -2   2 304112. 2892.83  61
   1  -2   2 292168. 2855.26  37
   1   1   3 191208. 2789.25  58
  -2   1   3 194432. 2971.10  58
  -2   1   4 79232.7 2030.19   7
  -2   1   4 77184.5 2180.57  58
   1  -2   4 79955.4 2046.38  29
   1  -2   4 79566.8 2015.92   4
   1  -2   4 79400.5 2089.78  20
   1   1   4 74718.3 2495.52  43
   1   1   4 80670.8 2115.76  23
  -2   1   5 26017.3 1185.15  20
   1   1   5 25451.7 1538.34  43
   1  -2   5 24780.3 1259.99  23
  -2   1   5 24526.0 1157.78   7
   1   1   5 25142.4 1218.32  23
   1  -2   5 23576.6 1174.42  20
   1   1   6 19598.3 1008.59  42
   1   1   6 20330.8 866.366  23
  -2   1   6 20958.0 1122.13  43
   1  -2   6 20775.0 915.540  23
  -3   1  -6 66744.9 1395.04  33
   1   2  -6 68447.1 1367.36  12
   1   2  -5 13930.8 840.196  10
   1   2  -5 14968.6 835.215  41
  -3   1  -5 13977.4 841.560  33
  -3   1  -4 68644.3 1907.61  33
   1   2  -4 64082.3 1740.87  41
  -3   1  -4 65225.0 1778.88  40
   1   2  -4 61995.5 1765.56  66
   1   2  -4 62506.9 2428.65  65
  -3   1  -4 62520.9 1903.63  34
   2  -3  -4 65500.6 1931.30  35
   1   2  -4 65152.7 2001.90  25
   2  -3  -4 62438.8 2228.85  64
   1   2  -3 78316.4 1733.00  66
   1   2  -3 78520.1 2477.53  65
   2  -3  -3 87521.7 1888.61  39
   2  -3  -3 78723.0 2067.92  64
  -3   1  -3 86157.1 1795.64  40
   2  -3  -3 88387.4 1926.55  35
   2  -3  -2 66475.5 1380.47  38
  -3   1  -2 69042.2 1668.73   6
   1   2  -2 66973.0 1349.16  66
   1   2  -2 72454.2 1692.92  69
   1   2  -2 66374.3 2023.05  65
   1   2  -1 22484.4 851.944  69
   1   2  -1 31479.5 1240.83  65
  -3   1  -1 21600.8 865.679   6
   1   2  -1 35464.9 821.392  66
   2  -3  -1 21250.8 752.899  70
  -3   1   0 380609. 3593.97   6
   1   2   0 381965. 3381.45  69
  -3   1   0 388651. 2896.82  56
   1   2   1 81504.6 1538.12  46
   2  -3   1 80779.5 1424.85   3
  -3   1   1 81391.2 1480.56   5
  -3   1   1 86402.2 1382.05  56
   2  -3   1 78987.9 1171.70  67
   1   2   1 86494.4 1545.83  68
   2  -3   2 45520.6 1284.02  61
   2  -3   2 43662.0 1336.47  37
   2  -3   2 45654.9 1082.95  67
  -3   1   2 43640.8 1296.54   5
   1   2   2 42203.4 1241.16  46
  -3   1   3 6683.19 592.660  58
   1   2   3 5815.30 525.650  46
   1   2   4 77645.1 2131.50  23
   1   2   4 73280.0 2314.20  44
  -3   1   4 73736.9 2217.51  58
  -3   1   4 78065.8 2082.01   7
   1   2   4 79173.6 2451.78  42
   2  -3   4 76501.9 2003.21  29
   2  -3   4 79241.0 2253.58  61
   2  -3   4 74468.7 1950.30   4
   1   2   4 70252.0 2047.82  46
  -3   1   5 15346.4 893.198   7
   1   2   5 14564.0 1057.79  42
   2  -3   5 13001.8 781.765  20
   1   2   5 14612.5 898.647  23
   2  -3   5 12739.4 895.822  23
   2  -3   6 42895.5 1209.70  23
  -3   1   6 45685.4 1161.65   7
  -3   1   6 43521.5 1450.55  43
   1   2   6 45077.9 1406.69  42
   0   2  -6 3031.90 328.909  12
  -2   0  -6 3221.41 336.881  33
   2  -2  -6 2613.80 281.741  41
   2  -2  -6 2551.33 295.676  33
  -2   0  -5 6516.41 602.602  34
   2  -2  -5 6872.97 586.159  41
   0   2  -5 5909.24 535.353  10
   0   2  -5 6624.29 588.285  41
  -2   0  -5 6718.55 590.522  33
   0   2  -4 215244. 3014.13  40
   0   2  -4 217102. 3319.50  10
  -2   0  -4 233513. 3167.17  40
  -2   0  -4 231875. 3350.27  33
   2  -2  -4 217834. 4161.88  64
  -2   0  -4 223452. 3620.09  34
   0   2  -4 230398. 3319.49  41
   2  -2  -4 221094. 3440.65  35
   0   2  -3 80387.7 1860.85  52
   2  -2  -3 80972.7 2022.82  64
  -2   0  -3 80903.6 2097.03  36
  -2   0  -3 76628.3 1514.39  40
   2  -2  -3 76165.3 1685.98  35
   0   2  -3 79378.0 2242.90  65
   2  -2  -3 79014.0 1745.12  39
   2  -2  -2 98509.6 1603.15  38
  -2   0  -2 105088. 2082.44  36
  -2   0  -2 100851. 1361.99  40
   0   2  -2 100593. 1823.92  52
   0   2  -2 105295. 2228.88  65
   2  -2  -2 106321. 1814.78  64
  -2   0  -1 98057.6 1678.83   1
   2  -2  -1 111653. 1445.12  70
   2  -2  -1 99584.9 1558.96  59
   0   2  -1 104773. 1902.13   1
   0   2  -1 104043. 1898.50  65
   0   2  -1 104397. 1612.68  69
   0   2  -1 111532. 1441.90  66
   2  -2   0 298566. 2235.23  59
   0   2   0 301009. 2428.57  69
  -2   0   0 299828. 2710.08   6
   2  -2   0 297961. 2247.81  37
   0   2   1 97796.7 1340.40  69
   2  -2   1 107024. 1315.73  67
  -2   0   1 100762. 1056.66  56
   2  -2   1 112545. 1433.96  60
   2  -2   1 103933. 1598.20  37
  -2   0   1 106985. 1668.33   6
   2  -2   2 550607. 3705.44  67
   0   2   2 546152. 4124.85  58
   2  -2   2 542041. 4004.04  61
   2  -2   3 95310.5 1815.30   4
   2  -2   3 94982.2 1972.80  61
   0   2   3 90733.7 2048.50  58
   0   2   4 16940.3 1027.25  58
  -2   0   4 14887.1 963.719  58
  -2   0   4 15181.6 906.312   7
   2  -2   4 15209.0 888.370  20
   2  -2   4 15506.9 857.122   4
   0   2   4 13805.9 968.540  44
   0   2   4 15914.8 902.174  23
  -2   0   4 15102.0 823.903   4
   0   2   4 15873.0 1167.62  43
  -2   0   4 15492.4 921.605  20
   2  -2   4 16096.1 1006.56  23
   2  -2   5 15656.8 1011.90  23
   2  -2   5 15121.3 1105.59  22
   2  -2   5 14568.1 869.278  20
   0   2   5 14795.8 874.486  23
   0   2   5 15962.0 1234.62  43
  -2   0   5 14668.6 901.200   7
  -2   0   5 14801.2 907.106  20
  -2   0   6 14821.3 703.855   7
  -2   0   6 14920.2 877.793  43
   0   2   6 14851.3 869.217  42
   2  -2   6 14350.1 761.329  23
  -1   2  -6 21250.0 873.135  12
   2  -1  -6 22176.4 891.532  41
   2  -1  -6 22001.3 816.212  33
  -1  -1  -6 22113.2 897.827  33
  -1  -1  -5 25576.3 1130.34  33
   2  -1  -5 25485.7 1149.37  41
  -1   2  -5 24929.5 1056.15  33
  -1   2  -4 80645.2 1963.52  41
   2  -1  -4 79045.9 2523.99  64
  -1   2  -4 74528.6 1817.09  40
   2  -1  -4 78847.1 1950.19  35
  -1  -1  -4 79222.7 2148.49  64
  -1  -1  -4 75056.4 1848.43  33
  -1  -1  -3 205943. 3457.63  36
   2  -1  -3 200709. 2624.74  35
  -1  -1  -3 191954. 2737.40  64
  -1   2  -3 213837. 2618.34  40
   2  -1  -3 215409. 2794.11  39
   2  -1  -3 189576. 3254.51  64
  -1  -1  -2 308572. 3536.12  36
  -1   2  -2 282430. 3020.81  65
   2  -1  -2 288493. 2669.94  38
  -1   2  -2 309360. 2497.96  40
   2  -1  -2 290146. 2567.33  39
  -1   2  -2 308092. 3096.74  52
  -1   2  -1 60924.5 1049.76  66
  -1   2  -1 45588.4 1003.02  52
  -1   2  -1 44926.9 763.890  40
  -1  -1  -1 45430.7 1119.51  36
  -1   2  -1 42586.5 697.187  56
  -1   2  -1 47673.3 931.401   1
   2  -1  -1 49790.2 806.748  70
  -1  -1  -1 44648.9 992.872  62
  -1  -1  -1 46904.8 901.256  63
   2  -1  -1 61227.9 1063.31  64
  -1  -1  -1 42297.6 1136.30   1
   2  -1   0 756753. 3258.57   1
  -1   2   0 791585. 3441.22  69
  -1  -1   0 793074. 4826.20   1
  -1  -1   0 774481. 3708.11  62
   2  -1   0 755948. 3583.04  60
  -1  -1   0 821563. 3729.87   2
  -1   2   1 150019. 1574.00  58
  -1  -1   1 141879. 1664.31   3
  -1  -1   1 148316. 704.918  70
   2  -1   1 154305. 1748.66  60
  -1  -1   1 154078. 1630.71   6
  -1   2   1 154356. 1872.67  45
   2  -1   1 163062. 1584.42  67
   2  -1   2 11824.4 578.038  68
  -1   2   2 20931.5 836.392  45
   2  -1   2 12283.6 544.226  67
  -1  -1   3 67533.8 1794.89   5
  -1   2   3 58773.5 1587.05  58
  -1  -1   4 71940.5 1937.90  29
   2  -1   4 75194.0 2140.95  23
   2  -1   4 78632.5 2464.02  22
  -1  -1   4 71705.2 2016.97  20
  -1  -1   4 70209.8 1888.91   4
  -1   2   4 74204.8 2126.09  58
  -1  -1   4 68437.3 1946.61  58
  -1   2   4 70583.2 1857.42   7
   2  -1   5 13748.1 942.653  23
  -1   2   5 13016.4 1100.13  43
   2  -1   5 12918.5 1016.45  22
  -1  -1   5 13712.3 849.046   7
  -1  -1   5 14504.0 947.316  20
  -1   2   6 3818.55 445.105  42
   2  -1   6 4159.90 418.971  23
  -1  -1   6 4496.74 431.392  20
  -1   2   6 4072.83 511.042  43
  -1  -1   6 4779.05 377.639   7
  -2   2  -6 13871.0 655.465  33
   0  -2  -6 14999.8 716.644  33
   2   0  -6 14234.8 697.376  41
  -2   2  -6 13889.3 650.134  12
   0  -2  -6 13862.9 729.019  34
   0  -2  -5 14577.2 844.892  33
   2   0  -5 14722.3 866.837  41
  -2   2  -5 14889.0 863.452  33
  -2   2  -5 13997.0 846.612  12
   2   0  -4 13686.6 816.629  41
   2   0  -4 14575.2 1114.22  64
  -2   2  -4 15256.5 856.964  33
   0  -2  -4 14964.8 1108.70  36
   0  -2  -4 15726.4 1020.07  64
   2   0  -4 14790.5 907.374  25
   2   0  -4 14154.3 893.330  24
  -2   2  -4 15735.5 872.993  40
   2   0  -3 94051.4 1698.70  35
  -2   2  -3 97533.6 1893.06  40
   0  -2  -3 93686.7 2437.95  36
   2   0  -3 98052.8 1858.25  39
   0  -2  -3 95712.6 1887.85  35
   0  -2  -2 514820. 3665.26  62
   0  -2  -2 576432. 3261.93  39
   2   0  -2 547129. 3490.46  39
   0  -2  -2 573676. 3603.95  35
  -2   2  -2 568477. 3675.58  40
   2   0  -2 545627. 3177.25  35
   2   0  -2 473434. 4366.60  64
   0  -2  -2 492912. 3600.79  63
  -2   2  -1 103665. 1363.53  56
   2   0  -1 102693. 1370.41  60
  -2   2  -1 101360. 1378.57  66
   2   0  -1 104567. 1243.07  38
   0  -2  -1 98648.6 1838.39   1
   0  -2  -1 103143. 1520.57  62
   0  -2   0 285340. 2659.63   2
   0  -2   0 303077. 1742.89  70
   0  -2   0 300169. 2992.18   1
   2   0   0 280825. 2308.94  60
  -2   2   0 303731. 2346.30  56
   0  -2   0 292708. 2360.46  36
   2   0   0 278335. 2832.59   1
   0  -2   1 102840. 1437.62  61
   2   0   1 101197. 1208.95  67
   2   0   1 106319. 1638.50  68
  -2   2   1 104749. 1311.24  58
  -2   2   1 97791.4 1462.18  56
   2   0   1 108909. 1385.62  46
   0  -2   1 109022. 1703.13   3
  -2   2   2 96724.2 1800.72  45
   0  -2   2 96521.7 1743.62  61
   0  -2   2 98036.4 1740.98   5
   2   0   2 100557. 1519.71  46
   2   0   2 105590. 1880.42  68
   2   0   2 99314.2 1475.76  67
  -2   2   2 102864. 1714.07  58
   2   0   3 80310.5 1931.03  68
   0  -2   3 79190.9 1832.73   5
  -2   2   3 81319.5 1927.09  58
   0  -2   4 223580. 3454.47   4
   2   0   4 224384. 4254.89  43
   0  -2   4 232503. 3562.10  29
   2   0   4 238794. 4272.08  22
  -2   2   4 228947. 3414.73   7
  -2   2   4 229655. 3372.22  20
   2   0   4 230290. 3730.80  23
   0  -2   4 225979. 3647.85  20
  -2   2   4 226202. 3761.01  58
   0  -2   5 7035.39 655.181  20
   0  -2   5 6914.48 641.967  23
   2   0   5 5970.99 644.891  42
   2   0   5 6782.76 654.071  23
  -2   2   5 6669.48 599.819   7
  -2   2   5 6735.39 774.152  43
   2   0   6 2415.10 318.011  42
  -2   2   6 2699.68 406.401  43
   0  -2   6 2665.83 323.657  20
   2   0   6 2699.32 325.313  23
   2   1  -6 78877.7 1449.12  41
  -3   2  -6 77401.0 1487.89  33
  -3   2  -5 34078.5 1222.58  12
   2   1  -5 34947.8 1267.72  41
  -3   2  -5 33561.7 1292.33  33
  -3   2  -4 56973.9 1724.07  40
   1  -3  -4 52431.2 2227.54  36
   2   1  -4 57152.0 1655.07  41
  -3   2  -4 58699.1 1701.34  12
   2   1  -4 56839.9 2375.41  65
   2   1  -4 56008.4 1864.10  25
  -3   2  -4 59213.1 1775.71  66
  -3   2  -4 58903.2 1783.81  33
  -3   2  -3 32164.1 1148.92  66
   2   1  -3 34891.1 1653.36  65
   1  -3  -3 39193.1 1251.47  35
  -3   2  -3 36517.5 1245.12  40
   1  -3  -2 9920.86 544.600  63
   1  -3  -2 7615.51 426.025  39
   2   1  -2 10493.5 791.904  65
   2   1  -2 9278.05 564.457  69
   1  -3  -2 7659.58 451.527  35
   2   1  -1 55206.5 1273.96  69
  -3   2  -1 55377.1 1001.84  66
   1  -3  -1 58164.4 1214.07  70
   2   1  -1 58411.0 1637.02  65
  -3   2  -1 57243.4 1238.16  56
   1  -3   0 490768. 4028.36   2
  -3   2   0 498453. 3373.59  59
   1  -3   0 494882. 3988.93   1
   2   1   1 189239. 2413.14  68
   1  -3   1 189707. 2178.25  61
  -3   2   1 185976. 2257.35  56
   1  -3   2 29420.8 1041.32  61
   2   1   2 31131.3 1136.50  68
   2   1   2 33855.0 1068.44  46
  -3   2   2 32245.1 1080.88  45
   1  -3   3 14137.4 857.996  61
   1  -3   3 14716.1 825.050  37
   1  -3   4 50851.6 1711.75  20
   2   1   4 54048.8 1808.67  23
   1  -3   4 50594.7 1687.51  29
  -3   2   4 51423.5 1830.26  58
   2   1   4 47342.4 1889.53  42
   1  -3   4 49966.9 1671.88   4
  -3   2   4 52636.0 1676.29   7
  -3   2   5 15902.3 898.050   7
   2   1   5 17160.0 1010.96  23
   1  -3   5 18089.3 1054.81  23
   2   1   5 15287.5 1060.67  42
   1  -3   5 14781.2 899.128  20
   1  -3   5 17128.3 962.731  29
   1  -3   6 94895.6 1742.91  23
  -3   2   6 99396.0 2218.25  43
   2   1   6 100138. 1983.99  42
   1  -3   6 95014.4 1635.24  20
   2   2  -5 14119.4 710.031  41
   2   2  -5 14614.1 823.455  10
  -4   2  -5 14080.1 801.514  33
  -4   2  -4 173390. 3158.01  33
   2   2  -4 169384. 3317.62  25
   2   2  -3 18930.2 1083.36  24
   2  -4  -3 18230.2 922.396  35
  -4   2  -3 18520.2 974.436  33
   2   2  -3 18722.9 1049.32  25
   2   2  -3 19720.1 1361.38  65
   2   2  -3 16724.0 1038.84  13
   2   2  -2 24363.3 1105.53  69
   2  -4  -2 22181.3 879.570  35
  -4   2  -2 24450.5 1047.17  56
   2   2  -1 9363.45 651.198  69
   2  -4  -1 8930.44 586.869  70
  -4   2  -1 10366.9 615.540  56
  -4   2  -1 10013.0 666.176   6
   2  -4   0 6615.56 538.717   2
   2   2   0 7466.84 568.312  69
  -4   2   0 6987.31 491.066  56
   2   2   1 100843. 1989.13  68
   2  -4   1 99256.8 1892.93  61
   2   2   2 76314.3 1861.50  46
   2  -4   2 80020.6 1994.65  37
   2  -4   2 80745.3 1915.05  61
  -4   2   2 77075.9 1808.27  58
   2   2   3 36602.5 1475.36  15
   2   2   3 34489.9 1365.68  46
   2  -4   3 35435.3 1432.69  61
   2   2   3 39343.5 1481.57  23
   2   2   3 35821.3 1656.10  44
  -4   2   3 35220.4 1275.55   7
  -4   2   3 36987.1 1448.04  58
   2  -4   3 35652.8 1470.88  37
   2   2   3 39020.6 1676.08  42
  -4   2   3 41620.1 1688.79  16
   2   2   4 59424.0 1923.47  23
   2   2   4 60443.7 2204.74  42
  -4   2   4 61966.1 1787.82   7
   2   2   4 47865.6 1708.45  15
  -4   2   4 72145.3 2284.35  16
   2  -4   4 55278.7 1705.15  29
  -4   2   5 2802.47 344.683   7
   2  -4   5 2001.21 335.972  23
   2   2   5 2729.87 426.015  42
  -5   2  -5 18463.1 772.783  33
   2   3  -5 18165.8 776.852  10
  -5   2  -4 103196. 2295.09  33
   2   3  -4 112133. 2556.13  13
   2   3  -4 107747. 2392.17  10
   3  -5  -3 14928.7 1011.55  64
   2   3  -3 15039.8 1046.11  13
  -5   2  -3 13000.4 837.391  33
   2   3  -2 22348.4 1257.48  13
  -5   2  -2 20379.9 976.183  33
  -5   2  -2 22141.1 1119.11  56
   2   3  -2 21726.1 1223.10  14
   3  -5  -2 20150.2 930.000  35
   2   3  -2 21760.0 1203.09  69
   2   3  -1 17310.5 1041.18  69
   3  -5  -1 16878.7 1043.31   2
  -5   2  -1 16305.4 1013.93   6
  -5   2  -1 16322.6 896.373  56
  -5   2   0 49333.5 1498.29  56
   2   3   0 51824.1 1770.39  69
   2   3   1 113965. 2601.63  69
   3  -5   1 116861. 2391.98  61
   3  -5   1 117720. 2573.32  37
  -5   2   1 112382. 2258.34  56
   2   3   2 84902.7 2263.71   8
  -5   2   2 96223.4 2522.62  16
  -5   2   2 85988.2 2252.30  49
   3  -5   2 76033.6 2185.54  37
   2   3   2 87292.0 2351.47  15
   3  -5   2 86669.5 2201.60  61
   2   3   2 78073.5 2145.01  69
   3  -5   3 18905.1 1097.47  61
   2   3   3 19336.5 1093.73   8
  -5   2   3 20937.5 1247.34  16
   2   3   3 20576.0 1135.47  15
  -5   2   4 24173.7 994.062   7
   3  -5   4 22848.7 1118.36  23
   3  -5   5 894.485 219.363  22
  -5   2   5 1687.82 209.411   7
   3  -5   5 1211.74 210.587  23
   2   3   5 1065.43 189.014  54
  -4   1  -5 18218.8 870.945  33
   1   3  -5 17989.5 892.309  10
   1   3  -5 18078.7 787.558  12
  -4   1  -4 155970. 2908.27  33
   1   3  -4 153682. 3012.45  10
  -4   1  -3 14666.5 846.450  33
   1   3  -3 15025.0 992.038  13
   3  -4  -3 15248.8 878.084  38
   3  -4  -3 15476.8 878.731  39
  -4   1  -3 16311.8 998.289  34
   3  -4  -3 14787.6 870.693  35
   1   3  -3 14767.9 965.376  52
   3  -4  -2 50658.8 1507.36  64
   1   3  -2 50754.4 1690.77  69
  -4   1  -2 50220.7 1712.16   6
   3  -4  -2 51966.2 1472.19  38
   3  -4  -1 113807. 2155.42  70
   1   3  -1 111436. 2338.87  69
  -4   1  -1 113920. 2436.74   6
  -4   1   0 28944.4 967.817  56
   1   3   0 31361.4 1193.49  69
   3  -4   0 30023.8 1072.36  37
   3  -4   0 28470.2 927.943  60
  -4   1   0 30826.7 1260.74   6
   3  -4   1 25909.2 1080.85  37
   3  -4   1 25109.2 799.382  67
   1   3   1 27635.6 1102.34  69
   1   3   2 272505. 3670.18  46
   3  -4   2 255809. 2919.63  67
   3  -4   2 259589. 3827.03  37
  -4   1   2 279923. 3654.43   5
   3  -4   2 255480. 3496.64  61
  -4   1   3 102921. 2498.23  58
   1   3   3 106467. 2925.07  44
  -4   1   3 102894. 2235.45   7
   1   3   3 104924. 2496.03  46
   1   3   3 110852. 2832.67  42
  -4   1   3 110236. 2763.45  16
   3  -4   3 114408. 2611.64  61
   1   3   4 22535.2 1366.93  44
   3  -4   4 23631.8 1208.16  23
  -4   1   4 25047.1 1155.13   7
   1   3   4 23836.0 1374.19  42
  -4   1   4 26937.1 1411.34  16
   3  -4   5 15581.3 876.726  23
  -4   1   5 15470.3 802.112   7
   3  -4   5 16058.0 1042.95  22
   1   3   5 16623.3 1034.73  42
   1   3   5 15591.6 787.552  54
   3  -3  -6 5572.48 384.292  33
  -3   0  -6 4933.50 346.941  33
   0   3  -6 4605.09 324.188  12
   0   3  -5 15387.9 854.135  10
  -3   0  -5 16798.1 884.009  33
   3  -3  -5 17344.8 899.860  41
  -3   0  -5 16836.1 943.475  34
   0   3  -4 50429.9 1570.17  41
   0   3  -4 49662.8 1693.87  10
   3  -3  -4 54985.9 1792.74  39
   3  -3  -4 49881.5 2048.09  64
  -3   0  -4 52525.6 1855.73  34
   3  -3  -4 52239.5 1764.58  35
  -3   0  -4 51576.3 1625.83  33
   0   3  -4 49787.2 1684.95  66
   0   3  -3 9709.88 744.129  52
   3  -3  -3 9956.40 690.620  39
   3  -3  -3 9519.80 688.791  38
   0   3  -3 8902.77 647.704  66
   3  -3  -3 9830.33 689.702  35
   3  -3  -3 9075.46 749.547  64
  -3   0  -3 9167.64 773.371   6
  -3   0  -2 494147. 5176.93   6
   3  -3  -2 486615. 4233.26  38
   0   3  -2 490286. 4812.76  52
   0   3  -2 484260. 4218.33  66
   0   3  -1 26975.4 1012.90  69
  -3   0  -1 27327.2 1097.64   6
   3  -3  -1 28957.0 944.205  70
   0   3   0 43161.1 1202.47  69
  -3   0   0 42482.8 1315.45   6
   3  -3   0 40874.7 1068.38  37
   3  -3   0 44593.4 1113.86  60
   0   3   1 174222. 2312.53  69
   3  -3   1 178238. 2075.75  67
   0   3   1 179310. 2343.53  46
  -3   0   1 173736. 2723.74   6
   3  -3   2 26609.9 938.672  67
   0   3   2 27109.8 1051.92  46
  -3   0   2 25587.5 1107.18   5
   3  -3   2 26621.2 1021.00  61
  -3   0   3 36220.8 1487.10   5
   3  -3   3 34310.4 1328.35  61
   0   3   3 32127.2 1295.19  46
   0   3   4 317891. 5088.10  44
   0   3   4 333262. 5568.07  43
   0   3   4 318186. 4862.64  42
   3  -3   4 333542. 4646.87  23
   0   3   4 329097. 4116.94  54
  -3   0   4 318157. 4296.32   7
  -3   0   4 332430. 4771.25  58
   0   3   4 312858. 4462.89  46
   0   3   5 2112.42 367.398  44
   0   3   5 2353.64 404.459  42
  -3   0   5 2261.10 341.322   7
   3  -3   5 2243.49 410.015  22
  -3   0   5 1930.04 285.146  20
   3  -3   5 1746.10 312.435  23
  -3   0   6 4913.15 355.106   7
   3  -3   6 4925.88 377.906  23
  -3   0   6 4569.10 413.655  43
   0   3   6 5159.26 435.554  42
  -2  -1  -6 100367. 1664.55  33
  -1   3  -6 99104.9 1674.38  12
   3  -2  -6 99454.6 1588.54  33
  -2  -1  -6 96959.5 1694.57  34
  -2  -1  -5 16404.8 878.036  33
  -2  -1  -5 17422.1 1018.38  34
  -1   3  -5 16903.7 929.764  12
   3  -2  -5 15809.0 913.230  41
  -1   3  -5 15831.3 840.118  10
  -1   3  -4 52041.5 1753.42  66
  -2  -1  -4 50237.6 1543.74  33
  -1   3  -4 48555.7 1500.86  40
   3  -2  -4 49449.2 1676.35  39
   3  -2  -4 46868.9 1989.75  64
  -1   3  -4 47987.1 1600.67  10
   3  -2  -4 49837.3 1646.33  35
  -1   3  -3 16798.7 962.655  52
  -1   3  -3 14521.5 715.931  40
   3  -2  -3 14928.3 789.450  35
   3  -2  -3 15707.0 831.892  39
   3  -2  -3 15543.4 846.982  38
  -1   3  -3 22765.8 1040.76  66
   3  -2  -3 25788.8 1266.42  64
  -2  -1  -3 16235.2 1091.28  36
  -1   3  -2 30109.3 853.555  40
   3  -2  -2 29498.5 981.582  38
  -2  -1  -2 33441.0 1374.29  36
  -1   3  -2 30966.5 1160.81  52
   3  -2  -2 35938.2 1177.65  64
  -1   3  -2 36719.5 1161.52  66
  -2  -1  -1 181483. 2509.39  62
  -2  -1  -1 180182. 2093.38  63
  -2  -1   0 524863. 3916.33  62
  -1   3   0 526584. 3475.18  45
   3  -2   0 530960. 3848.61  60
  -1   3   0 519612. 3735.29  69
  -2  -1   0 524690. 4188.02   6
  -1   3   1 56803.0 1144.58  46
   3  -2   1 57502.2 1315.60  60
   3  -2   1 54797.4 1143.66  67
  -2  -1   1 55685.3 1341.08   6
  -1   3   1 53944.8 1372.98  45
   3  -2   2 8306.17 514.680  67
  -1   3   2 8474.58 636.714  45
  -2  -1   2 13927.0 813.813   5
   3  -2   2 10484.9 623.148  68
   3  -2   2 8926.29 534.221  61
  -1   3   2 12668.7 680.213  58
  -2  -1   3 32022.8 1116.91   4
  -2  -1   3 32925.4 1369.88   5
  -1   3   3 33484.6 1301.00  58
  -1   3   4 57848.6 2137.38  44
   3  -2   4 59292.0 1949.50  23
  -1   3   4 59008.5 2255.15  43
  -2  -1   4 61049.3 1757.05  29
   3  -2   4 60817.7 2303.21  22
  -2  -1   4 60909.5 1897.69  20
  -2  -1   4 55800.6 1665.77   4
   3  -2   4 56045.8 1979.22  27
  -2  -1   4 59993.0 1957.97  58
  -1   3   5 31798.0 1470.26  44
  -1   3   5 34714.7 1743.55  43
  -1   3   5 33413.3 1510.73  42
   3  -2   5 36898.4 1733.76  22
  -2  -1   5 30551.5 1278.55   7
  -2  -1   5 34127.9 1376.79  20
   3  -2   5 32637.0 1418.47  23
  -2  -1   6 76251.7 1433.28   7
   3  -2   6 78657.2 1624.82  23
  -1   3   6 79555.1 1772.37  42
  -2  -1   6 79743.4 1544.74  20
  -1  -2  -6 41499.2 1178.20  34
   3  -1  -6 41711.5 1111.09  41
  -2   3  -6 38629.1 1035.80  12
  -1  -2  -6 40306.8 1035.25  33
   3  -1  -5 12349.6 786.042  41
  -2   3  -5 11335.4 761.157  12
  -1  -2  -5 12455.1 747.942  33
  -1  -2  -4 78011.9 2250.42  64
  -2   3  -4 79980.4 2206.88  66
  -2   3  -4 76692.2 1974.64  40
   3  -1  -4 71496.3 2495.89  64
   3  -1  -4 75508.0 2128.30  25
  -2   3  -4 81803.9 2003.06  10
  -1  -2  -4 79802.1 1896.96  33
  -1  -2  -4 79604.2 2689.37  36
  -2   3  -4 82218.4 2110.41  12
  -2   3  -3 2371.62 312.188  40
   3  -1  -3 2590.55 324.907  39
  -2   3  -3 6589.02 565.186  66
   3  -1  -3 6450.09 653.957  64
  -1  -2  -3 2670.54 453.089  36
   3  -1  -3 2258.41 287.214  35
  -2   3  -2 46036.2 1297.12  66
   3  -1  -2 46003.5 1131.65  39
   3  -1  -2 46903.0 1200.42  38
   3  -1  -2 41286.4 1343.86  64
  -1  -2  -2 45963.8 1256.09  63
  -1  -2  -2 46360.5 1358.52  62
  -2   3  -2 51134.9 1493.28  52
  -1  -2  -2 46456.0 1605.76  36
  -2   3  -1 78028.6 1307.16  56
  -2   3  -1 85372.4 1648.75  52
  -1  -2  -1 82130.2 1476.22  63
  -1  -2  -1 80695.2 1822.44  36
  -2   3  -1 81448.0 1494.61  66
   3  -1  -1 85590.2 1600.06  60
  -1  -2  -1 82676.5 1676.56  62
  -2   3   0 370854. 2884.50  52
   3  -1   0 371678. 3191.11   1
   3  -1   0 362283. 3301.00  60
  -1  -2   0 369864. 3339.15  62
   3  -1   1 19755.7 793.566  60
  -2   3   1 39182.2 892.556  58
   3  -1   1 21008.3 691.565  67
  -1  -2   1 47535.2 1268.13   3
  -2   3   1 23891.6 901.729  45
   3  -1   2 75260.7 1772.36  68
  -1  -2   2 63627.1 1710.19   5
  -2   3   2 66511.6 1460.00  58
   3  -1   2 73621.7 1480.29  67
  -2   3   2 70537.4 1825.03  45
  -1  -2   3 73926.1 2000.52   5
  -2   3   3 79288.2 1940.45  58
   3  -1   4 64168.0 2089.02  27
  -2   3   4 59508.6 1955.24  58
  -1  -2   4 64195.5 1998.92  20
   3  -1   4 64578.9 2020.91  23
  -2   3   4 63542.9 2246.13  44
  -2   3   4 66870.5 2355.50  43
   3  -1   4 68453.7 2441.36  22
  -1  -2   4 58488.3 1820.29   4
  -1  -2   4 61394.1 1868.27  29
  -1  -2   5 15030.7 949.041  20
   3  -1   5 14376.5 937.147  23
  -2   3   5 13129.8 941.728  44
  -2   3   5 14772.8 1112.64  43
  -1  -2   5 14315.0 834.408   7
   3  -1   6 72062.1 1561.13  23
  -2   3   6 70131.5 1592.81  42
   3   0  -6 4743.85 332.540  41
  -3   3  -6 4485.66 310.673  12
   0  -3  -6 5142.29 402.784  34
   3   0  -5 2248.06 345.845  25
   3   0  -5 2766.02 346.640  41
  -3   3  -5 2209.46 316.344  12
  -3   3  -5 2147.59 309.789  33
   0  -3  -5 2293.25 305.417  33
   3   0  -4 332713. 4599.70  24
   3   0  -4 314805. 3978.12  41
   3   0  -4 327552. 4548.78  25
  -3   3  -4 352088. 4363.48  12
  -3   3  -4 330638. 4448.10  66
  -3   3  -4 342793. 4255.76  33
   0  -3  -4 336525. 4990.46  64
   0  -3  -4 326581. 5621.94  36
   3   0  -3 33065.0 1129.74  39
  -3   3  -3 33188.5 1268.78  66
   0  -3  -3 32562.4 1608.03  36
   3   0  -2 25542.7 823.662  39
  -3   3  -2 25519.7 955.719  66
   0  -3  -2 28032.0 1036.90  63
   0  -3  -2 27542.2 1071.48  62
  -3   3  -2 24746.3 905.676  56
   0  -3  -2 25191.2 1224.03  36
   3   0  -1 171203. 2266.36  60
   3   0  -1 180806. 1904.12  38
   0  -3  -1 176385. 2580.99  62
  -3   3  -1 176693. 2317.20  56
   0  -3  -1 175804. 2710.02  36
   3   0   0 42549.4 1151.57  60
   0  -3   0 43614.1 1283.13   2
   0  -3   0 42889.3 1142.68  36
  -3   3   0 42355.5 1153.57  56
   3   0   1 27997.3 768.193  67
   0  -3   1 27912.7 1063.00   3
   0  -3   1 26279.0 844.946  61
  -3   3   1 25113.0 936.793  56
   3   0   1 28419.2 1048.99  68
   0  -3   2 524434. 4953.22   3
   3   0   2 478810. 3662.89  67
  -3   3   2 512755. 4940.62  45
   0  -3   2 483703. 4556.88   5
   3   0   2 497758. 4883.74  68
   0  -3   2 495967. 4450.43  61
  -3   3   2 487041. 4017.01  58
  -3   3   3 8132.02 709.406  45
   0  -3   3 8353.81 670.519  61
  -3   3   3 9372.31 683.737  58
   3   0   3 9381.67 753.343  68
   0  -3   4 51064.1 1738.23  29
   3   0   4 50860.0 1790.19  23
   3   0   4 52267.9 1900.79  42
   0  -3   4 49010.7 1755.89  20
  -3   3   4 48089.9 1752.30  58
  -3   3   4 50705.1 1638.36   7
   0  -3   4 48713.4 1692.71   4
   3   0   5 17384.2 999.375  23
  -3   3   5 16599.5 1033.14  44
  -3   3   5 16321.9 1110.28  43
   0  -3   5 16884.3 960.518  23
   3   0   5 16599.7 994.577  42
   0  -3   5 16645.3 963.463  20
   0  -3   5 17577.7 972.224  29
   3   0   6 5529.51 407.248  23
  -3   3   6 4971.88 451.802  43
   0  -3   6 4903.31 366.355  20
   1  -4  -5 10878.2 616.182  33
   3   1  -5 11052.8 608.913  41
  -4   3  -5 10521.4 610.035  12
  -4   3  -5 11254.0 689.936  33
   3   1  -4 24925.0 1265.19  25
  -4   3  -4 23940.7 1090.03  12
  -4   3  -4 24804.4 1190.57  33
  -4   3  -3 24022.7 1107.64  56
   3   1  -3 23195.2 1236.18  24
   3   1  -3 23516.3 1260.79  13
  -4   3  -3 25179.4 1158.36  33
  -4   3  -3 23968.7 1068.04  12
   3   1  -3 24366.0 1221.87  25
   1  -4  -3 24218.7 1467.33  36
   3   1  -2 362141. 5324.89  65
   1  -4  -2 354689. 4866.14  36
  -4   3  -2 363268. 4046.53  56
   3   1  -1 5732.09 494.999  69
   1  -4  -1 5144.71 503.148  36
  -4   3  -1 5160.63 459.304  56
   3   1  -1 6485.89 637.415  65
   1  -4   0 98289.4 2244.44   2
   3   1   0 132718. 2204.41  68
   1  -4   0 113506. 1741.23  70
  -4   3   0 117863. 2136.58  56
   3   1   1 33083.4 1220.49  68
   1  -4   1 32132.7 1059.06  61
  -4   3   1 33010.0 1183.67  56
  -4   3   2 14936.1 897.811  45
   3   1   2 14586.9 898.064  68
   1  -4   2 12023.8 747.512  61
   3   1   3 96698.0 2334.63  23
   3   1   3 95571.0 2598.62  42
   1  -4   3 94894.1 2375.33  61
  -4   3   3 90616.1 2146.32  57
  -4   3   3 91847.5 2212.22  58
   3   1   4 168547. 3237.39  23
  -4   3   4 171532. 2913.45   7
   1  -4   4 164180. 3052.58  20
   3   1   4 167825. 3550.09  42
   1  -4   4 164042. 3057.10  29
   3   1   5 1854.59 300.941  15
   3   1   5 2688.75 370.573  23
   1  -4   5 2167.46 334.362  23
  -4   3   5 2656.80 387.753  44
   1  -4   5 2605.52 341.516  29
   1  -4   5 2779.30 344.358  20
  -5   3  -5 8911.07 538.500  33
   3   2  -5 9809.55 572.242  10
   3   2  -4 42359.3 1545.32  13
  -5   3  -4 40968.5 1475.63  33
   3   2  -4 45243.2 1614.71  25
   3   2  -3 4991.29 608.506  13
   3   2  -3 5051.67 557.974  25
   3   2  -3 5514.29 751.793  65
  -5   3  -3 4774.51 445.659  50
  -5   3  -3 5146.61 546.164  33
  -5   3  -3 4726.89 541.583  17
  -5   3  -2 86787.4 1866.36  50
   3   2  -2 90168.9 2163.29  25
   3   2  -2 92770.9 2334.18  24
   3   2  -2 91943.8 2595.21  13
   2  -5  -2 87019.6 2572.28  36
  -5   3  -2 86967.0 2091.37  33
  -5   3  -2 92524.0 2365.04  17
  -5   3  -2 90899.8 2279.96  56
   3   2  -2 93755.8 2383.77  69
   3   2  -1 21176.4 1114.30  69
  -5   3  -1 19616.1 1011.24  56
   3   2   0 45037.0 1633.52  69
  -5   3   0 44736.7 1486.10  56
   2  -5   0 43123.7 1651.29   2
   2  -5   1 8977.44 681.962   3
   3   2   1 8470.62 717.019  69
   3   2   1 7873.28 630.984  68
   2  -5   1 8013.41 606.310  61
  -5   3   1 9164.58 690.833  56
   3   2   2 22248.0 1210.26  15
  -5   3   2 23797.6 1172.34  49
   3   2   2 22444.8 1279.42  21
   2  -5   2 21112.0 1129.88  37
   2  -5   2 19605.1 1048.60  61
  -5   3   2 27284.7 1320.89  16
  -5   3   2 24287.1 1213.97  45
   2  -5   3 10819.1 837.942  61
   3   2   3 11493.2 885.207  15
  -5   3   3 11816.2 806.790  57
  -5   3   3 13125.7 970.392  16
   3   2   4 50261.7 1738.00  15
   3   2   4 48699.4 1624.52   8
   2  -5   4 52115.1 1541.87  29
   2  -5   5 1774.68 264.068  23
   3   2   5 2184.91 272.520  54
  -6   3  -4 16470.1 798.367  33
   3   3  -4 17523.7 880.248  13
  -6   3  -4 14904.6 753.101  17
   3   3  -4 16569.3 782.456  10
   3   3  -3 15273.2 1014.19  13
  -6   3  -3 15074.9 873.874  33
  -6   3  -3 16878.1 1005.18  17
   3   3  -3 14257.7 807.102  10
  -6   3  -2 14189.8 751.968  50
  -6   3  -2 14015.9 846.936  33
   3   3  -2 15508.4 1040.68  14
  -6   3  -2 16045.9 1043.64  17
  -6   3  -1 3881.26 403.704  50
   3   3  -1 4786.13 595.609  69
  -6   3  -1 4311.21 458.840  48
   3   3  -1 4193.74 580.375  14
   3   3  -1 4275.68 548.041  13
  -6   3  -1 4568.20 552.536  17
  -6   3  -1 5079.37 556.839  56
   3   3   0 158093. 3138.54   8
  -6   3   0 145563. 2509.65  50
  -6   3   0 149607. 2679.30  48
   3   3   0 148999. 3413.80  14
   3  -6   0 158701. 3214.90  37
   3   3   0 160540. 3441.63  69
  -6   3   0 146294. 2951.73  56
  -6   3   1 23193.3 1021.66  50
  -6   3   1 24770.8 1214.43  49
   3   3   1 23398.2 1321.01  14
   3   3   1 23989.0 1315.05  69
   3  -6   1 21925.9 1105.84  61
   3   3   1 23097.1 1235.32   8
  -6   3   2 4604.27 537.898  49
   3   3   2 4623.43 488.486  54
  -6   3   2 5950.78 619.172  16
   3   3   2 4129.62 521.350   8
   3   3   3 48822.6 1718.44   8
  -6   3   3 45534.8 1525.50  57
  -6   3   3 55645.7 1860.66  16
   3   3   3 52293.9 1640.77  54
  -6   3   4 5141.22 409.533  57
   3   3   4 3930.03 400.818   8
   3  -6   4 4213.54 408.381  23
   3   3   4 4699.29 438.397  54
   3   4  -3 6502.33 552.715  13
  -7   3  -3 5994.91 432.658  48
  -7   3  -3 5336.31 476.741  17
   3   4  -2 5827.50 584.899  13
   3   4  -2 4757.27 483.122   9
  -7   3  -2 5428.66 555.544  17
  -7   3  -2 5403.71 471.099  48
   3   4  -1 5565.84 640.577  14
  -7   3  -1 4533.22 451.770  48
   3   4  -1 5553.01 570.920  13
   3   4   0 40078.8 1729.73  14
  -7   3   0 41588.6 1517.01  49
   3   4   0 40725.1 1553.56  55
  -7   3   1 9082.81 707.839  49
   3   4   1 8817.11 773.682  14
   3   4   1 8088.59 662.682   9
   3   4   2 58647.8 1565.91  54
  -7   3   2 59471.0 1672.24  57
   3   4   3 1562.71 254.924  55
  -7   3   3 1557.33 232.903  57
   3   4   3 1560.16 235.625  54
  -6   2  -4 1155.21 223.643  17
   2   4  -4 997.195 177.558  53
  -6   2  -4 1202.00 183.962  48
   2   4  -4 1239.09 206.295  10
  -6   2  -4 1159.12 192.598  33
  -6   2  -3 13438.4 748.158  48
  -6   2  -3 12898.1 745.445  33
   2   4  -3 14363.5 783.903  10
  -6   2  -3 14715.8 970.112  17
  -6   2  -2 141237. 2549.79  48
  -6   2  -2 147371. 3181.33  17
  -6   2  -2 138193. 3119.95  18
   2   4  -1 7700.60 789.874  14
   2   4  -1 8349.50 749.934  13
  -6   2  -1 7045.62 676.729  17
   2   4  -1 8364.71 800.488  69
  -6   2  -1 9231.99 845.774  32
  -6   2  -1 6911.93 628.303  56
  -6   2  -1 6948.40 568.808  48
  -6   2   0 18622.9 864.825  50
   4  -6   0 20472.8 1072.47  61
  -6   2   0 19158.7 950.625  48
   2   4   0 21379.5 1297.40  14
   2   4   0 22724.1 1304.74  69
  -6   2   0 20473.3 1130.90  17
   2   4   1 30871.4 1465.50   8
  -6   2   1 31057.0 1347.87  49
   2   4   1 29955.9 1478.53  14
   2   4   1 30688.6 1474.74  69
   4  -6   1 30159.3 1348.92  61
   2   4   2 14664.6 990.470   8
  -6   2   2 14185.3 932.395  49
  -6   2   2 15047.8 996.990  16
   2   4   2 14830.5 902.408  54
   2   4   3 25562.7 1212.15   8
   2   4   3 24443.0 1170.55  55
   2   4   3 26374.6 1180.12  54
   4  -6   4 120089. 1971.27  23
  -6   2   4 117089. 1866.96  57
   1   4  -5 1848.80 232.745  10
  -5   1  -5 1328.53 179.862  33
  -5   1  -5 1358.00 206.486  17
  -5   1  -4 34560.2 1198.68  33
   1   4  -4 35473.4 1327.73  10
   1   4  -3 8144.84 663.346  10
  -5   1  -3 7934.38 761.632  18
   1   4  -3 9040.33 810.371  13
  -5   1  -3 8015.45 604.783  33
   1   4  -2 17256.8 1108.29  52
   1   4  -2 17097.7 1111.96  13
   4  -5  -2 16887.0 966.941  38
  -5   1  -2 16722.2 1118.17  18
  -5   1  -2 15753.5 1084.81   6
  -5   1  -2 17787.1 1162.17  32
  -5   1  -2 17367.8 993.853  56
   1   4  -1 756.488 261.194  14
   1   4  -1 1659.81 340.205  69
  -5   1  -1 2268.29 401.338  18
   4  -5  -1 793.804 205.904  60
  -5   1  -1 929.626 230.160  17
  -5   1  -1 658.447 180.004  56
  -5   1  -1 1943.92 377.078   6
   4  -5   0 48966.9 1592.28  37
   1   4   0 51727.1 1814.90  69
  -5   1   0 49606.4 1873.43   6
  -5   1   1 2833.75 376.874  49
   1   4   1 3628.20 480.259   8
   4  -5   1 2891.34 423.787  37
   1   4   1 3210.01 440.392  69
  -5   1   1 2941.96 470.352  32
   1   4   2 16988.8 1047.24   8
  -5   1   2 15741.9 939.589  49
   1   4   2 18888.7 1248.58  44
   4  -5   2 16803.5 992.622  61
   1   4   2 18805.8 1032.17  54
  -5   1   2 18450.0 1133.01  16
   1   4   3 368.477 151.644  54
   1   4   3 157.276 106.586   8
   1   4   3 97.3808 90.9040  55
   4  -5   4 28061.6 1146.12  23
  -5   1   4 28443.0 1075.42   7
   1   4   4 30258.6 1254.57  54
  -5   1   5 4049.14 304.444   7
   4  -5   5 3975.76 326.651  23
   4  -5   5 3852.51 412.790  22
   1   4   5 3370.54 309.314  54
   4  -4  -5 3406.93 349.870  41
   0   4  -5 3398.68 361.870  10
  -4   0  -5 3259.11 328.080  33
  -4   0  -4 10476.6 687.639  33
  -4   0  -4 9800.61 793.184  34
   0   4  -4 9691.53 738.406  10
  -4   0  -4 10540.1 880.589  18
   0   4  -3 42393.6 1717.13  52
   4  -4  -3 47071.1 1653.61  39
   4  -4  -3 47215.1 1676.54  38
   4  -4  -3 45592.0 1621.27  35
  -4   0  -3 45943.9 1728.47  34
  -4   0  -3 39163.6 1742.77   6
  -4   0  -3 46268.2 1928.84  18
  -4   0  -3 44024.0 1863.52  32
   0   4  -3 44511.9 1584.10  10
   0   4  -2 17259.4 1043.70  52
   4  -4  -2 18465.2 990.653  38
  -4   0  -2 18348.4 1146.91   6
   0   4  -1 54871.9 1758.94  69
  -4   0  -1 55545.4 1866.97   6
   4  -4  -1 54948.8 1599.53  60
   0   4   0 283510. 3797.83  69
  -4   0   0 271537. 4020.38   6
   4  -4   0 277585. 3379.61  60
  -4   0   1 65512.8 1848.20   5
   0   4   1 70462.2 1802.55  69
   4  -4   1 67807.6 1537.01  67
   0   4   2 25327.0 1153.50  46
  -4   0   2 26124.0 1259.45   5
   4  -4   2 24503.8 1013.66  67
   4  -4   2 24077.4 1120.61  61
  -4   0   3 15905.2 1050.84   5
   0   4   3 18832.7 1080.17  46
   0   4   3 15593.7 1149.80  44
   0   4   3 16867.1 1060.66  42
   4  -4   3 16611.6 894.530  67
   4  -4   3 14546.6 934.633  61
   0   4   3 16571.5 982.851  54
  -4   0   3 15600.9 1059.61  16
   0   4   4 32924.3 1687.30  44
   4  -4   4 33427.2 1358.45  23
   0   4   4 35174.1 1542.35  42
   4  -4   4 33311.0 1653.10  22
  -4   0   4 33338.0 1332.28   7
  -4   0   4 35654.7 1573.79  16
   0   4   4 33373.6 1359.39  54
   4  -4   5 2278.09 311.247  27
   0   4   5 3087.85 413.496  44
   4  -4   5 2658.28 322.157  23
   4  -4   5 2890.92 417.131  22
  -4   0   5 3104.20 340.025   7
   4  -3  -5 1243.09 246.146  41
  -1   4  -5 935.865 193.504  12
  -3  -1  -5 1180.06 245.538  34
  -3  -1  -5 835.011 178.010  33
  -1   4  -5 928.412 198.461  10
  -1   4  -4 166182. 2885.28  12
  -1   4  -4 169560. 3084.02  10
  -3  -1  -4 172042. 3436.63  34
  -3  -1  -3 97463.9 2833.27   6
   4  -3  -3 104745. 2402.63  39
   4  -3  -3 106375. 2453.05  38
  -1   4  -3 101056. 2138.61  12
  -1   4  -3 98481.2 2586.93  52
   4  -3  -3 100707. 2322.58  35
  -1   4  -3 92938.9 2302.09  66
  -3  -1  -3 105962. 2574.31  34
  -1   4  -3 105559. 2402.55  10
  -1   4  -2 16387.3 887.044  66
  -3  -1  -2 14201.5 995.875   6
   4  -3  -2 13762.5 789.219  38
  -1   4  -2 13869.9 892.119  52
  -1   4  -1 34022.0 1278.83  52
   4  -3  -1 36573.4 1146.49  70
   4  -3  -1 34259.6 1231.54  60
  -3  -1  -1 34571.1 1395.16   6
  -1   4   0 119494. 2213.94  69
   4  -3   0 120234. 2238.80  60
  -3  -1   0 119843. 2445.25   6
   4  -3   1 4955.52 454.611  60
  -1   4   1 5001.84 497.149  45
   4  -3   1 5258.22 419.750  67
  -3  -1   1 5291.95 515.316   6
  -1   4   2 344812. 3905.35  46
  -3  -1   2 353303. 4729.00   5
   4  -3   2 382731. 4263.89  68
   4  -3   2 387122. 4147.95  61
   4  -3   2 376567. 3940.53  67
  -1   4   3 27042.7 1339.78  47
  -3  -1   3 38165.0 1623.93   5
  -1   4   3 33379.0 1365.39  46
  -1   4   3 33948.9 1638.06  44
   4  -3   3 28027.9 1488.13  22
   4  -3   3 24931.7 1128.37  67
  -3  -1   3 41518.2 1706.23  19
  -3  -1   3 37626.5 1516.74  30
  -1   4   3 27557.6 1216.51  54
  -3  -1   3 36546.0 1559.40  16
   4  -3   4 25323.4 1383.73  27
  -1   4   4 23456.0 1429.20  44
   4  -3   4 23392.3 1179.07  23
  -1   4   4 22802.4 1219.83  42
   4  -3   4 24288.4 1462.08  22
  -3  -1   4 24709.6 1150.97  20
  -3  -1   4 26721.7 1321.82  16
   4  -3   5 10939.7 734.376  27
  -1   4   5 11610.1 860.824  44
   4  -3   5 11854.2 736.556  23
  -1   4   5 11797.0 792.814  42
   4  -3   5 12094.4 918.055  22
  -3  -1   5 12647.1 762.071   7
  -3  -1   5 11891.5 687.656  20
   4  -2  -5 1375.04 246.373  41
  -2   4  -5 1338.35 239.826  12
  -2  -2  -5 1229.76 267.081  34
   4  -2  -4 47720.3 1732.74  25
   4  -2  -4 48430.8 1654.01  39
  -2   4  -4 46464.4 1582.42  12
  -2  -2  -4 49420.2 1843.40  34
  -2   4  -4 46193.1 1583.94  10
   4  -2  -3 39518.5 1335.49  35
   4  -2  -3 40227.3 1405.75  39
   4  -2  -3 39578.8 1438.00  38
  -2   4  -3 41730.1 1424.27  12
  -2  -2  -3 41780.9 1946.21  36
  -2   4  -3 37586.4 1477.14  66
  -2   4  -3 40358.2 1453.16  10
   4  -2  -3 36433.3 1412.49  60
  -2   4  -2 86627.1 2187.30  52
  -2  -2  -2 77523.9 1821.04  63
   4  -2  -2 81204.3 1809.12  38
  -2  -2  -2 84999.6 2489.93  36
   4  -2  -2 81254.9 1983.73  60
  -2   4  -2 78951.1 1948.33  66
  -2   4  -1 109454. 2206.32  52
  -2  -2  -1 106748. 2279.41  62
   4  -2  -1 111216. 2208.63  60
  -2   4   0 6443.90 490.446  45
  -2   4   0 6833.64 491.851  52
  -2  -2   0 6325.61 434.816  63
   4  -2   0 7228.94 559.716  60
  -2  -2   0 6754.54 545.480   6
  -2  -2   0 6478.72 538.674  62
   4  -2   1 8375.38 520.957  67
  -2  -2   1 7753.15 576.718  62
   4  -2   1 8193.21 596.136  60
  -2   4   2 24538.8 1236.18  45
   4  -2   2 24424.3 1145.67  68
   4  -2   2 25123.0 1004.47  67
   4  -2   3 19155.4 1183.64  27
  -2   4   3 17626.3 1054.70  47
  -2  -2   3 20266.0 1164.00   5
  -2   4   3 21625.1 1289.37  44
   4  -2   3 18538.6 1219.12  22
   4  -2   3 18560.7 1054.61  68
  -2  -2   3 21833.4 1233.78  19
  -2   4   3 19978.9 967.515  57
  -2  -2   3 21024.1 1149.80  30
   4  -2   3 19180.2 981.205  67
   4  -2   4 159579. 3076.79  23
  -2   4   4 153098. 3622.44  44
  -2   4   4 157618. 3500.46  43
  -2  -2   4 159744. 2880.41  29
  -2  -2   4 154122. 3083.43  20
   4  -2   5 13532.2 810.648  23
  -2   4   5 13182.6 930.575  44
  -2   4   5 13705.7 961.181  43
  -2  -2   5 12743.7 769.757   7
  -2  -2   5 14668.4 847.546  20
   4  -1  -5 16394.0 869.731  25
  -1  -3  -5 16672.1 952.402  34
   4  -1  -5 14602.5 753.354  41
  -3   4  -5 15016.9 787.101  12
   4  -1  -4 21147.9 1161.46  25
   4  -1  -4 22026.4 1207.30  24
  -3   4  -4 23295.1 1124.62  12
   4  -1  -3 115688. 2250.74  39
  -3   4  -3 117556. 2425.25  12
  -1  -3  -3 114047. 3249.48  36
  -3   4  -3 107603. 2522.24  66
   4  -1  -2 248928. 2892.67  39
   4  -1  -2 259177. 3115.34  38
  -1  -3  -2 271297. 4428.64  36
  -3   4  -2 252988. 3461.14  66
  -1  -3  -2 261599. 3523.24  63
  -1  -3  -2 249404. 3726.25  62
   4  -1  -2 238688. 3338.09  60
   4  -1  -1 24563.6 831.885  38
  -1  -3  -1 25535.1 1194.64  36
  -1  -3  -1 25808.3 1016.12  63
  -1  -3  -1 26881.6 1173.77  62
   4  -1  -1 26421.8 1086.12  60
  -3   4  -1 24048.1 925.492  56
  -1  -3  -1 23602.8 1065.67   2
  -1  -3   0 29409.8 1190.04  62
   4  -1   0 29643.0 1143.07  60
  -3   4   0 29038.1 1052.02  56
   4  -1   1 113042. 2300.73  60
  -1  -3   1 104409. 2193.61  62
  -3   4   1 114569. 2406.57  45
  -1  -3   1 103735. 2230.97   3
   4  -1   1 108007. 1841.15  67
  -1  -3   2 47368.4 1582.77   3
  -3   4   2 53660.7 1828.27  45
  -1  -3   2 45967.1 1652.42   5
   4  -1   2 54057.0 1768.68  68
   4  -1   2 50575.2 1384.00  67
  -3   4   3 26340.8 1142.30  57
   4  -1   3 16967.4 1104.82  27
  -3   4   3 19817.1 1109.38  47
  -1  -3   3 25073.2 1254.27   5
  -3   4   3 15345.0 1092.59  45
   4  -1   3 20522.7 1029.78  23
   4  -1   3 16647.6 1184.74  22
   4  -1   3 15526.1 1023.14  68
  -1  -3   3 27340.0 1345.19  19
  -3   4   3 23457.5 1102.37  58
  -1  -3   3 24812.9 1248.09  30
   4  -1   4 152825. 3010.23  23
  -3   4   4 156806. 3658.34  44
   4  -1   4 156197. 3378.96  27
  -1  -3   4 156261. 3167.62  20
  -1  -3   4 159661. 3039.82  29
   4  -1   5 17286.2 906.926  23
  -3   4   5 16299.7 1006.21  44
  -3   4   5 16761.9 1008.45  43
  -1  -3   5 16213.6 793.128   7
  -1  -3   5 18377.0 958.337  20
  -1  -3   5 17436.7 885.107  29
   4   0  -5 2628.18 333.483  25
   4   0  -5 2782.10 285.432  41
  -4   4  -5 2664.81 300.835  12
  -4   4  -5 2525.83 288.534  33
   4   0  -4 30058.9 1403.13  24
   4   0  -4 31162.4 1150.18  41
  -4   4  -4 32399.4 1293.79  12
  -4   4  -4 30693.3 1236.14  33
   4   0  -4 32305.2 1416.81  25
   4   0  -3 14410.7 1191.84  65
   4   0  -3 17381.9 1052.36  25
   4   0  -3 14310.4 986.646  24
  -4   4  -3 15903.9 904.537  12
   0  -4  -3 16282.9 1225.34  36
  -4   4  -3 15100.3 905.748  66
  -4   4  -3 14787.0 872.212  33
   0  -4  -2 24248.8 1360.20  36
   4   0  -2 26389.4 1457.91  65
   0  -4  -2 26969.2 1205.21  63
   0  -4  -2 27627.5 1277.82  62
  -4   4  -2 23496.7 1043.67  56
   0  -4  -1 64994.9 2019.75   2
   4   0  -1 61656.9 1624.20  60
   0  -4  -1 71257.5 2033.89  36
   4   0  -1 67674.2 1725.36  69
   0  -4  -1 71836.4 2026.11  62
  -4   4  -1 65889.5 1712.93  56
   4   0   0 267717. 3491.55  60
  -4   4   0 267593. 3523.24  56
  -4   4   1 52985.2 1637.49  56
   0  -4   1 55256.4 1750.70   3
   0  -4   2 17742.2 1028.24   3
  -4   4   2 18850.0 1125.44  45
   4   0   2 18377.8 1075.66  68
   0  -4   2 15768.1 876.545  61
  -4   4   3 39864.1 1580.86  47
  -4   4   3 41920.3 1799.59  45
   4   0   3 43826.5 1553.96  23
   4   0   3 40724.2 1874.60  21
   4   0   3 45284.2 1816.46  68
   0  -4   3 40395.4 1537.06  30
  -4   4   3 44198.3 1531.17  57
   4   0   4 10106.3 759.856  23
   0  -4   4 9690.83 742.623  29
   0  -4   4 9353.49 745.824  20
  -4   4   4 9766.80 666.489  57
   0  -4   5 3471.56 371.162  29
   4   0   5 3171.26 393.497  15
   4   0   5 3544.60 386.786  23
  -4   4   5 3254.33 419.906  44
   0  -4   5 3216.72 364.837  23
   0  -4   5 3244.04 369.380  20
  -5   4  -5 11238.0 547.247  33
   4   1  -5 11905.2 592.174  10
  -5   4  -4 34024.0 1143.84  50
   4   1  -4 35670.7 1391.81  25
  -5   4  -4 33232.5 1259.59  33
  -5   4  -3 5865.79 526.094  50
   4   1  -3 6929.79 653.923  25
   4   1  -3 7118.19 697.700  24
   4   1  -3 6011.84 665.113  13
  -5   4  -3 5942.51 577.049  33
   4   1  -2 26026.2 1498.48  26
  -5   4  -2 25308.9 1067.32  50
   4   1  -2 25086.8 1257.04  24
   1  -5  -2 23918.2 1386.73  36
   4   1  -2 24895.2 1171.34  25
  -5   4  -2 23823.0 1126.29  33
   1  -5  -2 27516.3 1269.05  63
   4   1  -2 26562.4 1569.36  65
  -5   4  -2 23208.4 1169.65  56
   4   1  -1 13396.9 1028.12  26
  -5   4  -1 13397.2 748.212  50
   1  -5  -1 14523.6 966.567  62
   4   1  -1 14084.3 898.247  69
  -5   4  -1 12996.8 856.199  56
   4   1   0 2633.78 400.647  69
  -5   4   0 2090.62 340.078  56
   4   1   1 84208.2 2286.32  15
  -5   4   1 91703.7 1969.47  50
   4   1   1 90740.3 2710.28  21
   4   1   1 89547.8 2309.93  68
  -5   4   1 85656.2 2241.16  56
  -5   4   1 86586.7 1914.85  53
   4   1   1 89037.7 2598.99  28
   1  -5   2 41054.0 1611.02   3
   4   1   2 43176.2 1731.08  15
  -5   4   2 44940.9 1766.62  45
   4   1   2 43017.3 1888.72  21
   4   1   2 43947.3 1751.98  68
   1  -5   2 41043.7 1507.22  61
  -5   4   2 43556.2 1538.89  57
   4   1   2 42780.6 1805.89  28
   4   1   3 15452.8 1054.95  15
   4   1   3 14790.4 1077.38  21
  -5   4   3 15518.8 936.185  57
   4   1   4 32964.7 1429.91  15
   1  -5   4 31033.0 1203.62  20
  -5   4   4 31290.0 1140.25  57
   1  -5   4 30474.3 1214.54  29
   4   1   5 1302.44 212.983  15
  -5   4   5 1534.84 249.908  44
   1  -5   5 1186.44 199.834  23
   1  -5   5 1174.01 172.960  20
   4   2  -4 31721.6 1124.93  13
  -6   4  -4 28712.9 1026.32  33
   4   2  -4 31429.2 1056.64  10
  -6   4  -3 22166.2 932.421  50
   4   2  -3 24108.7 1090.13  25
   4   2  -3 22463.5 1220.84  13
  -6   4  -3 22300.5 1066.42  33
  -6   4  -2 11441.5 719.662  50
   4   2  -2 11236.9 802.163  24
   4   2  -2 11621.4 945.599  13
  -6   4  -2 10966.5 826.451  17
  -6   4  -1 9175.23 648.927  50
  -6   4  -1 10684.3 718.181  48
   4   2  -1 10096.5 878.195  14
   4   2  -1 10345.3 850.919  69
   2  -6  -1 11945.8 850.903  63
  -6   4  -1 9905.14 792.932  56
  -6   4   0 172210. 2821.48  50
  -6   4   0 181965. 2907.33  48
   4   2   0 173646. 3665.80  14
   4   2   0 180916. 3631.23  69
  -6   4   0 165700. 3257.76  56
  -6   4   1 41785.1 1405.50  50
   2  -6   1 36698.9 1527.81   3
   4   2   1 40291.4 1596.73   8
   4   2   1 40064.6 1719.83  69
  -6   4   1 39472.3 1457.67  57
  -6   4   1 38199.5 1567.11  56
   4   2   2 46756.6 1828.95  15
  -6   4   2 41917.3 1553.37  49
   4   2   2 43231.0 1679.36   8
   4   2   3 44582.2 1691.00  15
   4   2   3 44784.9 1638.66   8
  -6   4   3 42370.0 1473.38  57
   4   2   4 1529.45 261.468  15
   4   2   4 1657.02 263.778   8
   2  -6   4 1374.82 208.829  29
  -6   4   4 1429.81 215.095  57
  -7   4  -3 2771.89 308.768  48
   4   3  -3 2994.01 373.536  13
  -7   4  -2 61334.7 1446.45  50
  -7   4  -2 61165.3 1628.24  48
   4   3  -2 62862.4 1945.46  13
  -7   4  -1 23509.8 974.325  50
  -7   4  -1 25297.8 1072.45  48
   4   3  -1 27809.1 1402.41  14
   4   3  -1 26442.8 1270.71  13
  -7   4   0 1771.60 274.980  50
  -7   4   0 1769.62 307.947  49
  -7   4   0 1314.61 250.512  48
   4   3   0 1705.78 359.761  14
   4   3   1 26472.9 1267.56   8
  -7   4   1 27033.9 1199.24  49
   4   3   1 25313.5 1326.56  14
  -7   4   1 24166.4 1082.50  57
   4   3   2 18789.3 1023.24   8
   4   3   2 18353.4 999.518  14
  -7   4   2 17773.6 914.577  57
   4   3   3 1611.97 267.463   8
  -7   4   3 2210.44 279.477  57
   4   3   3 2021.09 258.631  54
  -8   4  -2 3722.19 329.041  49
   4   4  -2 3148.00 291.174   9
   4   4  -1 944.297 191.730   9
  -8   4  -1 1181.94 205.064  49
   4   4  -1 960.619 181.608  13
  -8   4   0 8112.44 551.367  49
   4   4   0 8386.33 555.410  55
   4   4   0 7565.52 547.361   9
  -8   4   1 3946.57 372.187  49
  -8   4   1 4005.85 341.236  57
   4   4   1 4208.97 410.254  55
   4   4   1 4107.38 364.045   9
   4   4   2 42315.6 1186.63  55
  -8   4   2 37368.5 965.711  57
   3   5  -2 13087.9 571.453  53
  -8   3  -2 15951.4 644.146  49
   3   5  -1 631.734 134.426  53
   3   5  -1 836.965 174.926   9
  -8   3  -1 773.835 161.393  49
   3   5   0 956.013 191.110   9
  -8   3   0 1118.09 200.658  49
   3   5   0 1166.69 204.528  55
  -8   3   1 3919.10 362.868  49
  -8   3   1 5200.64 385.238  57
   3   5   1 4586.34 420.234  55
   3   5   1 4079.70 352.044   9
  -8   3   2 8287.47 444.189  57
   3   5   2 8577.80 515.550  55
   2   5  -3 7183.64 493.551  53
  -7   2  -3 7897.99 565.426  17
  -7   2  -2 10823.5 601.686  48
  -7   2  -2 11220.5 770.634  17
   2   5  -2 12321.4 741.953   9
  -7   2  -1 24191.3 1268.01  32
   2   5  -1 24296.0 1167.76   9
  -7   2   0 41539.8 1442.69  49
   2   5   0 40997.2 1552.97  55
   2   5   0 39089.2 1508.68   9
  -7   2   1 7461.34 608.064  49
   2   5   1 7329.72 668.655  55
   2   5   1 7517.78 621.936   9
   2   5   2 7307.58 633.912  55
   2   5   2 8074.50 585.546  54
   2   5   3 13034.1 672.123  54
  -7   2   3 12032.5 604.553  57
  -7   2   3 13237.4 693.930  16
   2   5   3 13328.8 690.916  55
   1   5  -4 35071.4 973.673  10
  -6   1  -4 36743.6 1195.83  17
  -6   1  -3 5781.13 589.804  18
   1   5  -3 4957.11 431.196  10
  -6   1  -3 5868.98 588.630  17
  -6   1  -2 47423.9 1889.24  18
  -6   1  -2 48410.6 1910.83  32
  -6   1  -2 47177.8 1730.66  17
   1   5  -2 44394.0 1588.95   9
  -6   1  -1 16667.9 850.505  48
  -6   1  -1 18296.1 1196.97  18
  -6   1  -1 18406.0 1225.40  32
  -6   1  -1 17772.9 1042.03  17
   1   5  -1 18706.6 1099.78   9
  -6   1   0 10529.3 743.809  49
  -6   1   0 10956.9 787.727  17
   1   5   0 10773.7 862.956  55
  -6   1   0 11232.4 959.584  32
   1   5   0 10528.8 830.036   9
  -6   1   1 45931.8 1564.80  49
   1   5   1 48522.6 1685.56  54
  -6   1   1 44183.1 1896.85  32
   1   5   1 46857.1 1840.53  55
   1   5   1 46709.9 1678.54   9
  -6   1   1 44042.0 1678.94  16
   1   5   2 31432.7 1349.58  54
   1   5   2 33601.3 1515.42  55
  -6   1   2 30241.7 1407.41  16
  -6   1   3 16214.4 980.341  16
   1   5   3 15364.1 883.067  55
   1   5   3 15831.4 908.211  54
   5  -6   4 7584.87 544.079  27
   1   5   4 8223.73 541.339  54
   5  -6   4 7975.78 560.104  22
  -6   1   4 9130.11 595.770  16
   0   5  -4 12052.5 655.574  11
   0   5  -4 12163.7 708.848  10
  -5   0  -4 12353.1 821.016  18
   0   5  -3 43873.0 1486.32  10
  -5   0  -3 46186.2 1894.85  18
  -5   0  -3 43674.6 1810.72  32
   0   5  -2 13871.1 784.424  11
   5  -5  -2 13700.4 962.389  60
  -5   0  -2 13981.2 1054.44  18
  -5   0  -2 13940.7 1086.82  32
   0   5  -2 12846.1 862.460   9
   0   5  -1 743.608 223.922   9
   0   5  -1 1051.59 277.319  52
  -5   0  -1 893.607 270.744   6
   5  -5  -1 761.681 215.211  60
  -5   0  -1 597.094 223.326  32
  -5   0  -1 713.792 199.194  17
   0   5  -1 816.772 226.451  55
   0   5   0 239397. 4008.65  69
   5  -5   0 251730. 3313.15  67
  -5   0   0 238717. 4299.67   6
  -5   0   0 237334. 4197.91  18
  -5   0   0 236861. 4313.11  32
  -5   0   0 246076. 4328.63  31
   0   5   0 243091. 4033.61  55
   0   5   0 231358. 3590.77  54
   0   5   0 242496. 3887.99   9
  -5   0   1 19851.4 976.606  49
   5  -5   1 21731.0 978.421  67
  -5   0   1 22269.4 1318.27  32
   0   5   1 21305.2 1226.58  55
   0   5   1 21210.6 1112.72   9
   0   5   1 20797.5 1121.90  54
   5  -5   2 21286.5 1012.23  67
   0   5   2 23321.7 1375.96  44
   5  -5   2 20306.0 1119.27  61
   0   5   2 20553.2 1192.74  55
   0   5   2 22237.8 1184.73  54
  -5   0   2 22294.8 1279.10  16
   0   5   3 44511.5 1914.03  44
   5  -5   3 47172.9 1822.55  22
   0   5   3 45187.3 1662.41  54
  -5   0   3 46902.1 1820.49  16
   5  -5   4 44075.9 1556.54  27
   0   5   4 48120.7 1799.57  44
   5  -5   4 45967.7 1642.89  22
  -5   0   4 42318.4 1216.90   7
   0   5   4 45117.4 1437.27  54
   5  -4  -5 1464.16 209.650  41
  -1   5  -5 1303.60 186.558  11
  -4  -1  -5 1090.77 197.431  18
  -4  -1  -4 31530.5 1343.27  34
  -1   5  -4 32134.8 1259.05  10
  -4  -1  -4 31897.7 1504.93  18
  -4  -1  -4 30113.6 1398.04  32
  -1   5  -3 14051.2 878.067  53
  -4  -1  -3 16337.3 1013.67  34
  -1   5  -3 15903.3 943.997  10
  -4  -1  -3 15799.8 1152.78  18
  -4  -1  -3 16177.3 1188.48  32
  -1   5  -2 40772.2 1539.98  53
  -1   5  -2 44874.3 1791.44  52
   5  -4  -2 46635.9 1673.50  38
  -1   5  -2 47049.7 1512.66  11
  -1   5  -2 44915.3 1508.45  10
   5  -4  -2 44296.1 1720.69  60
  -4  -1  -2 45314.1 1884.59  18
  -4  -1  -2 43977.2 1953.14  32
  -4  -1  -2 42319.3 1878.54   6
  -1   5  -1 84610.7 2142.84  53
  -1   5  -1 89251.7 2401.66  52
   5  -4  -1 90847.4 2335.47  60
  -4  -1  -1 87682.5 2457.81  18
  -4  -1  -1 87218.1 2585.82  32
  -4  -1  -1 88579.1 2563.78   6
  -1   5  -1 88089.3 2253.12   9
  -1   5   0 2138.11 348.084  52
  -4  -1   0 2323.78 401.763   6
   5  -4   0 2171.17 348.695  60
   5  -4   1 14235.0 796.837  67
  -4  -1   1 12573.0 926.333   6
   5  -4   1 13602.7 845.781  60
  -4  -1   1 13855.4 1063.05  31
  -1   5   1 14619.6 974.835  55
  -1   5   1 13757.7 898.340  54
  -1   5   2 23238.1 1295.21  47
  -1   5   2 24009.6 1117.15  46
  -1   5   2 25389.3 1393.16  44
  -4  -1   2 23711.9 1306.14   5
  -1   5   2 26082.6 1275.12  54
   5  -4   2 25884.4 1121.11  67
  -4  -1   2 24164.9 1285.36  19
   5  -4   2 26627.6 1222.46  61
  -4  -1   2 23592.4 1141.01  30
  -1   5   2 24266.1 1251.58  55
  -1   5   3 5757.02 693.630  44
   5  -4   3 7093.86 745.910  22
  -4  -1   3 5997.13 657.962  19
  -1   5   3 6885.30 659.955  54
  -4  -1   3 6091.71 665.915  16
   5  -4   4 34450.6 1507.09  27
  -1   5   4 34622.5 1636.49  44
   5  -4   4 34843.5 1584.96  22
  -4  -1   4 33267.1 1267.66   7
  -1   5   4 32471.9 1256.59  54
  -4  -1   4 37618.1 1473.69  16
   5  -4   5 10651.1 590.528  27
  -1   5   5 12030.5 729.121  44
  -4  -1   5 10819.0 554.833   7
   5  -3  -5 1046.59 195.180  41
  -2   5  -5 832.345 149.260  12
  -3  -2  -5 1281.83 227.616  34
  -2   5  -5 1009.00 168.413  11
  -3  -2  -5 1064.33 227.697  18
   5  -3  -4 49079.9 1704.61  25
  -2   5  -4 48069.5 1439.66  12
  -3  -2  -4 49762.5 1717.60  34
  -2   5  -4 50089.8 1548.87  11
  -2   5  -3 11438.4 807.524  10
  -2   5  -3 11431.8 725.366  12
   5  -3  -3 11985.6 830.893  39
  -3  -2  -3 11494.7 834.483  34
   5  -3  -3 11437.7 869.291  60
  -2   5  -3 10864.6 748.705  53
  -2   5  -2 23809.9 1277.31  52
  -2   5  -2 20263.0 1138.26  51
   5  -3  -2 21692.5 1069.25  38
  -3  -2  -2 21347.5 1033.69  34
  -2   5  -2 23301.0 1074.70  11
  -2   5  -2 25974.7 1149.65  10
   5  -3  -2 22148.0 1193.62  60
  -3  -2  -2 22588.9 1352.23   6
  -2   5  -2 21228.7 1076.09  53
  -2   5  -1 8216.87 697.499  52
  -3  -2  -1 8124.14 587.326  63
   5  -3  -1 8920.99 734.272  60
  -3  -2  -1 8034.43 742.806   6
  -2   5   0 43612.7 1464.93  52
  -3  -2   0 42413.9 1595.56  62
   5  -3   0 44661.1 1589.59  60
  -3  -2   0 44513.6 1635.17   6
  -2   5   1 18946.2 1082.87  45
   5  -3   1 20710.8 935.666  67
  -3  -2   1 18005.0 985.779  62
   5  -3   1 20066.8 1061.21  60
  -2   5   2 89117.2 2487.87  47
  -2   5   2 93217.5 2575.64  44
  -3  -2   2 94039.1 2669.27   5
   5  -3   2 96066.2 2458.86  68
   5  -3   2 95156.6 2168.07  67
  -3  -2   2 93751.0 2644.09  19
  -3  -2   2 95541.8 2793.09  31
  -3  -2   2 87189.0 2327.98  30
  -2   5   2 84831.4 2247.31  55
  -2   5   2 89465.2 2314.53  54
   5  -3   3 4899.76 629.601  27
  -2   5   3 5263.40 624.783  47
  -2   5   3 6362.23 726.202  44
   5  -3   3 5502.34 666.286  22
   5  -3   3 4453.58 498.865  67
  -3  -2   3 7457.87 758.818  19
  -3  -2   3 7197.96 693.608  30
  -2   5   3 4709.95 526.613  54
  -3  -2   3 6551.27 665.158  16
   5  -3   4 42121.7 1723.23  27
  -2   5   4 42730.5 1846.94  44
   5  -3   4 41980.5 1816.95  22
  -3  -2   4 40683.2 1429.11  20
  -2   5   5 9193.55 678.029  44
  -3  -2   5 9088.72 553.424   7
   5  -3   5 8356.76 636.146  21
  -3  -2   5 8728.16 502.059  20
   5  -2  -5 774.906 165.091  25
  -3   5  -5 822.551 159.284  12
   5  -2  -5 648.936 144.959  41
  -2  -3  -5 842.611 181.382  34
  -3   5  -5 551.474 115.425  11
   5  -2  -4 23625.6 1186.03  25
   5  -2  -4 24570.0 1219.01  24
  -3   5  -4 23268.2 1044.54  12
  -2  -3  -4 25411.6 1210.48  34
  -3   5  -4 22873.3 1000.25  11
  -3   5  -3 20444.0 1021.27  12
   5  -2  -3 19405.8 984.629  39
  -2  -3  -3 19193.1 1055.70  34
  -3   5  -3 20474.1 1016.37  11
  -3   5  -2 81772.1 1917.58  12
   5  -2  -2 83641.2 1892.59  39
   5  -2  -2 79793.2 1923.35  38
  -3   5  -2 87786.6 2026.56  11
  -2  -3  -2 81206.7 2098.34  63
   5  -2  -2 87981.6 2322.35  60
  -3   5  -2 81824.0 2074.75  53
  -3   5  -1 125364. 2687.02  52
  -2  -3  -1 110257. 2698.49   6
  -2  -3  -1 113935. 2338.17  63
  -2  -3  -1 119210. 2810.60  62
   5  -2  -1 120263. 2681.13  60
  -3   5   0 50675.5 1627.41  45
  -2  -3   0 52263.4 1518.88  63
  -2  -3   0 52835.9 1815.14  62
   5  -2   0 56430.5 1824.95  60
  -2  -3   0 49244.1 1636.09   6
  -3   5   1 16066.9 1023.97  45
  -2  -3   1 13701.9 841.549   3
   5  -2   1 16474.5 823.169  67
  -2  -3   1 14731.3 935.999  62
   5  -2   1 15251.0 956.910  60
   5  -2   2 21127.6 1208.05  27
  -3   5   2 21025.8 1213.43  47
  -3   5   2 22520.9 1326.66  45
  -3   5   2 20986.9 1208.78  44
  -2  -3   2 20709.0 1234.50   5
   5  -2   2 22543.0 1241.54  68
   5  -2   2 22558.3 1038.69  67
  -3   5   2 22308.8 1056.05  57
  -2  -3   2 22894.8 1324.40  31
  -3   5   2 20520.5 1079.71  54
   5  -2   3 14450.7 1063.95  27
  -3   5   3 13095.5 965.837  47
  -3   5   3 14543.9 1091.79  44
   5  -2   3 14445.5 1008.66  68
   5  -2   3 14657.4 882.393  67
  -2  -3   3 14671.0 1044.29  19
  -2  -3   3 13281.9 955.796  30
   5  -2   3 14174.8 1102.65  28
   5  -2   4 106564. 2728.01  27
  -3   5   4 102235. 2825.94  44
  -2  -3   4 101551. 2392.09  20
  -2  -3   4 99564.2 2156.31  29
   5  -2   5 16411.6 692.793  23
  -3   5   5 17285.8 918.129  44
  -2  -3   5 15913.7 704.478   7
  -2  -3   5 16850.1 764.937  20
  -4   5  -5 3202.13 279.260  50
   5  -1  -5 3633.97 339.744  25
   5  -1  -5 3043.20 256.176  41
  -1  -4  -5 3545.54 345.374  34
   5  -1  -4 30515.3 1296.67  25
   5  -1  -4 29082.9 1297.30  24
  -4   5  -4 28966.6 1152.47  12
   5  -1  -4 28434.1 1036.60  41
  -1  -4  -4 29147.0 1237.15  34
   5  -1  -3 1.56587 56.7209  26
   5  -1  -3 92.2538 98.8705  25
   5  -1  -3 64.2034 78.0068  24
  -4   5  -3 148.789 89.0378  12
  -4   5  -3 134.291 85.1751  11
   5  -1  -2 16279.3 1157.61  26
  -1  -4  -2 17792.1 1232.24  36
  -4   5  -2 17433.9 878.431  11
  -1  -4  -2 17354.9 1018.17  63
  -1  -4  -2 19349.3 1165.41  62
  -4   5  -2 17340.5 922.454  53
  -4   5  -1 2802.35 435.452  51
   5  -1  -1 2494.86 456.548  26
  -4   5  -1 2877.46 350.589  11
  -1  -4  -1 3879.94 462.361  63
  -1  -4  -1 3010.09 466.472  62
   5  -1  -1 3223.89 431.007  60
  -4   5  -1 2626.81 360.113  56
  -4   5  -1 2636.71 359.156  53
  -1  -4   0 48872.6 1823.23  62
   5  -1   0 49587.8 1736.43  60
  -4   5   0 44326.0 1561.01  56
   5  -1   1 973.207 278.009  28
  -4   5   1 2078.40 377.603  45
   5  -1   1 1614.94 382.160  21
   5  -1   1 809.384 240.259  68
  -1  -4   1 1539.68 316.300  62
   5  -1   2 16643.5 1064.04  27
  -4   5   2 18752.6 1155.39  47
  -4   5   2 16502.7 1134.21  45
  -1  -4   2 18149.4 1121.77   5
   5  -1   2 15481.7 1200.42  21
   5  -1   2 16584.3 1096.37  68
  -4   5   2 19897.4 1012.48  57
   5  -1   2 15351.1 1148.09  28
  -1  -4   2 20063.0 1125.20   3
  -4   5   3 8495.49 762.875  47
   5  -1   3 8351.76 885.026  21
  -1  -4   3 9162.99 771.638  19
  -4   5   3 9257.19 709.463  57
  -1  -4   3 8918.62 755.147  30
   5  -1   3 7788.83 788.670  28
  -4   5   4 36291.8 1626.46  44
   5  -1   4 32521.8 1556.19  21
  -1  -4   4 35536.0 1384.95  20
  -1  -4   4 35486.9 1312.37  29
   5  -1   5 1467.46 237.537  15
  -4   5   5 1561.44 258.778  44
  -1  -4   5 1432.16 213.002  20
  -5   5  -4 44452.7 1278.16  50
   5   0  -4 44784.3 1458.02  25
   5   0  -4 42777.8 1464.35  24
  -5   5  -3 43107.9 1437.07  50
   5   0  -3 42231.4 1590.77  25
   5   0  -3 42471.1 1665.02  24
  -5   5  -3 39690.7 1395.96  33
   5   0  -2 22511.6 1417.56  26
  -5   5  -2 21702.6 1023.89  50
   5   0  -2 22615.9 1160.30  25
   5   0  -2 22394.0 1226.31  24
   0  -5  -2 23375.4 1211.41  63
  -5   5  -2 22766.6 1027.13  53
   5   0  -1 21810.2 1381.18  26
  -5   5  -1 21285.5 981.333  50
   0  -5  -1 22769.9 1183.67  63
   0  -5  -1 20692.1 1249.97  62
  -5   5  -1 18660.3 1064.10  56
   5   0  -1 22255.9 1311.44  28
  -5   5  -1 20726.3 1005.75  53
   5   0   0 237013. 4304.39  26
  -5   5   0 247888. 3290.83  50
   5   0   0 250531. 4523.27  21
   5   0   0 233089. 3847.01  68
   0  -5   0 232827. 4135.57  62
  -5   5   0 225388. 3755.76  56
   5   0   0 250139. 4569.66  28
  -5   5   0 242306. 3364.41  53
  -5   5   1 702.430 177.903  53
  -5   5   1 721.957 178.040  50
   5   0   1 627.538 193.939  15
  -5   5   1 946.969 269.814  45
   5   0   1 940.989 296.154  21
   5   0   1 632.400 217.437  68
   0  -5   1 408.432 176.694  62
   0  -5   1 850.242 238.741   3
  -5   5   1 903.198 215.767  57
   5   0   1 724.801 259.462  28
   5   0   2 13917.7 980.549  15
  -5   5   2 14133.4 1004.45  47
   5   0   2 12358.4 1057.61  21
   5   0   2 14478.3 1045.83  68
   0  -5   2 10824.0 849.185  62
  -5   5   2 13858.3 870.340  57
   5   0   2 13702.6 1074.02  28
   5   0   3 45018.4 1759.91  15
  -5   5   3 43838.7 1671.50  47
   5   0   3 42107.1 1877.75  21
  -5   5   3 45267.5 1537.22  57
   0  -5   3 41448.5 1475.96  30
   5   0   4 11909.1 814.551  15
  -5   5   4 11954.4 867.753  44
   5   0   4 11577.6 811.219  21
   0  -5   4 12679.8 744.390  20
  -5   5   4 12580.6 681.635  57
   0  -5   4 11837.3 703.466  29
  -6   5  -4 10547.8 509.416  50
   5   1  -4 11020.8 598.509  25
   5   1  -4 10347.7 570.893  13
  -6   5  -3 2249.07 304.057  50
   5   1  -3 3503.46 402.875  25
   5   1  -3 2706.76 385.327  24
   5   1  -3 2454.66 389.571  13
  -6   5  -2 334.483 133.264  50
   5   1  -2 423.899 170.812  24
  -6   5  -1 23637.5 1059.54  50
  -6   5  -1 24214.3 1039.57  48
   5   1  -1 24694.6 1336.81  14
  -6   5  -1 25280.6 1101.35  53
   5   1   0 18990.3 1215.24  26
  -6   5   0 18264.5 927.302  50
  -6   5   0 19250.9 977.858  53
  -6   5   1 12115.4 752.924  50
   5   1   1 11125.0 816.412   8
   5   1   1 13101.0 1085.53  21
  -6   5   1 12792.8 803.843  57
   5   1   1 12190.1 1025.28  28
   5   1   2 116964. 2830.21  15
  -6   5   2 113031. 2749.44  47
   5   1   2 116939. 3126.66  21
  -6   5   2 114733. 2480.19  57
   5   1   3 8162.84 700.159  15
  -6   5   3 6808.28 597.351  47
   5   1   3 8283.87 742.268  21
   1  -6   3 7304.58 560.679  20
  -6   5   3 8091.43 611.427  57
   5   1   4 2208.35 302.704  15
   5   1   4 1258.02 218.691   8
  -6   5   4 4429.39 456.459  44
   1  -6   4 3849.72 322.272  20
  -6   5   4 4545.70 353.599  57
   1  -6   4 3903.37 337.811  29
  -7   5  -3 1956.79 222.791  50
  -7   5  -3 2010.80 244.664  48
   5   2  -3 2278.06 306.368  13
  -7   5  -2 74282.3 1646.48  50
  -7   5  -2 74307.0 1685.37  48
   5   2  -2 72496.2 2051.92  13
  -7   5  -1 9009.79 605.374  50
  -7   5  -1 9497.07 620.974  48
   5   2  -1 9858.34 804.912  14
   5   2  -1 9289.25 756.906  13
  -7   5   0 16556.3 836.684  50
  -7   5   0 16819.6 877.691  49
   5   2   0 17039.5 1105.13  14
   5   2   1 4638.81 494.774   8
  -7   5   1 4234.40 432.733  49
   5   2   1 3531.14 489.033  14
   5   2   2 2520.51 357.581   8
   5   2   2 2518.80 370.510  14
  -7   5   2 3163.31 406.686  47
   5   2   3 9913.46 624.980   8
  -7   5   3 9475.41 544.833  57
   2  -7   3 9596.15 509.889  29
   5   3  -2 3410.11 323.424  13
  -8   5  -1 6451.15 439.361  49
   5   3  -1 6248.78 453.244  13
  -8   5   0 36813.0 1072.37  49
   5   3   0 39795.3 1383.62  14
   5   3   0 37185.1 1114.96  55
   5   3   1 7479.27 565.940  14
  -8   5   1 7220.08 535.534  47
  -8   5   1 6591.79 404.798  57
   5   3   1 6709.46 443.797   9
  -8   5   2 2305.32 226.705  57
   5   3   2 671.683 147.454  55
  -8   2  -1 12131.4 534.855  49
   2   6  -1 13535.4 623.165   9
  -8   2   0 17622.5 692.297  49
   2   6   0 18141.4 731.819  55
  -8   2   1 6336.15 386.236  57
   2   6   1 6429.81 450.606  55
  -7   1  -3 19038.9 740.898  17
   1   6  -3 19164.7 691.041  53
   1   6  -2 29065.3 1053.69  53
  -7   1  -2 29313.3 924.819  49
  -7   1  -2 27930.9 1155.77  32
  -7   1  -2 29849.6 1093.73  17
   1   6  -1 435.169 135.870  53
   1   6  -1 679.502 179.662   9
  -7   1  -1 630.221 151.741  49
  -7   1  -1 869.970 240.340  32
  -7   1   0 92008.0 1902.95  49
  -7   1   0 97741.5 2530.24  32
   1   6   0 95670.1 2256.97  55
   1   6   0 98729.5 2260.01   9
  -7   1   1 3131.08 348.971  49
   1   6   1 3844.60 460.599  55
   1   6   2 7456.64 586.416  55
   1   6   2 7738.54 538.409  54
  -7   1   2 9023.74 605.281  16
   6  -7   3 8197.08 497.294  27
  -7   1   3 9435.37 451.267  57
  -7   1   3 10071.0 531.439  16
   1   6   3 7431.98 450.591  54
  -6   0  -3 15888.2 919.420  18
  -6   0  -3 14125.7 833.886  32
  -6   0  -3 15480.7 827.616  17
   0   6  -3 15129.5 767.450  53
   0   6  -2 4743.86 501.995  53
  -6   0  -2 4548.49 562.336  18
  -6   0  -2 5055.07 601.306  32
  -6   0  -2 4266.46 468.541  17
   0   6  -1 54080.8 1723.10  53
  -6   0  -1 58284.2 2073.05  18
  -6   0  -1 60330.6 2173.05  32
  -6   0  -1 52702.3 1618.30  17
   0   6  -1 54483.4 1767.81  55
   0   6  -1 60156.2 1916.14   9
  -6   0   0 8289.81 702.966  16
  -6   0   0 9064.69 838.248  32
   0   6   0 10067.5 825.955  55
   0   6   0 9595.80 784.767   9
   0   6   0 8891.62 665.136  53
  -6   0   1 7830.55 698.398  16
  -6   0   1 8341.79 776.836  32
   0   6   1 9310.25 804.978  55
   0   6   1 8808.43 714.609  54
   0   6   2 117081. 2675.90  55
   0   6   2 114284. 2508.65  54
   6  -6   3 2392.22 341.610  27
   0   6   3 1770.07 263.574  55
   0   6   3 2028.14 302.898  54
  -6   0   3 2123.95 321.020  16
  -1   6  -4 710.863 138.589  11
  -5  -1  -4 578.509 163.686  18
  -1   6  -3 7782.29 547.437  11
  -5  -1  -3 8051.16 736.028  18
  -5  -1  -3 8516.18 765.838  32
  -1   6  -3 7629.28 593.614  53
  -1   6  -2 119047. 2254.29  11
  -5  -1  -2 116765. 3005.12  18
  -5  -1  -2 122818. 3191.47  32
  -1   6  -2 114089. 2576.06  53
  -1   6  -1 10697.4 804.196  53
  -5  -1  -1 10999.6 906.953  18
  -5  -1  -1 11797.3 987.894  32
  -5  -1  -1 12443.3 997.854  31
  -1   6  -1 10710.4 829.076  55
  -1   6   0 19046.2 1148.75  51
  -5  -1   0 16847.4 1109.86  18
  -5  -1   0 17165.5 1167.86  32
  -5  -1   0 19512.1 1282.61  31
  -1   6   0 18970.5 1169.48  55
  -1   6   0 17595.5 978.359  53
  -5  -1   1 25188.1 1365.90  32
  -5  -1   1 28184.1 1541.66  31
  -1   6   1 27002.4 1408.35  55
  -1   6   1 26006.4 1307.23  54
  -5  -1   2 4248.65 545.630  16
  -1   6   2 3809.44 513.110  44
  -5  -1   2 5665.33 585.538  19
  -1   6   2 517.644 206.993  55
  -1   6   2 886.519 243.426  54
   6  -5   3 2224.41 370.163  27
  -1   6   3 4107.17 521.176  44
  -1   6   3 2524.86 373.033  54
  -5  -1   3 4565.52 520.261  16
   6  -5   4 10133.7 636.005  27
  -5  -1   4 9475.24 485.738   7
  -5  -1   4 11468.4 640.150  16
  -1   6   4 9694.01 559.446  54
   6  -4  -4 1759.02 272.439  25
  -2   6  -4 1523.79 225.667  11
  -4  -2  -4 1600.72 295.981  18
  -4  -2  -4 1645.80 297.030  32
  -2   6  -3 45933.5 1447.60  11
  -4  -2  -3 46120.5 1839.94  18
  -4  -2  -3 45317.8 1902.42  32
  -2   6  -3 42690.1 1413.94  53
  -2   6  -2 41981.5 1438.80  11
  -4  -2  -2 42865.7 1806.39  18
  -4  -2  -2 42425.9 1918.50  32
  -2   6  -2 39859.8 1544.27  53
  -2   6  -1 40852.6 1690.56  52
  -2   6  -1 43097.2 1714.74  51
  -2   6  -1 43916.9 1441.71  11
   6  -4  -1 45827.3 1790.42  60
  -4  -2  -1 41398.3 1720.66  18
  -4  -2  -1 40979.4 1813.05   6
  -4  -2  -1 40634.1 1822.55  32
  -2   6  -1 42417.6 1598.13  53
  -2   6   0 179818. 3591.74  51
  -4  -2   0 170748. 3534.94   6
  -4  -2   0 172141. 3365.30  18
   6  -4   0 181084. 3457.31  60
  -4  -2   0 178055. 3634.90  32
  -4  -2   0 173015. 3961.37  31
  -2   6   0 180019. 3611.28  55
  -2   6   0 180549. 3093.37  53
  -2   6   1 11578.5 875.684  47
   6  -4   1 10508.5 728.925  67
   6  -4   1 10053.6 791.737  60
  -4  -2   1 11059.8 991.104  31
  -2   6   1 9888.72 850.724  55
  -4  -2   1 12148.9 827.134  30
  -2   6   1 12581.2 917.525  54
   6  -4   2 11709.2 904.696  27
  -2   6   2 10390.4 875.858  47
  -2   6   2 11963.0 920.705  44
  -4  -2   2 12194.7 935.247  19
  -4  -2   2 11683.9 822.296  30
  -2   6   2 11211.2 854.054  55
  -2   6   2 11331.0 862.668  54
   6  -4   3 24082.6 1281.98  27
  -2   6   3 24909.5 1330.45  44
  -4  -2   3 26982.8 1328.09  19
  -4  -2   3 23461.1 1130.68  30
  -2   6   3 22574.0 1122.54  54
  -4  -2   3 23331.3 1185.18  16
  -2   6   4 43879.2 1568.58  44
  -4  -2   4 45066.9 1265.24   7
   6  -3  -4 3807.53 421.914  25
  -3  -3  -4 3083.89 343.052  34
  -3   6  -4 3418.02 340.235  11
  -3  -3  -4 3562.08 455.120  18
  -3  -3  -4 3585.10 467.360  32
  -3   6  -3 53437.0 1587.79  11
  -3  -3  -3 53542.8 1973.44  18
  -3   6  -3 48621.5 1479.28  53
   6  -3  -2 3377.59 524.663  26
  -3   6  -2 3643.29 429.427  11
  -3  -3  -2 4278.62 559.835  18
  -3   6  -2 3911.41 472.082  53
  -3   6  -1 23163.2 1243.53  52
  -3   6  -1 20750.0 1222.24  51
   6  -3  -1 21546.2 1036.50  38
  -3   6  -1 25111.2 1113.79  11
  -3  -3  -1 20403.2 1031.22  63
   6  -3  -1 24184.3 1311.93  60
  -3  -3  -1 23734.3 1251.64  18
  -3  -3  -1 23279.9 1346.79  32
  -3  -3  -1 21708.5 1285.59   6
  -3   6  -1 23991.8 1181.79  53
  -3   6   0 153280. 3319.79  51
  -3  -3   0 157975. 3397.14  62
   6  -3   0 159289. 3334.63  60
  -3   6   0 154209. 2828.37  53
  -3   6   1 5075.67 607.123  51
  -3   6   1 5500.83 614.395  47
   6  -3   1 4399.97 614.035  21
   6  -3   1 4548.96 478.617  67
   6  -3   1 4619.12 560.964  60
  -3  -3   1 4993.90 669.120  31
   6  -3   2 15808.2 1045.79  27
  -3   6   2 14877.1 1047.82  47
  -3  -3   2 14182.0 1037.83  19
  -3  -3   2 15028.4 1102.16  31
  -3  -3   2 13575.7 943.634  30
   6  -3   3 16606.1 1072.96  27
  -3   6   3 15037.4 916.319  51
  -3   6   3 17151.0 1085.96  47
  -3   6   3 18637.2 1155.21  44
  -3  -3   3 21141.7 1191.79  19
  -3  -3   3 21141.4 1121.81  30
   6  -3   3 13788.7 1061.63  28
  -3   6   4 16191.6 971.591  44
   6  -3   4 15623.3 1013.97  21
  -3  -3   4 15944.8 759.654  20
  -4   6  -4 132962. 2065.71  50
   6  -2  -4 141004. 2455.94  25
   6  -2  -4 143115. 2475.28  24
   6  -2  -4 127744. 1900.93  41
  -4   6  -4 123001. 1861.16  11
  -2  -4  -4 127614. 2058.39  34
   6  -2  -3 27159.4 1367.86  26
   6  -2  -3 23292.2 1220.03  24
  -4   6  -3 25733.1 1055.05  11
   6  -2  -2 13322.9 1067.69  26
  -4   6  -2 14945.8 817.170  50
  -4   6  -2 14629.8 846.613  11
  -4   6  -2 14288.8 864.600  53
  -4   6  -1 28799.5 1451.34  51
  -2  -4  -1 29326.8 1303.28  63
  -2  -4  -1 30956.7 1560.38  62
   6  -2  -1 29881.5 1438.50  60
  -4   6  -1 30184.0 1288.06  53
  -4   6   0 21071.6 1232.69  51
  -2  -4   0 20231.5 1241.48  62
   6  -2   0 19755.9 1192.32  60
  -4   6   0 20343.4 1024.40  53
   6  -2   0 19401.7 1311.95  28
  -4   6   1 8290.85 761.440  51
  -4   6   1 9747.36 824.787  47
  -4   6   1 8044.97 785.679  45
   6  -2   1 7478.61 810.421  21
   6  -2   1 8151.17 799.336  68
   6  -2   1 7784.51 608.804  67
  -2  -4   1 7286.66 715.570  62
  -2  -4   1 9382.49 885.570  31
  -4   6   1 7137.76 562.713  53
   6  -2   1 6781.69 796.920  28
  -4   6   2 139757. 3200.36  47
   6  -2   2 139134. 3637.14  21
   6  -2   2 143603. 3635.78  28
  -4   6   3 15771.8 1013.03  47
  -4   6   3 18279.6 1125.56  44
   6  -2   3 13509.5 1083.92  21
  -2  -4   3 18859.8 1071.26  19
  -2  -4   3 17933.9 1015.14  30
   6  -2   3 13650.9 1014.54  28
   6  -2   4 1107.27 226.049  15
  -4   6   4 1009.64 236.455  44
   6  -2   4 1222.13 272.282  21
  -2  -4   4 1322.65 227.913  20
  -2  -4   4 1169.87 189.151  29
  -5   6  -4 6889.34 436.329  50
   6  -1  -4 7436.57 513.732  25
   6  -1  -4 7737.38 539.136  24
  -5   6  -3 15736.3 809.828  50
   6  -1  -3 15332.8 893.779  25
   6  -1  -3 15524.8 937.406  24
   6  -1  -2 34465.7 1720.80  26
  -5   6  -2 34049.9 1245.60  50
  -5   6  -2 34493.1 1280.20  53
   6  -1  -1 47332.0 2076.50  26
  -5   6  -1 45166.1 1426.36  50
   6  -1  -1 48445.1 1910.31  28
  -5   6  -1 45831.9 1555.02  53
  -5   6   0 10906.5 675.428  50
   6  -1   0 9992.13 929.066  26
  -5   6   0 11526.4 855.391  47
   6  -1   0 12400.7 1003.79  21
   6  -1   0 10468.8 970.488  28
  -5   6   0 11393.8 765.230  53
  -5   6   1 17257.4 1044.04  51
  -5   6   1 17866.2 1125.20  47
   6  -1   1 17096.9 1235.69  21
  -5   6   1 18893.5 954.473  57
  -5   6   1 18188.4 912.183  53
   6  -1   1 18093.2 1279.58  28
   6  -1   2 47644.9 1681.22  15
  -5   6   2 52644.3 1933.64  47
   6  -1   2 45414.9 2002.08  21
  -1  -5   2 54034.7 1825.07  19
  -5   6   2 55905.0 1688.27  57
   6  -1   2 45229.3 1953.54  28
   6  -1   3 5838.93 565.639  15
  -5   6   3 5227.15 549.603  47
  -5   6   3 7020.03 664.241  44
   6  -1   3 5317.85 634.866  21
  -1  -5   3 5665.03 520.108  30
   6  -1   3 5602.10 598.829  28
   6  -1   4 34375.3 1156.58  15
  -5   6   4 34277.5 1241.61  44
   6  -1   4 32521.1 1220.94  21
  -1  -5   4 32692.2 1032.56  20
  -1  -5   4 31063.6 930.318  29
  -6   6  -3 2013.27 263.246  50
   6   0  -3 2262.30 291.445  25
  -6   6  -3 2352.82 259.899  48
   6   0  -3 2022.05 304.029  24
   6   0  -3 2138.24 325.562  13
  -6   6  -2 122828. 2283.68  50
   6   0  -2 119794. 2553.67  24
  -6   6  -2 125520. 2203.49  53
   6   0  -1 8250.10 837.024  26
  -6   6  -1 8024.02 595.135  50
   6   0  -1 8645.30 682.052  24
  -6   6  -1 9442.92 673.072  53
   6   0   0 8945.29 829.085  26
  -6   6   0 9038.87 619.895  50
  -6   6   0 8960.71 751.722  47
   6   0   0 8554.47 848.714  28
  -6   6   0 8962.85 655.770  53
  -6   6   1 57688.4 1516.56  50
  -6   6   1 59482.7 2007.94  47
   6   0   1 64069.2 2330.60  21
  -6   6   1 59920.5 1646.07  57
   6   0   1 57479.1 2194.66  28
   6   0   2 4422.78 492.868  15
  -6   6   2 4225.51 512.271  47
   6   0   2 5136.73 635.296  21
  -6   6   2 4790.54 467.982  57
   0  -6   2 3616.92 424.063  30
   6   0   2 4916.27 598.769  28
   6   0   3 16320.7 867.417  15
  -6   6   3 14032.9 798.621  47
  -6   6   3 15859.1 894.090  44
   6   0   3 15475.3 956.726  21
   0  -6   3 14588.1 744.991  20
  -6   6   3 15906.1 771.294  57
  -7   6  -3 19247.3 635.701  50
   6   1  -3 19115.7 767.375  13
  -7   6  -2 13671.3 661.600  50
  -7   6  -2 12240.6 569.251  48
   6   1  -2 13047.6 809.930  13
  -7   6  -1 9743.41 598.291  50
   6   1  -1 8832.49 695.503  14
  -7   6  -1 9039.63 635.898  47
   6   1  -1 9570.82 735.256  13
  -7   6   0 198132. 2707.55  50
  -7   6   0 190803. 3255.79  47
   6   1   0 198685. 3559.93  14
  -7   6   1 6211.14 589.631  47
   6   1   1 5615.22 584.340  14
  -7   6   1 5642.74 444.611  57
   6   1   2 14589.6 753.126   8
  -7   6   2 15219.6 833.494  47
   6   1   2 13714.4 808.767  14
  -7   6   2 16627.0 756.125  57
   6   1   3 12132.4 591.422   8
  -7   6   3 13446.0 566.123  57
   1  -7   3 13214.6 548.415  29
  -8   6  -1 6625.99 387.549  50
   6   2  -1 6763.06 466.490  14
   6   2   0 1804.35 271.490  14
  -8   6   0 3044.80 333.380  47
   6   2   1 6328.56 476.072  14
  -8   6   1 6806.32 479.320  47
  -7   0  -2 45801.5 1250.68  32
   0   7  -2 45190.4 1062.37  53
  -7   0  -1 1641.50 279.403  32
   0   7  -1 1662.31 223.438  53
  -7   0   0 14357.6 826.944  32
   0   7   0 14114.1 752.459  55
   0   7   1 19735.5 825.234  51
   0   7   1 22217.5 949.394  55
  -7   0   1 22019.2 847.727  16
   0   7   2 1083.17 179.017  51
   0   7   2 782.339 155.827  55
  -7   0   2 913.756 160.640  16
  -6  -1  -3 12506.8 662.382  18
  -1   7  -3 11553.6 516.689  53
  -6  -1  -2 14125.1 850.624  18
  -6  -1  -2 14639.0 890.590  32
  -1   7  -2 13610.3 717.664  53
  -6  -1  -1 6151.06 618.342  32
  -1   7  -1 5926.17 504.702  53
  -1   7   0 189645. 3124.85  51
  -6  -1   0 185021. 3360.26  32
  -1   7   0 193384. 3305.07  55
  -1   7   0 188886. 2702.51  53
  -6  -1   1 8787.54 672.424  16
  -1   7   1 9764.71 728.707  51
  -6  -1   1 8625.44 664.635  32
  -1   7   1 9221.33 719.161  55
  -1   7   2 13786.1 810.430  51
  -1   7   2 12206.0 735.657  55
  -6  -1   2 13261.5 764.774  16
  -1   7   3 20230.4 807.651  51
  -6  -1   3 19250.9 760.508  16
  -5  -2  -3 10428.1 690.411  18
  -5  -2  -3 9705.36 687.170  32
  -2   7  -3 9746.12 538.847  53
  -5  -2  -2 2455.17 374.720  18
  -5  -2  -2 2954.30 441.041  32
  -2   7  -2 2387.92 331.099  53
  -2   7  -1 3075.76 418.959  51
  -5  -2  -1 3698.04 477.050  18
  -5  -2  -1 3402.57 484.470  32
  -2   7  -1 4193.68 456.836  53
  -2   7   0 17141.3 1066.04  51
  -5  -2   0 16911.2 1048.78  32
  -5  -2   0 20285.8 1240.76  31
  -2   7   0 16783.2 871.068  53
  -2   7   1 10158.1 815.540  51
  -5  -2   1 8752.69 693.511  19
  -5  -2   1 9470.86 831.489  31
  -5  -2   2 62933.4 1851.16  16
  -5  -2   2 63464.6 1762.03  19
   7  -5   3 2171.00 289.955  27
  -2   7   3 2003.01 287.388  51
   7  -5   3 2109.68 329.833  21
   7  -5   3 1964.91 315.453  28
   7  -4  -3 1517.13 259.427  24
  -3   7  -3 1517.74 227.094  11
  -4  -3  -3 1880.85 301.062  18
  -4  -3  -3 2000.74 332.221  32
  -3   7  -3 1406.89 209.412  53
   7  -4  -2 18770.0 1133.79  26
  -4  -3  -2 19132.3 1059.16  18
  -4  -3  -2 18042.4 1107.75  32
  -4  -3  -2 17235.1 1110.60  31
  -3   7  -2 18847.4 939.765  53
  -3   7  -1 24752.7 1275.96  51
  -4  -3  -1 23986.0 1197.37  18
  -4  -3  -1 24763.5 1307.74  32
  -4  -3  -1 24350.5 1420.73  31
  -3   7  -1 25958.4 1168.55  53
   7  -4   0 1513.61 346.827  28
  -3   7   0 1832.36 363.049  51
  -3   7   0 1614.95 284.418  53
  -3   7   1 27589.0 1395.07  51
  -3   7   1 24830.6 1203.31  47
  -4  -3   1 24981.2 1403.13  31
  -4  -3   1 22267.7 1071.41  30
   7  -4   1 24272.5 1432.56  28
   7  -4   2 60299.9 1728.89  27
  -4  -3   2 57138.6 1782.21  16
  -3   7   2 60837.3 1913.33  51
  -3   7   2 58914.8 1878.78  47
   7  -4   2 57970.5 2020.81  21
  -4  -3   2 59089.5 1862.03  19
  -4  -3   2 59619.3 1676.68  30
   7  -4   2 60387.2 2188.08  28
  -3   7   3 2921.11 342.133  51
  -3   7   3 2632.82 332.243  44
   7  -4   3 2824.07 410.239  21
  -4  -3   3 2632.89 310.726  16
   7  -4   3 2951.89 400.437  28
  -4   7  -3 1519.90 198.612  50
   7  -3  -3 1859.44 289.771  25
   7  -3  -3 1642.75 275.879  24
  -3  -4  -3 1376.12 244.764  18
  -3  -4  -3 1281.60 267.499  32
  -4   7  -3 1411.43 198.413  53
   7  -3  -2 56625.4 2019.36  26
  -3  -4  -2 57571.9 1936.73  32
  -4   7  -2 58245.5 1610.89  53
   7  -3  -1 8022.46 821.360  26
  -3  -4  -1 8308.10 729.470  32
  -4   7  -1 8540.77 656.641  53
  -4   7   0 38207.1 1641.50  51
  -3  -4   0 35669.8 1746.56  31
  -4   7   0 40597.3 1396.72  53
   7  -3   0 39052.6 1749.07  28
  -4   7   1 5533.15 607.292  51
  -4   7   1 5558.16 577.835  47
   7  -3   1 4688.35 579.384  21
  -3  -4   1 6158.79 686.620  31
  -4   7   1 4691.43 430.702  53
   7  -3   1 4193.05 589.886  28
  -4   7   2 4903.91 514.791  51
  -4   7   2 6365.02 621.350  47
   7  -3   2 5036.73 606.599  21
  -3  -4   2 6771.67 637.060  19
  -3  -4   2 7189.99 610.056  30
   7  -3   2 5418.53 646.713  28
  -4   7   3 5215.14 499.791  47
  -4   7   3 4968.34 458.874  44
   7  -3   3 5032.78 549.819  21
  -3  -4   3 5237.23 417.175  20
  -3  -4   3 5587.21 492.646  19
  -3  -4   3 5085.58 446.106  30
   7  -3   3 5274.40 530.098  28
  -5   7  -3 13501.6 595.112  50
   7  -2  -3 13842.5 705.352  25
   7  -2  -3 13598.7 744.505  24
  -2  -5  -3 14021.4 803.335  32
   7  -2  -2 8047.78 742.523  26
  -5   7  -2 6452.18 462.956  50
   7  -2  -2 6827.51 563.163  25
  -2  -5  -2 6834.94 618.073  32
  -5   7  -2 6688.38 513.513  53
   7  -2  -1 8794.28 838.475  26
  -5   7  -1 8295.96 623.263  53
   7  -2   0 40796.7 1798.77  26
  -5   7   0 39411.1 1427.54  47
  -2  -5   0 36696.4 1712.62  31
   7  -2   0 41325.1 1769.04  28
  -5   7   0 44560.1 1429.83  53
  -5   7   1 23718.8 1176.32  51
   7  -2   1 22646.7 1235.77  26
  -5   7   1 22545.7 1152.78  47
   7  -2   1 24232.8 1315.90  21
  -2  -5   1 22158.5 1201.94  31
  -5   7   1 24551.6 970.723  53
   7  -2   1 22739.7 1334.83  28
  -5   7   2 10983.5 791.244  47
   7  -2   2 12163.5 911.483  21
  -2  -5   2 9852.05 711.334  19
  -2  -5   2 9798.94 694.093  30
   7  -2   2 11310.9 886.132  28
  -5   7   3 8050.59 581.064  47
   7  -2   3 7342.72 620.458  21
  -2  -5   3 8114.09 515.558  20
  -2  -5   3 8397.07 533.203  30
  -2  -5   3 7545.39 434.178  29
   7  -2   3 6903.46 551.570  28
  -6   7  -3 7643.90 401.436  50
   7  -1  -3 7842.07 475.988  24
  -6   7  -2 7965.79 487.758  50
   7  -1  -2 7546.47 560.066  24
  -6   7  -2 8241.58 497.375  53
   7  -1  -1 4260.85 548.271  26
  -6   7  -1 3315.97 326.637  50
   7  -1  -1 3186.02 378.635  24
  -6   7  -1 3856.76 395.829  53
   7  -1   0 95065.3 2491.79  26
  -6   7   0 99719.5 2202.47  47
  -1  -6   0 93492.5 2388.42  31
   7  -1   0 99261.9 2599.15  28
  -6   7   0 99779.4 2010.16  53
  -6   7   1 978.915 231.865  47
   7  -1   1 542.129 189.671  21
   7  -1   1 542.920 201.959  28
  -6   7   2 29611.9 1193.96  47
   7  -1   2 31431.7 1352.27  21
   7  -1   2 30939.3 1316.84  28
  -6   7   3 18901.0 755.613  47
   7  -1   3 20484.9 895.073  21
  -1  -6   3 19512.6 701.082  20
  -1  -6   3 18380.3 626.702  29
  -7   7  -2 724.295 124.858  50
   7   0  -2 995.965 187.539  13
  -7   7  -1 20771.8 732.689  50
   7   0  -1 20102.1 842.861  14
   7   0  -1 20051.9 914.217  13
  -7   7   0 13132.4 576.234  50
  -7   7   0 14217.8 739.586  47
   7   0   0 14545.7 825.763  14
   7   0   0 12080.8 675.648  13
  -7   7   1 1776.57 270.358  47
   7   0   1 1670.63 275.749  14
   0  -7   1 1460.20 222.699  30
  -7   7   2 48943.8 1256.42  47
   7   0   2 44831.9 1222.72  14
   8  -6  -1 5171.67 443.283  26
  -6  -2  -1 5969.21 455.185  32
  -2   8  -1 5840.00 370.333  53
  -2   8   0 1721.89 238.803  51
  -6  -2   0 2446.66 284.188  32
  -2   8   1 6289.94 459.373  51
   8  -6   1 6515.96 503.713  28
  -6  -2   1 6371.55 442.642  16
  -3   8  -2 539.669 116.457  53
  -5  -3  -2 804.474 165.652  32
   8  -5  -1 7645.11 619.970  26
  -5  -3  -1 7243.03 535.155  32
  -5  -3  -1 7248.52 569.026  31
  -3   8  -1 7741.28 485.708  53
  -3   8   0 37140.6 1294.75  51
  -5  -3   0 37055.6 1368.68  31
  -3   8   0 35826.1 988.749  53
  -5  -3   1 5520.41 468.823  16
  -3   8   1 6126.69 512.583  51
  -5  -3   1 5692.69 442.461  19
   8  -5   1 5552.28 519.836  28
  -3   8   2 3245.63 322.930  51
   8  -5   2 2914.54 341.576  28
   8  -4  -2 43644.6 1281.67  26
  -4  -4  -2 39639.9 1154.25  32
  -4  -4  -2 38267.3 1216.14  31
  -4   8  -2 44015.5 1045.77  53
   8  -4  -1 4701.59 505.456  26
  -4  -4  -1 4112.65 467.716  31
  -4   8  -1 4543.61 381.375  53
   8  -4   0 7833.76 674.430  26
  -4  -4   0 8868.26 701.103  31
   8  -4   0 7619.75 596.355  28
  -4   8   0 8310.98 504.965  53
  -4   8   1 846.757 197.504  51
   8  -4   1 752.187 196.831  26
  -4  -4   1 1341.58 240.874  19
  -4  -4   1 1318.49 202.661  30
   8  -4   1 790.029 202.744  28
  -4   8   2 2986.02 303.953  51
  -4  -4   2 10363.9 580.401  19
  -4  -4   2 9110.84 479.972  30
   8  -4   2 3357.47 380.965  28
  -4  -4   2 7824.48 460.699  16
   8  -3  -2 9395.30 595.724  26
   8  -3  -2 8275.23 504.978  24
  -3  -5  -2 8266.00 571.463  31
  -5   8  -2 9193.80 447.751  53
   8  -3  -1 3946.77 451.211  26
  -3  -5  -1 4483.77 479.265  31
  -5   8  -1 4649.52 375.877  53
   8  -3   0 1117.66 250.330  26
   8  -3   0 1334.36 244.675  28
  -5   8   0 1051.55 179.013  53
   8  -3   1 559.726 151.655  26
  -5   8   1 1104.95 192.922  47
  -3  -5   1 1711.65 266.847  19
  -3  -5   1 1423.30 242.258  31
  -3  -5   1 1532.27 233.417  30
   8  -3   1 728.782 195.556  28
  -5   8   2 13311.9 644.119  47
  -3  -5   2 13832.3 633.385  19
  -3  -5   2 12496.4 572.178  30
   8  -3   2 14593.3 753.195  28
   8  -2  -1 6317.81 512.419  26
  -2  -6  -1 5632.01 472.510  31
  -6   8  -1 6569.64 402.044  53
   8  -2   0 19412.6 883.772  26
  -2  -6   0 18099.5 816.713  31
  -6   8   0 20768.9 726.442  53
  -6   8   1 12007.6 588.184  47
  -2  -6   1 12581.9 612.745  19
  -2  -6   1 11494.7 588.709  30
   8  -2   1 13726.9 742.633  28
   0   0   0    0.00    0.00   0
;
_shelx_hkl_checksum              97492
#END Tags that were not found in dictionaries
loop_
_space_group_symop_operation_xyz
'x, y, z'
'-y, x-y, z+1/3'
'-x+y, -x, z+2/3'
loop_
_atom_site_label
_atom_site_type_symbol
_atom_site_fract_x
_atom_site_fract_y
_atom_site_fract_z
_atom_site_U_iso_or_equiv
_atom_site_adp_type
_atom_site_occupancy
_atom_site_site_symmetry_order
_atom_site_calc_flag
_atom_site_refinement_flags_posn
_atom_site_refinement_flags_adp
O1 O 0.0117(5) 0.2329(5) 0.2083(6) 0.0185(11) Uani 1 1 d . .
O2 O -0.0009(6) 0.5431(6) 0.1766(6) 0.0253(13) Uani 1 1 d . .
N1 N 0.0286(6) 0.2451(6) 0.6965(9) 0.0166(11) Uani 1 1 d . .
H1A H 0.0118 0.2516 0.8605 0.025 Uiso 1 1 calc R U
H1B H -0.0629 0.1053 0.6429 0.025 Uiso 1 1 calc R U
H1C H 0.1707 0.2838 0.6632 0.025 Uiso 1 1 calc R U
C1 C -0.0002(7) 0.3929(8) 0.2974(10) 0.0159(14) Uani 1 1 d . .
C2 C -0.0259(9) 0.3978(9) 0.5720(10) 0.0200(15) Uani 1 1 d . .
H2A H 0.0721 0.5494 0.6328 0.024 Uiso 1 1 calc R U
H2B H -0.1797 0.3570 0.6109 0.024 Uiso 1 1 calc R U
loop_
_atom_site_aniso_label
_atom_site_aniso_U_11
_atom_site_aniso_U_22
_atom_site_aniso_U_33
_atom_site_aniso_U_23
_atom_site_aniso_U_13
_atom_site_aniso_U_12
O1 0.027(2) 0.019(2) 0.0121(18) -0.0011(18) 0.0001(19) 0.0138(18)
O2 0.043(3) 0.022(2) 0.015(2) 0.0001(16) -0.0054(16) 0.020(2)
N1 0.021(2) 0.019(2) 0.009(2) 0.0002(19) 0.002(2) 0.009(2)
C1 0.015(3) 0.019(3) 0.012(2) -0.002(3) -0.004(2) 0.007(3)
C2 0.027(3) 0.023(3) 0.015(3) 0.002(2) 0.001(2) 0.017(3)
loop_
_atom_type_symbol
_atom_type_description
_atom_type_scat_dispersion_real
_atom_type_scat_dispersion_imag
_atom_type_scat_source
C C 0.0181 0.0091 'International Tables Vol C Tables 4.2.6.8 and 6.1.1.4'
H H 0.0000 0.0000 'International Tables Vol C Tables 4.2.6.8 and 6.1.1.4'
N N 0.0311 0.0180 'International Tables Vol C Tables 4.2.6.8 and 6.1.1.4'
O O 0.0492 0.0322 'International Tables Vol C Tables 4.2.6.8 and 6.1.1.4'
loop_
_geom_angle_atom_site_label_1
_geom_angle_atom_site_label_2
_geom_angle_atom_site_label_3
_geom_angle
C2 N1 H1A 109.5
C2 N1 H1B 109.5
H1A N1 H1B 109.5
C2 N1 H1C 109.5
H1A N1 H1C 109.5
H1B N1 H1C 109.5
O2 C1 O1 125.1(5)
O2 C1 C2 117.2(4)
O1 C1 C2 117.7(4)
N1 C2 C1 111.5(4)
N1 C2 H2A 109.3
C1 C2 H2A 109.3
N1 C2 H2B 109.3
C1 C2 H2B 109.3
H2A C2 H2B 108.0
loop_
_geom_bond_atom_site_label_1
_geom_bond_atom_site_label_2
_geom_bond_distance
O1 C1 1.263(6)
O2 C1 1.245(6)
N1 C2 1.471(7)
N1 H1A 0.9100
N1 H1B 0.9100
N1 H1C 0.9100
C1 C2 1.517(7)
C2 H2A 0.9900
C2 H2B 0.9900
loop_
_geom_torsion_atom_site_label_1
_geom_torsion_atom_site_label_2
_geom_torsion_atom_site_label_3
_geom_torsion_atom_site_label_4
_geom_torsion
O2 C1 C2 N1 -166.8(4)
O1 C1 C2 N1 15.8(6)
