#------------------------------------------------------------------------------
#$Date: 2016-03-26 23:00:42 +0200 (Sat, 26 Mar 2016) $
#$Revision: 180526 $
#$URL: svn://www.crystallography.net/cod/cif/7/21/95/7219510.cif $
#------------------------------------------------------------------------------
#
# This file is available in the Crystallography Open Database (COD),
# http://www.crystallography.net/
#
# All data on this site have been placed in the public domain by the
# contributors.
#
data_7219510
loop_
_publ_author_name
'\/Dor\/devi\'c, Tamara'
'Wittwer, Astrid'
'Jaglicic, Zvonko'
'Djerdj, Igor'
_publ_section_title
;
 Hydrothermal synthesis of single crystal CoAs2O4 and NiAs2O4 compounds
 and their magnetic properties
;
_journal_name_full               'RSC Adv.'
_journal_paper_doi               10.1039/C4RA16122J
_journal_year                    2015
_chemical_formula_sum            'As2 Ni O4'
_chemical_formula_weight         272.55
_chemical_name_systematic
;
 ?
;
_space_group_crystal_system      tetragonal
_space_group_IT_number           135
_space_group_name_Hall           '-P 4c 2ab'
_space_group_name_H-M_alt        'P 42/m b c'
_symmetry_space_group_name_Hall  '-P 4c 2ab'
_symmetry_space_group_name_H-M   'P 42/m b c'
_audit_creation_method           SHELXL-2013
_cell_angle_alpha                90
_cell_angle_beta                 90
_cell_angle_gamma                90
_cell_formula_units_Z            4
_cell_length_a                   8.2277(12)
_cell_length_b                   8.2277(12)
_cell_length_c                   5.6120(11)
_cell_measurement_temperature    293(2)
_cell_volume                     379.90(11)
_computing_structure_refinement  'SHELXL-2013 (Sheldrick, 2013)'
_diffrn_ambient_temperature      293(2)
_diffrn_measured_fraction_theta_full 1.000
_diffrn_measured_fraction_theta_max 0.990
_diffrn_radiation_type           MoK\a
_diffrn_radiation_wavelength     0.71073
_diffrn_reflns_av_R_equivalents  0.0382
_diffrn_reflns_av_unetI/netI     0.0193
_diffrn_reflns_Laue_measured_fraction_full 1.000
_diffrn_reflns_Laue_measured_fraction_max 0.990
_diffrn_reflns_limit_h_max       14
_diffrn_reflns_limit_h_min       -14
_diffrn_reflns_limit_k_max       12
_diffrn_reflns_limit_k_min       -8
_diffrn_reflns_limit_l_max       9
_diffrn_reflns_limit_l_min       -9
_diffrn_reflns_number            7925
_diffrn_reflns_point_group_measured_fraction_full 1.000
_diffrn_reflns_point_group_measured_fraction_max 0.990
_diffrn_reflns_theta_full        25.242
_diffrn_reflns_theta_max         39.118
_diffrn_reflns_theta_min         3.502
_exptl_absorpt_coefficient_mu    22.258
_exptl_absorpt_correction_type   multi-scan
_exptl_absorpt_process_details   'Bruker-Nonius, 2000'
_exptl_crystal_colour            green
_exptl_crystal_density_diffrn    4.765
_exptl_crystal_description       'elongated prismatic'
_exptl_crystal_F_000             504
_exptl_crystal_size_max          0.150
_exptl_crystal_size_mid          0.020
_exptl_crystal_size_min          0.020
_exptl_transmission_factor_max   0.7477
_exptl_transmission_factor_min   0.4776
_refine_diff_density_max         0.490
_refine_diff_density_min         -0.656
_refine_diff_density_rms         0.150
_refine_ls_extinction_coef       0.0056(5)
_refine_ls_extinction_expression Fc^*^=kFc[1+0.001xFc^2^\l^3^/sin(2\q)]^-1/4^
_refine_ls_extinction_method     SHELXL
_refine_ls_goodness_of_fit_ref   1.090
_refine_ls_hydrogen_treatment    undef
_refine_ls_matrix_type           full
_refine_ls_number_parameters     22
_refine_ls_number_reflns         595
_refine_ls_number_restraints     0
_refine_ls_restrained_S_all      1.090
_refine_ls_R_factor_all          0.0202
_refine_ls_R_factor_gt           0.0161
_refine_ls_shift/su_max          0.000
_refine_ls_shift/su_mean         0.000
_refine_ls_structure_factor_coef Fsqd
_refine_ls_weighting_details
'w=1/[\s^2^(Fo^2^)+(0.0129P)^2^+0.2839P] where P=(Fo^2^+2Fc^2^)/3'
_refine_ls_weighting_scheme      calc
_refine_ls_wR_factor_gt          0.0363
_refine_ls_wR_factor_ref         0.0371
_reflns_Friedel_coverage         0.000
_reflns_number_gt                532
_reflns_number_total             595
_reflns_threshold_expression     'I > 2\s(I)'
_cod_data_source_file            c4ra16122j3.cif
_cod_data_source_block           shelxl
_cod_original_cell_volume        379.90(13)
_cod_database_code               7219510
#BEGIN Tags that were not found in dictionaries:
_shelx_space_group_comment
;
The symmetry employed for this shelxl refinement is uniquely defined
by the following loop, which should always be used as a source of
symmetry information in preference to the above space-group names.
They are only intended as comments.
;
_shelx_estimated_absorpt_t_min   0.135
_shelx_estimated_absorpt_t_max   0.664
_shelxl_version_number           2013-4
_shelx_res_file
;
TITL 205_4 in P4(2)/mbc
CELL 0.71073   8.2277   8.2277   5.6120  90.000  90.000  90.000
ZERR    4.00   0.0012   0.0012   0.0011   0.000   0.000   0.000
LATT  1
SYMM -X, -Y, Z
SYMM -Y, X, 0.5+Z
SYMM Y, -X, 0.5+Z
SYMM 0.5-X, 0.5+Y, -Z
SYMM 0.5+X, 0.5-Y, -Z
SYMM 0.5+Y, 0.5+X, 0.5-Z
SYMM 0.5-Y, 0.5-X, 0.5-Z
SFAC O NI AS
UNIT 16 4 8
Acta

CONN 15 O1 3.5
CONN 15 O2 3.5

L.S. 20
BOND
FMAP 2
PLAN 20

temp 20
size 0.02 0.02 0.15

WGHT    0.012900    0.283900
EXTI    0.005632
FVAR       0.39563
MOLE   1
NI    2    0.000000    0.500000    0.250000    10.25000    0.00733    0.00733 =
         0.00522    0.00000    0.00000   -0.00077
AS    3    0.184785    0.171045    0.000000    10.50000    0.00797    0.00769 =
         0.00760    0.00000    0.00000    0.00089
O1    1    0.182386    0.317614    0.250000    10.50000    0.01371    0.01371 =
         0.00761   -0.00193   -0.00193    0.00688
O2    1    0.108011    0.637168    0.000000    10.50000    0.00904    0.01036 =
         0.00678    0.00000    0.00000   -0.00337
MOLE   2
HKLF 4

REM  205_4 in P4(2)/mbc
REM R1 =  0.0161 for     532 Fo > 4sig(Fo)  and  0.0202 for all     595 data
REM     22 parameters refined using      0 restraints

END

WGHT      0.0129      0.2836

REM Highest difference peak  0.490,  deepest hole -0.656,  1-sigma level  0.150
Q1    1   0.1248  0.2498  0.1051  11.00000  0.05    0.49
Q2    1   0.1663  0.1709  0.1187  11.00000  0.05    0.49
Q3    1   0.0581  0.6293 -0.0449  11.00000  0.05    0.49
Q4    1   0.1184  0.0855  0.1018  11.00000  0.05    0.48
Q5    1   0.1166  0.3039  0.3081  11.00000  0.05    0.45
Q6    1   0.1819  0.3043  0.1392  11.00000  0.05    0.42
Q7    1   0.1763  0.6380  0.0000  10.50000  0.05    0.39
Q8    1   0.1936  0.6952 -0.1117  11.00000  0.05    0.39
Q9    1   0.1160  0.5849 -0.0556  11.00000  0.05    0.39
Q10   1   0.0000  0.5000  0.3549  10.50000  0.05    0.39
Q11   1   0.0980  0.1666  0.0599  11.00000  0.05    0.38
Q12   1   0.0755  0.5146  0.2592  11.00000  0.05    0.38
Q13   1   0.1977  0.5381  0.0000  10.50000  0.05    0.38
Q14   1   0.1069  0.0272  0.1884  11.00000  0.05    0.36
Q15   1   0.0712 -0.0172 -0.0644  11.00000  0.05    0.36
Q16   1   0.2113  0.2532  0.1034  11.00000  0.05    0.36
Q17   1   0.0351  0.0384  0.1199  11.00000  0.05    0.36
Q18   1   0.0939  0.0918  0.0000  10.50000  0.05    0.34
Q19   1  -0.1236  0.4704  0.1687  11.00000  0.05    0.34
Q20   1   0.2468  0.1734  0.0000  10.50000  0.05    0.34
;
_shelx_res_checksum              69062
_shelx_hkl_file
;
   1   0   0 0.23893 0.67354   4
  -1   0   0 0.34206 0.58422   1
  -1   0   0 -0.0665  0.4005   3
  -1   0   0 -0.1239  0.6028   4
   1   0   0 0.25586 0.38657   1
   1   0   0 -0.5588  0.2769   3
   1  -1   0 1505.54   57.17   3
   1   1   0 1495.40   62.32   1
  -1   1   0 1439.96   57.09   3
   1  -1   0 1508.38   68.99   4
   1  -1   0 1492.48   63.64   2
  -1  -1   0 1257.30   61.92   1
  -1  -1   0 1169.62   68.37   4
  -1   1   0 1463.72   62.37   1
  -1   1   0 1375.42   61.89   1
  -1   1   0 1522.73   63.63   2
   1  -2   0 30.1751  2.2728   2
   2   1   0 32.0937  2.0889   3
   2   1   0 25.2610  2.6019   4
   2   1   0 35.4776  2.3628   1
  -1   2   0 32.6615  1.6344   4
  -1   2   0 22.8638  1.7474   4
  -2  -1   0 30.6421  1.8091   3
  -2  -1   0 32.5045  2.7786   4
  -1   2   0 31.1398  2.2262   2
  -2  -1   0 30.3180  2.5730   1
   2   0   0 765.609  42.869   4
   2   0   0 902.681  35.499   3
   0   2   0 871.546  42.243   4
   0   2   0 945.372  42.612   4
   2   0   0 937.339  38.665   1
  -2   0   0 934.941  35.543   3
  -2   0   0 794.727  38.846   1
   1   2   0 31.9995  1.8482   1
   2  -1   0 34.4739  2.1303   1
   2  -1   0 36.5844  2.7701   2
   2  -1   0 34.0047  2.7489   4
  -1  -2   0 34.2497  2.2333   4
  -2   1   0 31.4434  1.9162   3
  -2   1   0 33.1045  2.6425   1
  -2   1   0 31.6075  2.6102   2
  -2   1   0 25.4397  2.4905   4
   2  -1   0 32.8464  1.8129   3
  -1  -2   0 37.3741  1.8047   1
   1   2   0 26.4452  2.3450   4
  -1  -2   0 30.8590  1.7961   1
  -2   2   0 5250.50  197.60   3
  -2  -2   0 4207.06  236.48   4
   2   2   0 5028.05  214.55   1
  -2   2   0 5318.02  221.08   2
   2   2   0 4858.67  197.79   3
   2  -2   0 5240.75  221.35   2
   2  -2   0 5435.47  236.82   4
  -2   2   0 4662.54  213.57   1
  -2  -2   0 4192.12  214.56   1
   3   2   0 50.1667  3.5240   1
   2  -3   0 48.7003  3.8376   2
   3   2   0 52.2769  4.5532   4
   3   2   0 49.0732  3.0493   3
  -2   3   0 49.9490  2.2667   3
  -2   3   0 44.2789  3.2200   4
  -2   3   0 45.1542  3.6084   2
  -3  -2   0 53.3094  3.8297   1
  -2   3   0 48.8512  2.6610   1
  -3  -2   0 54.8851  3.9948   4
   3   1   0 2660.38  116.04   1
  -1   3   0 2866.34  128.06   4
  -1   3   0 2609.81  127.89   4
   3   1   0 2716.57  106.71   3
  -3  -1   0 2455.82  116.26   1
   1  -3   0 2860.25  119.22   2
  -3  -1   0 2752.07  106.73   3
   3   1   0 2305.79  128.37   4
  -1   3   0 2693.22  119.15   2
   3   0   0 -1.3109  0.6630   3
  -3   0   0 1.58471 2.03871   1
   3   0   0 0.31663 1.92627   4
   3   0   0 1.96254 1.48159   1
  -3   0   0 1.51457 1.18564   3
   3   0   0 -1.2982  1.4596   2
  -3   0   0 -1.5459  2.1149   4
   0   3   0 -0.0342  0.6586   4
   0   3   0 0.03217 0.39538   4
   3  -1   0 2619.82  127.09   4
  -1  -3   0 2692.65  127.57   4
  -1  -3   0 2834.50  127.27   4
  -3   1   0 2367.23  115.24   1
  -3   1   0 2626.80  105.72   3
   1   3   0 2735.32  115.28   1
   3  -1   0 2800.51  105.68   3
   1   3   0 2254.37  126.74   4
   3  -1   0 2821.83  114.94   1
   3  -1   0 2954.02  118.24   2
  -3   1   0 2293.60  127.18   4
  -3   2   0 48.6310  2.7129   3
   3  -2   0 45.2199  3.8223   2
  -3   2   0 46.6525  3.4983   1
  -3   2   0 52.6789  3.3624   2
   2   3   0 44.6293  3.6950   4
  -2  -3   0 56.2565  3.2777   4
   3  -2   0 49.0033  3.3967   4
  -2  -3   0 48.3462  2.9596   1
   3  -2   0 50.5323  2.6984   1
  -3   2   0 38.3728  3.7399   4
   2   3   0 49.5303  2.9664   1
  -3   3   0 352.180  17.777   1
  -3   3   0 411.180  16.112   3
  -3  -3   0 434.045  20.084   4
  -3   3   0 365.602  19.744   4
   3   3   0 373.123  20.305   4
   3   3   0 388.538  17.878   1
   3  -3   0 403.970  19.027   4
   3  -3   0 408.580  19.077   4
   3  -3   0 384.203  18.717   2
  -3  -3   0 380.599  17.847   1
  -3   3   0 386.548  18.566   2
   3   3   0 388.780  16.405   3
   4   3   0 15.3169  1.9344   3
  -4  -3   0 13.7650  2.6875   4
   4   3   0 11.8265  2.3138   1
  -4  -3   0 12.3159  2.4028   1
  -3   4   0 14.1385  2.3905   2
  -3   4   0 9.69704 1.72189   1
   4   3   0 14.5979  3.1047   4
   3  -4   0 12.1581  2.5803   2
  -3   4   0 13.2228  1.2575   3
  -3   4   0 9.87825 1.66440   4
  -2   4   0 1744.10   68.67   3
   2  -4   0 1672.12   77.31   2
   4   2   0 1618.28   69.06   3
  -2   4   0 1889.87   82.28   4
  -4  -2   0 1622.77   75.37   1
  -2   4   0 1698.94   74.35   1
   4   2   0 1599.42   83.53   4
  -4  -2   0 1861.22   83.65   4
   4   2   0 1690.63   75.21   1
  -2   4   0 1681.21   77.22   2
   4   1   0 238.406  11.580   1
  -1   4   0 247.267  11.586   4
  -4  -1   0 239.537  10.488   3
   4   1   0 209.904  13.046   4
   4   1   0 229.037  10.320   3
  -4  -1   0 231.372  12.085   1
  -1   4   0 248.223  11.622   4
  -1   4   0 241.515  11.840   2
   4   0   0 4.46501 1.50496   2
  -4   0   0 6.13058 1.22698   3
  -4   0   0 6.39054 2.51874   1
   4   0   0 3.30952 1.78439   1
   4   0   0 4.08437 1.33750   3
   0   4   0 7.81974 2.09146   2
   0   4   0 6.23921 0.76013   4
   0   4   0 8.94897 1.15482   4
   4   0   0 7.41152 1.93206   4
   0   4   0 7.54450 0.47120   1
   0   4   0 6.27913 0.50366   1
   4  -1   0 243.540  12.720   4
   4  -1   0 238.980  11.202   1
  -4   1   0 238.136  10.290   3
   1   4   0 223.374  12.202   4
   1   4   0 236.836  10.572   1
  -4   1   0 224.995  13.212   4
   4  -1   0 255.302  11.907   2
  -4   1   0 216.089  11.860   1
  -4   2   0 1930.22   77.78   2
   4  -2   0 1749.40   75.21   1
  -2  -4   0 1696.54   74.73   1
  -4   2   0 1561.20   75.81   1
   2   4   0 1646.48   83.51   4
  -2  -4   0 1710.31   82.78   4
   4  -2   0 1779.74   77.80   2
  -4   2   0 1783.76   69.35   3
   4  -2   0 1746.83   83.33   4
  -4   2   0 1593.86   83.72   4
   2   4   0 1704.92   75.11   1
   3   4   0 15.6091  2.0085   1
  -3  -4   0 14.6380  1.8230   1
  -4   3   0 10.9438  2.3221   2
  -4   3   0 11.7518  2.0568   4
   4  -3   0 14.4306  1.6595   4
  -3  -4   0 12.9916  1.7525   4
   4  -3   0 13.6623  2.2240   2
   4  -3   0 12.5064  1.0170   1
   3   4   0 14.0231  2.8727   4
  -4   3   0 13.3717  2.3752   1
  -4   3   0 16.7679  1.6568   3
   3   4   0 13.4948  1.4874   3
  -4   4   0 1417.40   60.71   2
  -4   4   0 1382.20   53.77   3
  -4  -4   0 1415.31   65.14   4
  -4  -4   0 1294.47   58.67   1
   4   4   0 1332.43   58.91   1
   4   4   0 1297.47   65.78   4
  -4   4   0 1370.92   64.99   4
   4   4   0 1245.95   54.04   3
   4  -4   0 1323.65   60.83   2
  -4   4   0 1215.49   58.80   1
   5   4   0 264.247  12.652   3
  -5  -4   0 298.481  14.086   1
  -4   5   0 301.029  14.990   4
  -4   5   0 285.765  12.174   3
  -4   5   0 274.751  14.576   2
   5   4   0 292.981  16.601   4
  -5  -4   0 319.949  15.787   4
  -4   5   0 258.372  13.652   1
   4  -5   0 282.242  14.709   2
   5   4   0 281.025  14.261   1
  -3   5   0 4378.76  172.33   3
   5   3   0 4063.61  171.71   3
   5   3   0 4478.52  186.92   1
  -5  -3   0 4343.67  186.96   1
  -3   5   0 3870.07  186.01   1
  -3   5   0 4213.32  191.70   2
  -3   5   0 4700.01  205.31   4
   3  -5   0 4328.82  191.92   2
  -5  -3   0 4521.00  206.60   4
   5   3   0 3855.73  206.68   4
   5   2   0 13.6245  2.7286   1
   5   2   0 14.2136  3.4676   4
   5   2   0 14.7772  1.8056   3
  -2   5   0 13.1861  1.0976   1
  -2   5   0 11.5394  2.1233   2
  -5  -2   0 17.2323  2.9001   4
  -5  -2   0 17.5553  3.4072   1
  -2   5   0 11.7793  1.2163   4
   2  -5   0 12.6643  2.7231   2
  -2   5   0 12.8937  1.2492   4
  -1   5   0 21.0560  1.4355   4
  -1   5   0 23.4801  2.6809   2
  -1   5   0 21.9615  1.5507   4
  -5  -1   0 17.9782  3.4766   1
   5   1   0 24.7354  3.7501   4
  -5  -1   0 25.8668  2.2729   3
   5   1   0 19.2071  2.8352   1
  -5  -1   0 20.2248  3.2423   4
   5   1   0 25.5684  2.4174   3
  -5   0   0 -1.3764  1.7920   4
   5   0   0 -0.3850  1.9497   1
   0   5   0 0.85202 0.46530   1
   5   0   0 2.01060 1.58907   2
   0   5   0 0.66776 0.80126   4
  -5   0   0 1.09735 1.59123   3
   0   5   0 1.50032 0.70535   4
   0   5   0 1.83921 1.57298   2
   5   0   0 1.52903 2.35239   4
  -5   0   0 2.93845 2.68461   1
   5  -1   0 17.5510  2.8994   2
   1   5   0 20.8291  2.3130   4
  -5   1   0 19.7341  3.5616   1
   5  -1   0 23.6817  2.6567   1
  -5   1   0 23.3457  2.3675   3
   1   5   0 21.1472  1.5872   1
   5  -1   0 18.9094  2.6956   4
  -5   1   0 16.7726  2.9521   4
  -2  -5   0 9.21943 1.01749   4
  -2  -5   0 11.4719  1.0613   4
   2   5   0 12.5549  1.5615   1
  -5   2   0 11.2689  3.0182   1
   5  -2   0 12.1672  1.9556   1
   5  -2   0 14.6883  2.4091   4
  -5   2   0 11.6628  3.0404   4
   5  -2   0 11.7596  2.7113   2
   2   5   0 12.0991  2.3372   4
  -5   2   0 18.5576  2.0976   3
   3   5   0 4117.58  209.78   4
   5  -3   0 4180.03  209.03   4
   3   5   0 4280.49  189.52   1
  -5   3   0 4769.34  195.15   2
  -5   3   0 4120.12  190.23   1
  -5   3   0 4545.13  174.52   3
   5  -3   0 4262.27  189.09   1
  -3  -5   0 4187.44  189.14   1
   5  -3   0 4426.29  195.21   2
  -5   3   0 4619.06  210.04   4
   5  -4   0 258.878  14.528   2
   4   5   0 285.954  15.922   4
  -4  -5   0 298.999  14.795   4
  -5   4   0 294.824  14.391   2
  -5   4   0 294.952  15.194   4
  -5   4   0 256.966  13.899   1
   4   5   0 273.877  13.596   1
  -5   4   0 276.807  12.150   3
   4   5   0 267.037  12.344   3
  -4  -5   0 272.069  12.928   1
   5   5   0 6.98483 3.43384   4
   5   5   0 4.70930 2.65665   1
  -5   5   0 4.81387 2.10697   4
   5   5   0 5.47768 2.03200   3
  -5   5   0 2.11845 1.83185   2
   5  -5   0 3.51808 2.24141   2
  -5  -5   0 6.45220 2.08532   1
  -5   5   0 4.75271 1.49940   3
  -5   5   0 5.94025 2.73913   1
  -5  -5   0 7.53073 2.44151   4
   6   5   0 249.296  15.284   4
   5  -6   0 235.028  13.720   2
   6   5   0 247.843  13.257   1
  -6  -5   0 245.851  12.524   1
  -5   6   0 247.194  10.798   3
  -6  -5   0 235.582  14.045   4
  -5   6   0 235.664  12.390   1
  -5   6   0 249.618  13.281   4
  -4   6   0 112.331   6.909   1
  -6  -4   0 131.829   9.041   4
  -4   6   0 137.473   6.049   3
   6   4   0 136.354   9.840   4
   6   4   0 108.579   6.600   3
  -4   6   0 119.982   7.705   2
   4  -6   0 122.109   8.498   2
  -6  -4   0 136.546   8.200   1
  -4   6   0 136.398   7.395   4
   6   4   0 140.605   7.931   1
  -6  -3   0 19.3085  3.9260   4
   6   3   0 23.3173  2.4845   3
   3  -6   0 20.0379  3.5977   2
  -3   6   0 19.9421  3.3184   2
  -3   6   0 22.7316  1.9590   4
   6   3   0 23.0998  3.6334   1
  -3   6   0 17.1833  1.8589   1
  -6  -3   0 20.8392  3.7656   1
   6   3   0 23.8562  3.7565   4
  -3   6   0 19.3487  1.5106   3
   6   2   0 145.323   9.657   4
  -2   6   0 135.374   6.612   1
  -6  -2   0 154.534   9.688   4
  -2   6   0 151.394   7.477   4
   6   2   0 131.411   8.491   1
  -2   6   0 148.421   7.404   4
  -6  -2   0 158.497   9.399   1
   6   2   0 141.510   7.417   3
  -2   6   0 132.278   8.578   2
  -1   6   0 492.307  23.720   4
  -6  -1   0 488.086  23.727   1
   6   1   0 482.015  22.970   1
  -1   6   0 470.566  23.632   2
  -6  -1   0 519.276  26.162   4
  -6  -1   0 448.416  20.734   3
   6   1   0 552.413  23.934   2
   6   1   0 472.845  25.775   4
  -1   6   0 469.011  21.295   1
  -1   6   0 498.219  23.829   4
   6   0   0 7332.19  303.13   2
  -6   0   0 7527.28  326.80   4
   0   6   0 6636.20  326.96   4
   0   6   0 6364.49  294.86   1
  -6   0   0 6650.71  271.48   3
  -6   0   0 6506.31  295.79   1
   0   6   0 6752.32  303.09   2
   6   0   0 6732.55  295.09   1
   6   0   0 6465.77  326.00   4
  -6   1   0 461.340  23.594   1
   6  -1   0 462.187  22.455   1
  -6   1   0 528.978  26.222   4
   6  -1   0 502.653  23.487   2
  -6   1   0 497.897  20.836   3
   6  -1   0 494.970  25.400   4
   1   6   0 459.155  21.543   1
   1   6   0 490.542  24.433   4
  -6   2   0 148.361   9.579   1
   2   6   0 146.948   7.325   1
  -6   2   0 152.816   7.539   3
   2   6   0 150.392   8.901   4
   6  -2   0 151.671   7.860   1
   6  -2   0 133.911   8.458   2
   6  -2   0 137.066   9.005   4
  -6   2   0 163.408  10.231   4
  -6   3   0 20.5539  3.7729   4
   6  -3   0 16.1825  2.1017   1
   3   6   0 20.2120  2.9031   4
   6  -3   0 16.7500  2.8731   2
  -6   3   0 18.2688  3.7778   1
  -6   3   0 24.2832  2.6357   3
   3   6   0 19.4422  2.7014   1
  -6   4   0 129.881   6.625   3
  -4  -6   0 125.529   6.008   1
   6  -4   0 105.996   8.312   2
   4   6   0 127.114   6.614   3
  -6   4   0 119.944   8.215   1
   4   6   0 125.196   7.433   1
   4   6   0 137.807   9.160   4
  -6   4   0 136.575   8.429   4
  -6   5   0 232.179  10.955   3
  -6   5   0 246.329  12.870   1
  -5  -6   0 242.328  11.553   1
   5   6   0 240.580  12.688   1
  -6   5   0 253.154  13.651   4
   6  -5   0 225.784  13.169   2
   5   6   0 241.298  14.436   4
   6  -6   0 2645.71  127.99   2
  -6   6   0 2949.09  136.72   4
   6   6   0 2791.94  124.38   1
  -6   6   0 2787.33  113.65   3
  -6  -6   0 2913.17  123.52   1
  -6   6   0 2810.27  124.08   1
  -6   7   0 82.8576  6.6792   1
   7   6   0 100.152   7.800   1
  -6   7   0 93.2887  5.3566   3
  -6   7   0 89.5734  6.4814   4
   6  -7   0 89.8783  7.9769   2
   7   5   0 132.145   9.505   1
  -5   7   0 132.889   6.687   3
  -7  -5   0 154.787   9.007   1
  -5   7   0 148.066   8.466   4
  -5   7   0 132.998   7.910   1
   5  -7   0 136.947   9.813   2
  -4   7   0 58.1308  4.0877   1
   7   4   0 65.8118  6.0647   1
  -4   7   0 54.8173  3.4209   3
  -7  -4   0 64.6646  5.7984   1
  -4   7   0 58.5426  4.2099   4
   4  -7   0 55.5222  5.3224   2
  -3   7   0 423.398  18.013   3
  -7  -3   0 471.351  24.306   4
  -3   7   0 434.205  21.688   4
   7   3   0 444.410  24.487   4
   7   3   0 429.108  21.507   1
  -7  -3   0 442.342  21.753   1
  -2   7   0 44.0511  2.8538   4
  -2   7   0 46.6906  4.8191   2
  -7  -2   0 49.2193  5.8807   4
   7   2   0 42.5448  5.6402   4
  -2   7   0 44.9667  2.9714   4
   7   2   0 46.5466  5.0253   1
  -7  -2   0 51.0769  5.6309   1
  -7  -1   0 583.360  26.839   1
   7   1   0 526.718  29.028   4
  -7  -1   0 535.929  23.497   3
  -1   7   0 495.127  26.308   2
  -1   7   0 517.555  23.950   1
   7   1   0 564.744  26.585   2
   7   1   0 549.821  25.873   1
  -1   7   0 543.335  26.626   4
  -1   7   0 558.907  26.761   4
  -7  -1   0 614.711  29.758   4
   7   0   0 1.12908 2.02321   2
   0   7   0 0.72316 0.87013   1
  -7   0   0 1.34485 2.24784   3
   7   0   0 1.51148 2.91074   4
   0   7   0 1.51842 2.84205   2
   7   0   0 0.17942 1.90970   1
  -7   0   0 -0.8176  2.3808   4
   0   7   0 1.56827 1.29098   4
  -7   0   0 0.75757 3.65294   1
  -7   1   0 548.008  24.401   3
  -7   1   0 633.020  30.585   4
  -7   1   0 599.375  27.933   1
   7  -1   0 565.115  27.651   2
   1   7   0 555.123  25.341   1
   7  -1   0 543.669  29.606   4
   7  -1   0 542.392  26.396   1
   1   7   0 589.761  28.549   4
  -7   2   0 43.0594  3.5397   3
   2   7   0 49.4005  4.2380   4
  -7   2   0 37.2477  5.4535   1
   7  -2   0 41.8815  4.3630   2
  -7   2   0 44.9634  5.1079   4
   7  -2   0 44.9574  4.2062   1
   2   7   0 37.3293  3.1592   1
   3   7   0 445.341  22.559   4
  -7   3   0 453.828  21.572   1
   3   7   0 396.243  19.663   1
   7  -3   0 388.384  21.267   2
  -7   3   0 435.744  23.097   4
  -7   3   0 427.854  18.574   3
  -7   4   0 63.3715  4.4767   3
   4   7   0 65.2311  5.9483   4
   4   7   0 63.2958  4.8359   1
  -7   4   0 52.7736  5.7599   4
  -7   4   0 62.5856  6.0804   1
   4   7   0 46.8481  3.9207   3
   7  -4   0 53.5964  5.7678   2
  -7   5   0 130.691   9.205   1
  -7   5   0 141.513   9.327   4
   5   7   0 148.202  10.524   4
   5   7   0 143.975   8.886   1
   7  -5   0 129.954   9.756   2
  -7   5   0 152.172   7.680   3
   7  -6   0 84.2702  7.6734   2
  -7   6   0 91.1489  7.0974   4
   6   7   0 82.8914  6.8634   1
  -7   6   0 83.2004  5.5025   3
  -7   6   0 87.8787  6.9600   1
   7  -7   0 252.600  15.757   2
   7   7   0 253.455  15.011   1
  -7   7   0 264.167  14.325   1
  -7   7   0 269.463  12.396   3
  -7   7   0 275.095  15.132   4
  -7   8   0 55.0109  4.1995   3
   7  -8   0 46.0363  6.7641   2
   8   7   0 55.3940  6.8791   1
  -6   8   0 304.779  15.888   4
   6  -8   0 289.018  16.624   2
   8   6   0 281.031  16.496   1
  -6   8   0 294.139  13.148   3
  -8  -6   0 286.806  15.310   1
  -5   8   0 11.8668  2.3904   4
  -8  -5   0 10.6540  4.0603   1
  -5   8   0 12.6840  2.0934   3
   8   5   0 18.6244  3.8014   1
  -8  -4   0 524.388  25.904   1
  -4   8   0 520.324  26.257   4
  -4   8   0 541.082  21.953   3
   8   4   0 521.801  26.010   1
   8   3   0 23.5921  4.5515   1
  -8  -3   0 14.2198  4.7329   1
  -3   8   0 17.5989  1.6203   3
  -3   8   0 20.2489  1.9755   4
  -2   8   0 2055.13  100.43   4
   8   2   0 2014.17   92.93   1
  -2   8   0 2060.29  100.53   4
   8   2   0 2167.75   95.66   2
  -8  -2   0 2154.67   93.61   1
  -8  -1   0 117.245   6.894   3
  -8  -1   0 128.527  10.300   4
  -1   8   0 124.155   6.746   4
   8   1   0 120.412   8.573   1
   8   1   0 117.469   8.219   2
  -8  -1   0 118.927   8.717   1
   8   0   0 473.522  24.001   1
   0   8   0 498.939  24.990   4
  -8   0   0 475.525  21.856   3
   8   0   0 486.989  26.826   4
  -8   0   0 570.421  28.194   4
   8   0   0 485.864  24.806   2
  -8   0   0 538.945  25.173   1
   8  -1   0 115.061   8.727   2
   1   8   0 119.481   6.253   1
   8  -1   0 116.343   7.911   1
  -8   1   0 125.329   9.630   1
  -8   1   0 120.409   7.423   3
   1   8   0 120.161   7.316   4
  -8   1   0 132.879  10.331   4
  -8   2   0 2150.90   91.88   1
   8  -2   0 1981.74   93.37   2
   2   8   0 1978.17   89.50   1
  -8   2   0 2303.87  101.38   4
   2   8   0 2029.69   99.34   4
   8  -2   0 1895.04   90.02   1
  -8   2   0 1991.89   83.31   3
   8  -3   0 13.3176  2.3769   1
   8  -3   0 10.7001  4.0509   2
   3   8   0 20.6698  3.5412   4
  -8   3   0 19.3026  3.1999   3
  -8   3   0 23.8361  4.7950   4
   3   8   0 22.5093  2.8509   1
  -8   3   0 22.1510  5.0719   1
  -8   4   0 552.640  28.243   4
   4   8   0 547.165  27.701   4
   4   8   0 510.076  24.339   1
   8  -4   0 488.223  25.897   2
  -8   4   0 509.902  22.691   3
  -8   4   0 502.493  25.725   1
  -8   5   0 11.2818  3.1241   4
  -8   5   0 8.53463 2.25903   3
   8  -5   0 14.9835  3.5962   2
  -8   5   0 8.96005 4.09560   1
   5   8   0 9.46598 3.35713   1
   6   8   0 309.358  16.242   1
   8  -6   0 289.639  16.823   2
  -8   6   0 300.247  17.103   4
  -8   6   0 310.577  13.954   3
  -8   6   0 284.175  16.135   1
  -8   7   0 71.4007  5.0968   3
   8  -7   0 56.0778  7.2577   2
  -8   7   0 55.2859  5.8986   4
  -8   7   0 62.4870  6.5843   1
   7   8   0 45.5925  5.6791   1
   8   8   0 1411.67   65.36   1
  -8   8   0 1434.96   58.81   3
  -8   9   0 89.7720  6.1775   3
   9   8   0 88.1936  9.0650   1
   9   7   0 187.440  13.163   1
  -7   9   0 176.518   9.098   3
   9   6   0 4.00306 4.82802   1
  -9  -6   0 0.40424 3.83431   1
  -6   9   0 -0.9027  1.6633   3
   9   5   0 925.293  45.288   1
  -5   9   0 958.151  39.591   3
  -9  -5   0 1007.39   44.87   1
   9   4   0 65.2012  7.2569   1
  -4   9   0 67.7202  3.8978   3
  -4   9   0 61.7017  4.4684   4
  -9  -4   0 61.6982  7.0816   1
  -9  -3   0 176.304  11.707   1
   9   3   0 174.966  10.929   2
  -3   9   0 160.516   7.377   3
  -3   9   0 158.827   8.671   4
   9   3   0 157.015  10.382   1
  -9  -2   0 48.9604  6.4436   1
  -2   9   0 42.9088  3.0880   4
   9   2   0 44.6730  5.0912   1
   9   2   0 41.2916  5.1795   2
  -2   9   0 45.3544  2.8972   3
   9   1   0 889.281  44.233   1
  -1   9   0 939.866  46.768   4
   9   1   0 987.269  45.987   2
  -9  -1   0 1039.25   45.61   1
  -9   0   0 0.72118 2.92705   3
   9   0   0 0.46807 3.72321   2
   0   9   0 2.00973 1.68217   4
  -9   0   0 -1.4991  4.4807   1
   9   0   0 -0.1688  3.6370   1
   1   9   0 935.567  46.229   4
   9  -1   0 941.022  44.789   2
  -9   1   0 890.082  39.592   3
   9  -1   0 910.506  42.827   1
  -9   1   0 1012.58   44.45   1
   9  -2   0 36.1355  4.3407   1
   2   9   0 43.7282  3.7157   1
  -9   2   0 50.1498  4.8152   3
   9  -2   0 40.9054  4.9577   2
  -9   2   0 59.4287  7.0910   1
   2   9   0 36.0645  4.0584   4
  -9   2   0 33.4720  5.3831   4
  -9   3   0 177.210  12.418   4
   3   9   0 153.285   8.842   1
   9  -3   0 156.526  11.113   2
  -9   3   0 175.250  11.058   1
   3   9   0 153.380  10.286   4
  -9   3   0 172.206   9.374   3
   9  -3   0 151.754   9.004   1
   4   9   0 67.3424  5.5763   1
   9  -4   0 54.1091  6.0954   2
  -9   4   0 75.7562  5.6459   3
  -9   4   0 65.3247  7.3973   1
  -9   4   0 49.3454  6.7986   4
   5   9   0 917.873  42.510   1
  -9   5   0 964.186  43.794   1
  -9   5   0 971.557  47.660   4
  -9   5   0 911.285  39.115   3
   9  -5   0 855.557  44.657   2
   6   9   0 -3.2176  3.6204   1
  -9   6   0 -4.2278  2.3576   4
  -9   6   0 1.88139 2.93486   3
  -9   6   0 -2.8846  3.8969   1
  -9   7   0 192.693  10.648   3
  -9   7   0 214.752  12.662   1
   7   9   0 180.103  12.878   1
   8   9   0 84.3043  8.5562   1
  -9   8   0 85.0910  6.4330   3
   9   9   0 1.50106 3.99329   1
  10   9   0 21.4824  7.3424   1
  10   8   0 49.7209  8.1049   1
  10   7   0 2.43427 5.73252   1
  -7  10   0 -0.1307  2.5178   3
  10   6   0 389.775  22.119   1
  -6  10   0 404.083  17.486   3
 -10  -6   0 395.418  20.714   1
  -5  10   0 42.4653  3.1381   3
 -10  -5   0 36.1145  6.2555   1
  10   5   0 37.6343  6.9351   1
  -4  10   0 77.4030  4.4195   3
  10   4   0 61.1750  7.7498   1
 -10  -4   0 89.5926  8.5564   1
  -3  10   0 27.1520  2.4409   3
 -10  -3   0 29.5413  6.6016   1
  10   3   0 34.1884  6.2783   1
 -10  -2   0 93.0707  8.3402   1
  10   2   0 93.8130  7.8296   1
  -2  10   0 92.4258  4.7991   3
  -1  10   0 2.84313 1.59019   4
  10   1   0 8.09978 4.60652   1
 -10  -1   0 9.65940 4.33054   1
  10   0   0 528.458  26.497   1
 -10   0   0 581.510  28.265   1
   0  10   0 521.019  27.044   4
  10  -1   0 1.35324 3.76094   1
   1  10   0 2.24717 2.39758   4
 -10   1   0 3.90510 5.37603   1
 -10   2   0 71.3021  6.4363   3
  10  -2   0 71.9018  6.3939   1
   2  10   0 94.4162  6.7354   4
 -10   2   0 118.177   9.996   1
 -10   3   0 25.8632  4.4782   3
   3  10   0 25.5836  4.0872   4
 -10   3   0 27.5983  6.3350   1
   4  10   0 87.1847  6.7466   1
 -10   4   0 84.1521  6.7732   3
 -10   4   0 79.2769  8.5242   1
   5  10   0 38.9852  5.2818   1
 -10   5   0 39.9370  5.0072   3
 -10   5   0 39.6748  6.5822   1
 -10   6   0 393.025  18.309   3
   6  10   0 357.191  19.963   1
 -10   6   0 386.395  20.907   1
 -10   7   0 3.38865 4.84992   1
 -10   7   0 2.52150 3.56252   3
   7  10   0 4.93666 4.82827   1
   8  10   0 45.7108  7.2566   1
   9  10   0 32.5059  7.4131   1
  10  10   0 18.3107  7.2703   1
  11   9   0 354.983  21.950   1
  11   8   0 3.40704 6.63260   1
  11   7   0 73.6906  9.2818   1
 -11  -6   0 20.9141  5.4952   1
  11   6   0 22.8510  6.9356   1
  -5  11   0 6.68648 2.04184   3
 -11  -5   0 4.51409 5.52714   1
  11   5   0 8.77584 6.03337   1
  11   4   0 184.661  12.915   1
  -4  11   0 193.731   8.934   3
 -11  -4   0 200.293  14.003   1
  11   3   0 1172.29   55.52   1
 -11  -3   0 1233.43   55.81   1
  -3  11   0 1160.12   48.20   3
 -11  -2   0 155.840  12.256   1
  -2  11   0 147.677   7.178   3
  11   2   0 137.338  11.288   1
 -11  -1   0 2.21261 5.74980   1
  11   1   0 -0.9211  4.8908   1
  -1  11   0 1.81778 1.68462   3
  11   0   0 -0.1093  4.4042   1
 -11   0   0 5.96762 6.07211   1
 -11   1   0 7.05378 6.09718   1
  11  -1   0 -0.5675  4.0991   1
   2  11   0 123.761   9.258   4
 -11   2   0 161.549  12.430   1
 -11   3   0 1265.97   59.58   1
 -11   4   0 182.542  13.683   1
 -11   4   0 170.265  11.182   3
 -11   5   0 48.3726  7.5882   1
 -11   5   0 5.80312 3.14759   3
   6  11   0 20.6372  5.3137   1
 -11   6   0 27.1199  5.0638   3
 -11   6   0 23.1708  6.5070   1
   7  11   0 71.8197  8.0081   1
 -11   7   0 67.3797  8.9571   1
   8  11   0 18.7171  6.4964   1
   9  11   0 347.463  21.129   1
  12   7   0 83.8542 10.3414   1
  12   6   0 465.372  26.146   1
  12   5   0 57.8167  9.0293   1
 -12  -5   0 57.5156  7.8663   1
  12   4   0 103.246  10.499   1
 -12  -4   0 90.8581  9.6778   1
 -12  -3   0 2.95537 6.19941   1
  12   3   0 0.54931 5.88084   1
  -2  12   0 0.18042 1.78395   3
 -12  -2   0 0.18999 4.57434   1
  12   2   0 -0.1932  5.6026   1
  12   1   0 97.3227  9.3054   1
  -1  12   0 87.2948  5.4394   3
 -12  -1   0 95.6287  9.3210   1
 -12   0   0 761.874  36.398   1
  12   0   0 660.541  34.179   1
 -12   1   0 105.110   9.601   1
  12  -1   0 63.1901  7.0278   1
 -12   2   0 -3.2868  6.4068   1
 -12   3   0 -7.6472  4.1309   1
 -12   4   0 93.6145 10.4462   1
 -12   5   0 56.1924  8.6895   1
 -12   6   0 436.237  24.510   1
 -12   7   0 72.9191  9.3481   1
   8  12   0 15.4660  6.7232   1
 -13  -5   0 121.359  11.122   1
  13   5   0 142.588  12.848   1
 -13  -4   0 40.2912  8.0844   1
  13   4   0 34.7844  8.3368   1
  13   3   0 15.5123  7.1736   1
 -13  -3   0 24.9014  7.7273   1
  13   2   0 23.7273  7.3248   1
 -13  -2   0 25.1716  7.9165   1
 -13  -1   0 129.261  12.169   1
  13   0   0 7.17434 5.49559   1
 -13   0   0 -5.0467  4.6652   1
 -13   1   0 154.427  13.363   1
 -13   2   0 32.0736  8.4393   1
 -13   3   0 19.0223  7.6625   1
 -13   4   0 29.0358  8.1541   1
 -13   5   0 154.618  13.231   1
 -13   6   0 32.8303  7.9610   1
 -14  -3   0 9.01875 7.56119   1
  14   3   0 8.43527 7.28063   1
  14   2   0 407.805  24.202   1
 -14  -2   0 449.595  25.398   1
 -14  -1   0 124.062  12.822   1
 -14   0   0 125.490  12.407   1
 -14   1   0 124.326  12.778   1
 -14   2   0 468.022  27.164   1
 -14   3   0 20.8361  8.3329   1
   0   0  -1 -0.5781  0.5671   2
   0   0  -1 0.62913 0.62395   1
   0   0  -1 1.46652 0.89110   4
   0   0  -1 0.06556 0.65755   3
   0   0  -1 0.21569 0.53454   4
   0   0   1 0.69109 0.71824   3
   0   0   1 0.18657 0.62294   2
   0   0   1 -0.5229  0.8390   4
   0   0   1 0.11726 0.55471   4
   0   0   1 -0.1478  0.8384   1
  -1   0  -1 -0.6001  0.5432   3
  -1   0  -1 -0.4431  0.1494   4
   0  -1  -1 0.51170 0.40788   1
   0   1  -1 0.23909 1.03393   4
   0   1  -1 -0.8913  0.7975   2
   0   1  -1 0.15042 0.89192   4
  -1   0  -1 1.41311 0.86916   1
   0  -1  -1 0.66960 0.46204   3
   1   0  -1 0.83671 0.75161   4
   1   0  -1 -0.4528  0.4062   3
   0  -1  -1 0.28050 0.51146   1
   0   1  -1 4.91409 0.84977   1
   1   0  -1 -0.1985  0.5509   1
   0   1  -1 0.82802 0.91517   3
   0   1   1 0.32087 0.51920   3
  -1   0   1 0.69434 0.95097   3
  -1   0   1 1.13896 0.78590   4
   0   1   1 0.13681 0.63917   1
   0   1   1 0.27159 0.43935   4
   1   0   1 0.51419 0.67194   4
   0  -1   1 0.18354 0.86764   4
   0  -1   1 0.57969 0.98694   4
   1   0   1 0.36530 0.59867   3
   0  -1   1 3.59797 0.71008   3
   0  -1   1 0.75364 0.96256   1
   0  -1   1 -0.1033  0.8692   2
   1   0   1 0.42975 1.06730   2
  -1   0   1 -0.9293  0.9542   1
   1   0   1 -0.6513  0.7080   1
  -1   1  -1 0.19824 0.98325   4
   1   1  -1 0.80035 0.93531   4
   1  -1  -1 -0.2222  0.4483   4
   1  -1  -1 -0.0492  0.5324   1
  -1   1  -1 -0.4799  1.3405   2
   1  -1  -1 -0.8505  0.4477   1
  -1   1  -1 -0.5149  0.8901   3
   1  -1  -1 -0.0542  0.4126   3
  -1  -1  -1 0.65960 0.82310   4
   1  -1  -1 0.52358 0.41430   2
  -1  -1  -1 -0.0271  0.7407   1
  -1   1  -1 -0.0108  0.6427   1
  -1  -1  -1 -0.1122  0.6291   3
   1   1  -1 1.62991 0.95064   1
   1  -1  -1 -0.0526  0.3546   3
   1  -1   1 0.18455 0.58140   3
  -1   1   1 -0.7827  0.5834   3
   1  -1   1 0.00075 0.72616   4
   1   1   1 -0.8802  0.6656   1
  -1   1   1 0.05103 0.66892   1
  -1  -1   1 -0.7214  1.2752   1
   1   1   1 1.13866 0.66576   4
  -1   1   1 -0.1265  0.5409   4
   1  -1   1 0.90201 0.93787   4
  -1  -1   1 -0.4502  1.1951   4
   1  -1   1 1.70910 1.44848   2
   1   1   1 0.54704 0.54798   3
   1  -1   1 0.21027 1.03744   1
   1  -2  -1 3332.77  151.97   2
  -2  -1  -1 3642.03  164.64   4
   2   1  -1 3459.19  162.76   4
  -2  -1  -1 3358.71  148.03   1
  -1   2  -1 3290.39  151.28   2
   2   1  -1 3550.64  147.91   1
  -1   2  -1 3546.28  164.06   4
  -1   2  -1 3447.06  136.75   3
  -1   2  -1 3229.39  148.65   1
  -1   2  -1 3516.47  164.33   4
   1  -2   1 3493.28  148.02   1
  -1   2   1 3351.97  147.22   1
   2   1   1 3211.80  136.07   3
  -2  -1   1 3151.12  147.43   1
  -1   2   1 3354.35  151.37   2
   2   1   1 3219.72  147.25   1
   2   1   1 3497.40  163.73   4
  -1   2   1 3235.15  147.12   1
   1  -2   1 3442.01  136.15   3
   1  -2   1 3421.18  164.23   4
   1  -2   1 3316.16  151.32   2
   1  -2   1 3430.96  163.09   4
  -1   2   1 3346.79  163.18   4
   0   2  -1 5.35918 1.13785   4
   0   2  -1 5.24795 1.29794   4
   0   2  -1 6.12907 1.20050   3
  -2   0  -1 4.44204 1.15710   2
   2   0  -1 3.83011 1.05108   3
   0   2  -1 6.36333 0.94953   1
  -2   0  -1 7.39802 1.22439   4
   2   0  -1 5.74090 1.31437   4
  -2   0  -1 5.20366 1.19271   3
  -2   0  -1 4.98223 1.37381   1
   2   0  -1 6.80935 1.30769   1
   0   2  -1 7.29678 1.45192   2
   0  -2   1 5.72960 1.04131   4
   2   0   1 6.36238 1.21232   3
  -2   0   1 5.33179 1.70512   1
   0  -2   1 5.44417 1.38076   1
   0   2   1 6.26802 0.66605   4
   0   2   1 5.32357 0.57329   1
   0   2   1 6.01427 0.46493   3
   2   0   1 5.42560 1.68103   2
  -2   0   1 5.61455 1.33245   4
   2   0   1 6.41072 1.53741   1
   0   2   1 5.33538 0.48255   1
   2   0   1 6.06464 1.44641   4
   0  -2   1 6.78083 1.03221   4
  -2   1  -1 3367.73  149.32   1
   1   2  -1 3475.77  165.25   4
   2  -1  -1 3644.99  153.68   2
  -1  -2  -1 3332.34  148.81   1
  -2   1  -1 3473.98  138.01   3
   2  -1  -1 3500.22  165.10   4
  -1  -2  -1 3585.87  164.81   4
   2  -1  -1 3153.19  137.16   3
   2  -1  -1 3231.99  148.99   1
   1   2  -1 3139.61  149.14   1
  -2   1  -1 3727.07  165.14   4
  -2   1  -1 3540.58  153.80   2
   2  -1  -1 3491.51  137.33   3
  -1  -2   1 3378.81  163.71   4
   1   2   1 3342.71  164.74   4
   2  -1   1 3404.79  154.09   2
  -1  -2   1 3193.71  148.36   1
  -1  -2   1 3462.17  165.02   4
   2  -1   1 3405.20  149.19   1
   1   2   1 3268.01  137.46   3
  -2   1   1 3566.64  164.83   4
   2  -1   1 3509.18  164.71   4
  -2   1   1 3317.41  137.17   3
   2  -1   1 3397.42  137.11   3
   1   2   1 3335.20  148.60   1
   2   2  -1 0.21537 0.83809   1
  -2   2  -1 0.43838 1.15753   4
  -2  -2  -1 1.29096 1.06074   4
  -2   2  -1 -1.0593  1.1159   1
  -2   2  -1 0.82358 0.70822   3
   2  -2  -1 -0.3387  0.9420   2
  -2  -2  -1 -0.6993  0.4911   3
   2  -2  -1 -0.1877  0.5037   4
  -2  -2  -1 0.02861 0.96416   1
  -2   2  -1 -0.9262  1.6168   2
   2   2  -1 -1.3232  1.7865   4
  -2   2   1 0.65070 0.58339   3
  -2  -2   1 1.41977 1.75902   1
  -2  -2   1 -0.0056  1.6762   4
   2   2   1 0.98208 1.24288   1
  -2   2   1 1.15945 0.87038   2
  -2   2   1 0.33138 0.64793   3
  -2   2   1 0.20847 0.82735   4
   2  -2   1 -0.9932  1.8179   2
   2   2   1 0.78077 0.67869   3
   2  -2   1 0.22958 1.02286   4
   2  -2   1 -0.0869  1.0093   4
   2   2   1 0.95874 1.23590   4
   2  -2   1 -0.7447  0.9778   1
  -2   2   1 1.16399 0.85656   1
   2  -2   1 0.19707 0.54334   3
  -2   3  -1 90.0592  4.2820   3
  -3  -2  -1 83.6197  4.2482   3
  -3  -2  -1 92.2079  5.4231   4
  -2   3  -1 86.6342  5.1095   4
   3   2  -1 97.4081  6.2226   4
   2  -3  -1 84.0069  4.8976   2
   3   2  -1 92.7022  5.1226   1
  -2   3  -1 89.2544  4.7486   1
  -3  -2  -1 90.1606  4.9804   1
  -2   3  -1 89.1396  5.3650   2
  -2   3   1 88.0286  3.7249   3
   2  -3   1 89.4013  4.9482   4
   2  -3   1 91.8712  4.9298   4
  -3  -2   1 82.0522  6.1082   4
  -2   3   1 89.6134  4.7142   4
   3   2   1 90.0700  5.7433   4
  -2   3   1 90.0075  4.8174   2
   3   2   1 91.7820  5.2397   1
  -2   3   1 87.2694  4.0983   1
  -3  -2   1 83.3003  5.6942   1
   3   2   1 95.0775  4.5968   3
   2  -3   1 91.9247  4.2621   1
   2  -3   1 91.9933  5.5188   2
  -2   3   1 88.4536  3.7470   3
   3   1  -1 26.2356  2.4059   1
  -3  -1  -1 24.3302  1.8697   3
  -1   3  -1 29.6013  2.3013   4
   3   1  -1 30.0522  3.4036   4
   3   1  -1 25.5550  1.9321   3
  -1   3  -1 26.5334  1.8395   1
  -1   3  -1 26.4508  1.9263   3
  -1   3  -1 26.2406  2.6082   2
  -3  -1  -1 26.3660  2.2738   1
  -1   3  -1 26.6511  2.1254   4
  -3  -1  -1 27.2849  2.8181   4
  -1   3   1 24.8100  1.9934   2
   1  -3   1 22.2816  1.4819   1
  -3  -1   1 29.7656  2.8586   4
  -3  -1   1 26.0105  2.9849   1
   3   1   1 35.9105  2.8532   2
   1  -3   1 25.8038  1.9799   4
   3   1   1 24.9138  1.9162   3
   1  -3   1 26.6892  1.5779   1
   3   1   1 32.1514  2.6854   4
   1  -3   1 26.4303  1.8447   4
   1  -3   1 23.1657  2.8717   2
   3   1   1 28.7026  2.4266   1
   0   3  -1 0.19824 1.06821   4
   3   0  -1 -0.0602  1.8398   4
   0   3  -1 0.90806 0.93607   4
   3   0  -1 0.32686 1.35756   1
  -3   0  -1 -1.2186  1.1453   4
   3   0  -1 0.87638 0.73793   3
  -3   0  -1 1.64894 1.22362   3
   0   3  -1 0.48745 1.35698   2
  -3   0  -1 1.63697 1.27106   1
   0   3  -1 0.45749 0.74044   1
   0  -3   1 0.34601 0.80776   1
   3   0   1 0.98122 0.84529   3
   0   3   1 0.59971 0.38902   4
   3   0   1 -0.3789  1.0920   4
   0  -3   1 3.20946 0.78846   4
  -3   0   1 -1.0982  1.2475   4
   3   0   1 0.57153 1.55319   1
  -3   0   1 -0.6860  1.8631   1
   0  -3   1 0.72882 0.93772   4
   3   0   1 1.81050 1.73005   2
  -3   1  -1 31.7072  2.7542   4
  -3   1  -1 25.9511  2.0999   3
   3  -1  -1 29.1298  2.2640   1
   1   3  -1 25.5796  1.9862   1
  -1  -3  -1 24.7357  1.5607   4
   3  -1  -1 25.0933  2.5384   4
   1   3  -1 32.1722  2.7293   4
   3  -1  -1 25.0042  1.6370   3
   3  -1  -1 26.6236  2.1246   2
  -3   1  -1 25.8708  2.7124   1
  -3   1  -1 29.3972  2.5291   2
  -1  -3   1 27.6711  2.1918   4
  -3   1   1 28.4717  2.5925   4
  -3   1   1 29.9612  2.6758   1
   1   3   1 26.9620  1.8757   1
   1   3   1 28.2156  1.6044   3
   3  -1   1 26.9912  2.6041   2
   3  -1   1 32.1938  2.6433   1
  -3   1   1 25.5380  1.8855   3
   1   3   1 27.6094  1.9920   4
   3  -1   1 27.1753  2.0784   3
   3  -1   1 28.3447  2.5142   4
  -1  -3   1 28.2637  2.4793   4
  -1  -3   1 26.7085  2.1444   1
   2   3  -1 89.5146  4.8572   1
   3  -2  -1 94.2769  4.0017   3
   3  -2  -1 94.8355  5.1352   2
  -2  -3  -1 94.3976  4.4481   1
  -3   2  -1 92.1864  5.6909   2
   3  -2  -1 94.0972  5.1350   4
  -2  -3  -1 90.4074  5.0403   4
   3  -2  -1 90.8835  4.3642   1
  -3   2  -1 94.8483  5.5999   4
  -3   2  -1 91.9648  5.3528   1
  -3   2  -1 89.1334  4.5785   3
   2   3  -1 102.667   6.018   4
   3  -2   1 90.0569  5.3811   4
   2   3   1 87.6488  4.8619   1
  -3   2   1 90.6740  4.3690   3
  -2  -3   1 87.3500  5.8186   4
   3  -2   1 115.054   6.138   2
  -2  -3   1 77.7843  5.0884   1
   3  -2   1 87.8157  4.8910   1
   2   3   1 85.8658  4.3900   3
  -3   2   1 93.2946  5.3994   4
  -3   2   1 96.5620  4.9933   1
   2   3   1 88.9414  5.3858   4
   3   3  -1 1.02283 2.32255   4
  -3   3  -1 -1.2360  0.7342   3
  -3  -3  -1 -0.1449  1.2385   4
   3   3  -1 0.59373 1.03004   1
  -3   3  -1 -0.9978  1.3710   1
  -3   3  -1 2.08286 1.41742   4
  -3   3  -1 0.14633 1.90211   2
  -3  -3  -1 -1.1180  1.3622   1
   3  -3  -1 0.60385 1.43648   2
   3  -3   1 0.36269 2.21922   2
  -3  -3   1 -0.7833  1.7638   1
  -3   3   1 -0.4252  1.1114   1
   3  -3   1 0.10605 1.06319   4
   3  -3   1 0.38834 0.97670   4
  -3   3   1 -0.4677  0.6769   3
   3   3   1 1.61551 1.72373   4
  -3   3   1 0.85054 1.10616   4
   3   3   1 -0.1430  1.5843   1
  -3  -3   1 -0.6000  1.7789   4
   3  -3   1 -0.6478  0.8689   1
   3   3   1 0.56742 1.20582   3
  -3   3   1 0.87927 1.23817   2
  -3   4  -1 100.212   6.649   2
  -4  -3  -1 101.799   5.800   1
   4   3  -1 77.5359  6.9259   4
   3  -4  -1 98.6450  5.8098   2
  -3   4  -1 107.907   5.790   1
  -3   4  -1 106.764   5.038   3
   4   3  -1 95.0564  5.3871   3
  -4  -3  -1 117.065   6.710   4
   4   3  -1 114.144   6.228   1
  -3   4  -1 108.627   6.127   4
   3  -4   1 94.5760  5.5705   4
  -3   4   1 111.442   5.908   2
   4   3   1 88.2199  6.8170   4
  -3   4   1 100.785   4.520   3
  -3   4   1 110.358   5.869   4
   4   3   1 113.701   6.391   1
   4   3   1 104.137   5.434   3
  -4  -3   1 101.275   6.582   1
  -4  -3   1 87.3254  6.6880   4
   3  -4   1 109.772   6.648   2
  -2   4  -1 45.2013  2.5521   3
   4   2  -1 33.2627  3.9630   4
  -2   4  -1 41.1937  2.5996   1
   4   2  -1 41.3032  2.9917   3
  -2   4  -1 42.2715  2.7508   4
  -4  -2  -1 47.4523  4.0198   4
   4   2  -1 43.6548  3.4818   1
   2  -4  -1 39.1113  3.1657   2
  -4  -2  -1 44.2845  3.5083   1
  -2   4  -1 34.7652  3.7365   2
   4   2   1 42.7115  3.0242   3
   2  -4   1 38.4198  3.9391   2
   4   2   1 38.3072  3.9184   4
  -4  -2   1 31.9773  4.0820   4
   4   2   1 45.1460  3.4417   1
  -2   4   1 38.2577  3.0686   2
   2  -4   1 35.2027  2.3660   4
   2  -4   1 42.7675  2.4340   4
  -4  -2   1 42.8169  3.7092   1
  -2   4   1 39.9113  2.2768   4
  -1   4  -1 4053.59  194.39   4
  -4  -1  -1 4211.15  175.53   1
  -1   4  -1 4087.53  175.74   1
   4   1  -1 3792.09  193.93   4
  -1   4  -1 4156.57  195.09   4
  -4  -1  -1 4081.53  161.23   3
  -1   4  -1 4052.85  162.45   3
  -1   4  -1 3968.86  180.18   2
   4   1  -1 3871.26  161.17   3
  -4  -1  -1 4387.64  193.90   4
   4   1  -1 4138.06  175.28   1
   1  -4   1 3954.38  193.19   4
   4   1   1 3979.02  161.23   3
   4   1   1 4064.41  175.41   1
   4   1   1 4399.55  180.15   2
  -4  -1   1 3670.44  175.59   1
  -4  -1   1 3735.89  193.82   4
   4   1   1 3749.81  193.55   4
  -1   4   1 4010.17  179.62   2
   1  -4   1 4021.11  193.29   4
  -4   0  -1 155.196   8.381   1
   4   0  -1 167.363   9.546   4
  -4   0  -1 164.419   9.341   4
   0   4  -1 164.667   8.969   2
   4   0  -1 153.686   7.913   1
   0   4  -1 157.471   8.302   4
   0   4  -1 158.901   7.386   1
   0   4  -1 159.305   8.488   4
  -4   0  -1 159.203   7.274   3
   4   0   1 165.082   8.526   2
   0  -4   1 153.509   8.114   4
  -4   0   1 151.586   7.387   3
  -4   0   1 154.913   8.796   1
   4   0   1 157.914   8.325   1
   0  -4   1 160.566   7.974   4
   4   0   1 157.580   7.240   3
   4   0   1 151.435   9.220   4
  -4   0   1 161.997   9.604   4
   0   4   1 160.355   7.781   4
   1   4  -1 4167.78  196.53   4
   4  -1  -1 4234.95  196.73   4
  -4   1  -1 3855.41  178.53   1
  -4   1  -1 4282.32  163.96   3
   4  -1  -1 4453.21  182.84   2
  -4   1  -1 4324.16  197.13   4
  -4   1  -1 4503.96  183.19   2
   4  -1  -1 4091.36  177.98   1
   1   4  -1 3964.12  179.00   1
  -4   1   1 4160.89  163.93   3
  -1  -4   1 4091.27  196.62   4
  -1  -4   1 3599.81  196.15   4
  -4   1   1 3965.92  196.91   4
   4  -1   1 4185.29  183.19   2
   1   4   1 4047.14  197.95   4
  -1  -4   1 3683.76  178.46   1
   1   4   1 4148.30  178.94   1
   4  -1   1 4269.76  178.25   1
   4  -1   1 3679.39  196.65   4
  -4   1   1 4034.21  178.47   1
   4  -2  -1 40.0486  2.4179   3
   2   4  -1 38.8338  2.6518   1
   4  -2  -1 43.6607  3.0475   4
  -4   2  -1 44.1350  4.0199   4
   4  -2  -1 41.0011  3.3093   2
  -4   2  -1 41.6132  3.8727   1
  -4   2  -1 43.9876  3.5202   2
  -4   2  -1 36.4754  2.6695   3
   2   4  -1 45.0297  3.7053   4
  -2  -4  -1 39.7116  2.4795   4
   4  -2  -1 39.2817  2.7826   1
   2   4   1 37.2361  3.1860   4
  -4   2   1 40.4033  3.4474   1
   2   4   1 42.7897  2.8633   1
  -2  -4   1 42.6945  2.8950   1
  -2  -4   1 43.4322  3.0682   4
   4  -2   1 40.7537  4.0034   2
   4  -2   1 36.4506  3.4733   4
  -2  -4   1 34.5806  3.3189   4
   4  -2   1 43.6968  3.2588   1
  -4   2   1 41.1591  2.9176   3
   2   4   1 40.7034  2.5523   3
  -4   2   1 44.5665  3.6194   4
  -3  -4  -1 102.317   5.977   4
   3   4  -1 105.765   5.874   1
  -4   3  -1 114.370   6.688   4
   4  -3  -1 110.298   5.722   4
   3   4  -1 103.210   7.133   4
  -4   3  -1 112.051   5.429   3
  -4   3  -1 109.085   6.770   2
  -4   3  -1 99.2211  6.3983   1
   4  -3  -1 111.157   6.306   2
  -3  -4  -1 106.708   5.270   1
  -3  -4   1 105.380   5.965   1
  -4   3   1 108.602   5.157   3
   4  -3   1 98.1125  5.3857   1
  -4   3   1 112.613   6.037   1
   3   4   1 104.464   5.971   1
   3   4   1 122.005   6.915   4
  -4   3   1 103.534   6.633   4
  -3  -4   1 99.8874  6.5651   4
   3   4   1 97.7534  5.1460   3
  -4   3   1 118.628   5.970   2
   4  -3   1 86.8774  6.2084   4
   4  -3   1 102.904   6.665   2
  -4   4  -1 0.03441 1.66027   4
  -4   4  -1 -1.9157  2.2621   2
  -4   4  -1 0.87152 1.85984   1
  -4  -4  -1 0.53770 1.07466   4
   4  -4  -1 0.54976 1.41895   2
   4   4  -1 0.43506 2.00509   4
   4   4  -1 0.90539 1.37987   1
  -4   4  -1 -1.7179  0.8707   3
  -4  -4  -1 0.13281 1.29955   1
   4   4   1 0.43723 2.13706   4
   4  -4   1 -1.1786  2.6304   2
   4  -4   1 0.28900 0.94616   4
  -4  -4   1 -0.6686  2.0871   1
   4  -4   1 0.76915 1.01143   4
  -4   4   1 -0.1227  1.6142   2
  -4  -4   1 -1.9705  2.1869   4
  -4   4   1 -0.3538  0.9603   3
   4   4   1 0.00043 1.10573   3
  -4   4   1 1.16616 1.36276   1
  -4   4   1 1.17338 1.53998   4
   4   4   1 -0.2818  1.4272   1
  -5  -4  -1 1352.98   61.60   4
   5   4  -1 1303.24   55.90   1
  -4   5  -1 1263.16   57.70   2
  -4   5  -1 1343.20   61.18   4
   5   4  -1 1074.32   62.35   4
   5   4  -1 1176.49   51.19   3
  -4   5  -1 1259.70   55.49   1
  -4   5  -1 1316.32   50.90   3
  -5  -4  -1 1320.48   55.47   1
   4  -5  -1 1253.41   57.27   2
  -4   5   1 1153.37   60.90   4
   5   4   1 1315.07   56.14   1
  -4   5   1 1338.12   57.14   2
  -5  -4   1 1242.42   56.03   1
  -5  -4   1 1232.90   62.05   4
   5   4   1 1050.39   61.73   4
   4  -5   1 1231.90   57.87   2
   5   4   1 1192.10   51.22   3
  -4   5   1 1291.37   50.51   3
  -4   5   1 1266.49   55.13   1
  -5  -3  -1 159.865   9.205   4
  -3   5  -1 147.684   6.721   3
   3  -5  -1 150.500   8.263   2
  -3   5  -1 145.550   8.480   2
  -5  -3  -1 143.768   8.125   1
   5   3  -1 116.587   9.785   4
   5   3  -1 156.021   8.456   1
   5   3  -1 138.348   7.335   3
  -3   5  -1 148.190   7.378   1
  -3   5  -1 153.814   8.084   4
   5   3   1 139.174   7.320   3
  -5  -3   1 137.272   9.205   4
   5   3   1 142.518   8.570   1
  -3   5   1 144.611   7.974   2
   5   3   1 121.600   8.887   4
   3  -5   1 138.109   8.993   2
  -3   5   1 148.891   6.111   3
  -3   5   1 156.101   7.771   4
  -5  -3   1 139.611   8.345   1
   5   2  -1 618.544  36.883   4
  -5  -2  -1 788.342  36.878   4
   5   2  -1 728.651  30.144   3
  -2   5  -1 761.522  35.489   4
  -2   5  -1 719.780  32.049   1
  -2   5  -1 704.154  34.115   2
   5   2  -1 734.155  32.924   1
  -5  -2  -1 736.740  30.085   3
  -2   5  -1 771.269  35.610   4
  -5  -2  -1 779.979  33.162   1
  -2   5  -1 727.626  29.634   3
  -5  -2   1 660.976  36.746   4
   5   2   1 714.016  30.138   3
  -5  -2   1 686.704  33.423   1
   2  -5   1 724.550  34.280   2
   5   2   1 750.054  33.152   1
   5   2   1 635.168  36.516   4
  -2   5   1 724.751  33.478   2
  -2   5   1 763.460  34.845   4
  -1   5  -1 55.6515  3.1546   1
  -1   5  -1 58.2347  4.6524   2
   5   1  -1 62.7922  4.7757   1
  -5  -1  -1 60.5550  5.1001   1
  -1   5  -1 58.0619  3.8286   4
  -1   5  -1 56.8731  3.6501   4
  -1   5  -1 58.1248  3.2006   3
  -5  -1  -1 57.1502  3.9560   3
   5   1  -1 58.5997  5.5944   4
  -5  -1   1 63.8455  5.4096   1
   5   1   1 58.1485  4.4494   2
  -5  -1   1 53.0359  5.3535   4
   5   1   1 62.1954  4.7968   1
   5   1   1 60.6877  5.3240   4
  -1   5   1 55.7386  4.2420   2
   5   1   1 57.3302  3.9411   3
   0   5  -1 1.39978 0.86548   1
   5   0  -1 -0.6777  1.5214   4
  -5   0  -1 2.21422 2.68673   1
   0   5  -1 1.48954 1.04380   4
  -5   0  -1 1.20493 1.17001   3
   0   5  -1 0.32547 1.72865   2
  -5   0  -1 0.16984 2.47602   4
   5   0  -1 0.76902 1.85816   1
   0   5  -1 1.01433 0.91465   4
   0   5   1 -0.4429  0.4833   4
   5   0   1 -2.4670  2.1818   2
  -5   0   1 -1.8991  2.4057   4
   5   0   1 -0.4213  1.5181   4
  -5   0   1 -1.1680  1.5905   3
   5   0   1 -1.0646  2.0754   1
   0   5   1 0.16893 1.19846   2
  -5   0   1 -0.0986  2.6077   1
  -5   1  -1 45.4435  5.1578   4
   1   5  -1 59.7195  3.3793   1
   5  -1  -1 64.2802  4.9856   4
  -5   1  -1 46.1228  5.0015   1
   5  -1  -1 49.4187  4.0233   1
   5  -1  -1 66.8273  4.5485   2
   1   5  -1 68.1389  4.4512   4
  -5   1  -1 56.8354  3.9129   3
  -5   1   1 58.0304  4.9322   4
  -5   1   1 60.1563  4.9758   1
  -5   1   1 57.9560  4.0260   3
   1   5   1 54.2909  3.0122   1
   5  -1   1 51.5810  4.4989   4
   5  -1   1 57.7258  4.8734   2
   5  -1   1 58.9530  4.5397   1
   1   5   1 58.2619  3.5363   4
  -5   2  -1 753.546  30.700   3
   5  -2  -1 780.855  36.831   4
   5  -2  -1 750.737  33.010   1
  -5   2  -1 799.681  34.771   2
   2   5  -1 765.536  37.141   4
   5  -2  -1 768.421  34.381   2
   2   5  -1 768.875  33.022   1
  -5   2  -1 703.844  37.421   4
  -2  -5   1 707.625  32.534   1
   2   5   1 752.511  30.300   3
   2   5   1 715.001  36.540   4
   5  -2   1 616.286  36.836   4
   2   5   1 759.581  32.961   1
   5  -2   1 757.039  33.333   1
  -2  -5   1 731.272  36.167   4
  -5   2   1 733.964  33.843   1
  -5   2   1 786.789  30.737   3
  -5   2   1 711.390  37.299   4
   5  -2   1 741.320  34.856   2
  -2  -5   1 726.391  36.434   4
  -5   3  -1 158.566   7.164   3
   5  -3  -1 155.580   7.932   4
   3   5  -1 138.814   7.539   1
   5  -3  -1 138.591   6.519   1
  -5   3  -1 115.071   8.444   1
   3   5  -1 157.205   9.205   4
  -5   3  -1 147.792   8.881   4
  -5   3  -1 149.804   8.647   2
   5  -3  -1 144.255   8.198   2
   3   5   1 122.204   8.470   4
  -3  -5   1 139.670   7.153   1
   5  -3   1 155.966   8.719   2
  -5   3   1 122.717   8.728   4
  -5   3   1 156.269   8.257   1
  -3  -5   1 146.951   8.019   4
  -5   3   1 156.649   7.070   3
   5  -3   1 128.144   8.342   4
   3   5   1 148.160   6.895   3
   5  -3   1 133.396   7.243   1
   3   5   1 143.989   7.646   1
  -3  -5   1 141.544   8.383   4
  -5   4  -1 1246.25   56.90   1
  -5   4  -1 1276.14   58.48   2
   5  -4  -1 1222.33   58.18   2
  -4  -5  -1 1314.41   61.87   4
  -4  -5  -1 1332.57   55.72   1
  -5   4  -1 1390.02   62.73   4
  -5   4  -1 1344.91   51.89   3
   4   5  -1 1258.54   56.46   1
   4   5  -1 1269.52   63.37   4
  -4  -5   1 1291.52   62.52   4
   5  -4   1 1232.24   58.82   2
   4   5   1 1235.03   51.90   3
  -5   4   1 1162.58   62.38   4
   4   5   1 1314.07   56.70   1
  -5   4   1 1300.10   51.70   3
  -4  -5   1 1279.36   56.32   1
   5  -4   1 1247.76   55.47   1
   5  -4   1 1290.04   61.76   4
  -5   4   1 1355.75   58.06   2
  -5   4   1 1244.97   56.53   1
   4   5   1 1059.21   62.48   4
   5   5  -1 1.84755 3.35343   4
   5  -5  -1 -1.5296  2.3637   2
  -5  -5  -1 1.22277 1.28681   4
  -5   5  -1 -1.7220  1.1052   3
   5   5  -1 -2.0039  2.4646   1
  -5   5  -1 0.95158 2.23745   1
   5   5  -1 1.29428 1.89626   3
  -5  -5  -1 0.10251 1.68245   1
  -5   5  -1 0.07464 1.41058   4
   5   5   1 -0.5294  1.9383   3
  -5   5   1 0.18027 1.77831   4
  -5   5   1 1.48498 1.82659   1
   5   5   1 -1.2019  2.5349   1
  -5   5   1 -0.5461  1.4316   2
  -5  -5   1 2.16876 2.96805   1
   5  -5   1 3.46853 3.37869   2
   5   5   1 -1.5156  2.5716   4
  -5   5   1 -0.3849  1.2581   3
  -5  -5   1 -2.3068  1.6101   4
   6   5  -1 220.632  11.861   1
  -5   6  -1 221.880  12.423   4
   6   5  -1 225.641  14.749   4
  -5   6  -1 230.375  10.295   3
  -6  -5  -1 219.291  12.805   4
  -6  -5  -1 239.514  11.444   1
  -5   6  -1 222.484  11.464   1
   5  -6  -1 227.479  12.489   2
  -5   6   1 217.790  12.274   4
  -5   6   1 220.050  11.971   2
   5  -6   1 218.773  13.268   2
  -6  -5   1 215.802  12.087   1
  -6  -5   1 237.944  13.343   4
   6   5   1 224.709  12.614   1
  -5   6   1 211.720  11.256   1
   6   5   1 195.096  13.740   4
  -5   6   1 225.450   9.868   3
   6   4  -1 9.75199 3.26505   4
  -4   6  -1 11.1253  1.7890   3
  -4   6  -1 6.48164 1.96092   1
   4  -6  -1 12.7592  2.4022   2
   6   4  -1 12.7809  3.3289   1
  -6  -4  -1 7.48760 2.91363   4
  -6  -4  -1 11.8863  2.8446   1
  -4   6  -1 7.03869 1.90340   4
   6   4   1 6.47001 3.43499   4
  -6  -4   1 9.13598 3.42107   1
  -6  -4   1 10.1511  2.8449   4
  -4   6   1 10.1155  2.0740   2
  -4   6   1 10.7980  1.7702   1
  -4   6   1 7.08449 1.63202   4
   6   4   1 11.7726  3.4137   1
  -4   6   1 10.0311  1.2829   3
   4  -6   1 11.0709  3.8064   2
  -3   6  -1 23.6130  2.0510   3
   6   3  -1 15.7969  2.3062   3
  -6  -3  -1 23.8939  3.8916   4
  -3   6  -1 24.8914  2.2469   1
   6   3  -1 26.5335  3.7602   1
   6   3  -1 23.4409  4.0677   4
  -6  -3  -1 24.7801  3.0995   1
  -3   6  -1 20.9797  2.3200   4
   6   3   1 16.5647  2.7818   3
  -6  -3   1 25.4968  4.1525   1
   6   3   1 32.7371  4.1223   1
  -6  -3   1 22.2483  3.5952   4
   3  -6   1 23.3869  4.1782   2
  -3   6   1 22.5746  1.2544   3
  -3   6   1 26.1888  3.0783   2
   6   3   1 14.3102  3.6619   4
  -3   6   1 20.1976  2.0031   4
  -2   6  -1 51.8761  4.7386   2
   6   2  -1 57.0937  4.6472   1
  -2   6  -1 50.0778  3.5898   4
  -6  -2  -1 52.1737  4.7074   1
  -6  -2  -1 54.2774  3.9270   3
  -2   6  -1 49.7834  3.1719   1
  -2   6  -1 51.1996  3.1158   3
   6   2  -1 50.2718  5.4862   4
  -6  -2  -1 61.6391  5.7919   4
  -2   6  -1 55.0505  3.8067   4
  -2   6   1 54.1372  2.7111   4
  -6  -2   1 64.3394  5.9457   1
   6   2   1 54.9428  5.0117   1
   6   2   1 49.9374  4.0221   3
  -2   6   1 56.0002  4.5487   2
   6   2   1 45.9190  4.8957   4
   6   2   1 56.5632  5.1310   2
  -6  -1  -1 429.743  18.670   3
  -6  -1  -1 451.781  21.208   1
  -1   6  -1 442.860  21.623   4
  -1   6  -1 438.503  19.298   1
   6   1  -1 441.762  20.388   1
  -1   6  -1 432.273  21.432   4
  -1   6  -1 408.020  21.258   2
   6   1  -1 446.696  23.541   4
   6   1   1 427.853  20.669   1
  -6  -1   1 429.628  23.237   4
   6   1   1 485.896  21.407   2
  -1   6   1 425.253  20.771   2
  -6  -1   1 407.621  21.221   1
   6   1   1 358.051  22.572   4
   0   6  -1 124.895   7.049   4
   6   0  -1 135.002   7.628   2
   0   6  -1 116.554   5.977   1
  -6   0  -1 124.500   7.901   1
   6   0  -1 125.610   8.242   4
  -6   0  -1 121.693   6.617   3
  -6   0  -1 90.1801  8.0453   4
   0   6  -1 115.778   7.638   2
   6   0  -1 121.170   7.356   1
   0   6  -1 123.661   6.775   4
  -6   0   1 126.067   6.735   3
   6   0   1 130.239   7.654   2
   6   0   1 114.575   7.489   1
  -6   0   1 109.045   8.750   4
   6   0   1 97.3598  8.0970   4
   0   6   1 130.183   6.244   4
  -6   0   1 118.154   8.380   1
   0   6   1 119.512   7.073   2
   6  -1  -1 430.554  22.724   4
  -6   1  -1 456.156  18.742   3
   1   6  -1 437.907  21.879   2
   1   6  -1 443.036  19.614   1
   1   6  -1 438.810  22.198   4
  -6   1  -1 358.252  21.190   1
   6  -1  -1 462.249  20.330   1
   6  -1  -1 459.556  21.163   2
   6  -1   1 468.012  21.557   2
   1   6   1 431.514  21.666   4
   6  -1   1 455.801  20.583   1
  -6   1   1 397.798  23.082   4
  -6   1   1 411.104  21.202   1
   6  -1   1 373.908  22.718   4
   1   6   1 445.458  19.347   1
  -6   1   1 451.838  18.934   3
  -6   2  -1 31.1880  4.9844   1
  -6   2  -1 52.5813  3.9002   3
   2   6  -1 56.0413  3.6748   1
  -6   2  -1 46.0339  5.3499   4
   2   6  -1 54.3152  4.6946   4
   6  -2  -1 56.4512  4.6569   2
   6  -2  -1 54.2662  4.6357   4
   6  -2  -1 49.2281  3.7521   1
   6  -2   1 51.8688  5.1368   2
   6  -2   1 56.3031  4.2572   1
  -6   2   1 50.9920  3.8974   3
  -6   2   1 51.8160  5.0267   4
   2   6   1 46.4759  3.0475   3
  -6   2   1 48.8432  5.0236   1
   6  -2   1 43.9243  4.6147   4
   2   6   1 52.8482  3.6930   1
   2   6   1 49.0183  4.0680   4
   3   6  -1 26.0369  2.8115   1
   6  -3  -1 19.2038  1.8464   1
   3   6  -1 29.4471  3.4960   4
   6  -3  -1 28.8710  3.6135   2
  -6   3  -1 20.5034  4.0334   1
  -6   3  -1 28.1956  2.5403   3
  -6   3  -1 31.0761  4.1633   4
  -6   3   1 25.4079  2.8039   3
  -6   3   1 27.1696  3.8569   1
   3   6   1 20.1751  3.0913   4
   3   6   1 22.2876  2.3209   3
   3   6   1 24.7130  2.7433   1
  -3  -6   1 28.2013  2.8032   4
   6  -3   1 19.0553  3.9944   2
  -6   3   1 26.6590  3.8770   4
  -3  -6   1 15.1630  1.4778   1
   6  -3   1 20.2570  2.8214   1
  -6   4  -1 8.77512 2.25133   3
  -6   4  -1 6.15466 3.30261   1
  -6   4  -1 10.8693  2.5719   4
   4   6  -1 10.0053  2.5328   1
   4   6  -1 9.75172 2.76247   4
   6  -4  -1 8.40268 2.32345   2
  -4  -6   1 10.7209  2.0612   1
  -6   4   1 9.03893 2.88374   1
   4   6   1 11.2048  2.2151   3
   4   6   1 8.02814 2.59993   1
   4   6   1 7.55474 2.89522   4
  -4  -6   1 7.05933 2.21544   4
  -6   4   1 8.25366 2.31959   4
   6  -4   1 8.58114 1.64861   1
  -6   4   1 8.29308 2.14854   3
   6  -4   1 6.05336 2.75631   2
   6  -5  -1 202.285  12.347   2
  -6   5  -1 224.967  12.818   4
  -6   5  -1 232.465  10.576   3
   5   6  -1 219.650  11.965   1
  -6   5  -1 240.914  12.418   1
   5   6  -1 239.765  14.529   4
   6  -5   1 215.880  13.268   2
  -6   5   1 204.590  12.848   4
  -6   5   1 225.457  10.374   3
  -6   5   1 235.578  11.972   2
  -5  -6   1 233.525  12.944   4
   5   6   1 233.936  12.286   1
  -5  -6   1 229.663  11.459   1
   5   6   1 211.033  13.580   4
  -6   5   1 201.487  11.719   1
  -6  -6  -1 0.27179 2.17472   1
  -6   6  -1 0.69018 1.93419   3
  -6   6  -1 0.10516 2.62105   1
   6   6  -1 -2.6193  2.9962   1
   6  -6  -1 -1.2587  2.0691   2
  -6   6  -1 -0.5744  2.2353   4
   6  -6   1 -0.2092  3.8110   2
  -6   6   1 -1.0439  2.0750   4
  -6  -6   1 -0.8017  2.7030   1
  -6   6   1 -0.6679  1.9523   3
   6   6   1 0.32317 3.39828   1
  -6   6   1 -1.0177  2.7087   1
  -6   7  -1 294.251  15.871   4
   7   6  -1 288.011  15.676   1
  -6   7  -1 288.570  13.140   3
  -7  -6  -1 287.342  14.162   1
  -6   7  -1 277.724  14.519   1
   6  -7  -1 272.505  15.804   2
   6  -7   1 270.917  16.190   2
  -6   7   1 279.900  15.542   4
  -7  -6   1 297.696  15.468   1
   7   6   1 304.073  16.168   1
  -6   7   1 290.440  12.864   3
  -5   7  -1 148.384   9.296   4
  -5   7  -1 161.617   8.685   1
   7   5  -1 150.384  10.195   1
  -7  -5  -1 170.924   9.361   1
  -5   7  -1 162.455   7.871   3
   5  -7  -1 157.283   9.601   2
  -5   7   1 162.985   9.086   4
   5  -7   1 150.899  10.272   2
  -5   7   1 149.550   7.348   3
  -7  -5   1 170.233  10.295   1
   7   5   1 149.255  10.535   1
  -4   7  -1 1650.47   74.41   1
  -4   7  -1 1698.95   68.53   3
  -4   7  -1 1710.22   82.16   4
  -7  -4  -1 1756.19   75.35   1
   7   4  -1 1646.19   75.58   1
   4  -7   1 1623.90   78.01   2
   7   4   1 1697.14   75.90   1
  -4   7   1 1694.98   68.00   3
  -4   7   1 1710.84   81.82   4
  -7  -4   1 1709.15   75.87   1
  -3   7  -1 167.053   9.010   4
  -3   7  -1 169.045   8.109   1
  -7  -3  -1 167.805  10.086   1
  -3   7  -1 160.912   7.558   3
  -7  -3  -1 178.038  11.278   4
   7   3  -1 160.070   9.484   1
  -3   7   1 164.489   8.418   4
  -7  -3   1 159.747  11.385   4
  -7  -3   1 151.228  10.542   1
  -3   7   1 162.149   9.449   2
  -3   7   1 164.679   6.679   3
   7   3   1 121.047  10.703   4
   7   3   1 168.407  10.355   1
  -7  -2  -1 1343.52   63.18   4
  -2   7  -1 1267.82   50.90   3
  -7  -2  -1 1202.73   51.60   3
   7   2  -1 1286.36   56.54   1
  -2   7  -1 1286.60   60.93   4
  -7  -2  -1 1324.39   56.84   1
  -2   7  -1 1233.84   55.06   1
   7   2  -1 1244.08   63.33   4
  -2   7  -1 1279.82   61.06   4
  -2   7   1 1207.75   60.09   4
   7   2   1 1103.12   62.54   4
   7   2   1 1362.44   58.45   2
   7   2   1 1239.59   56.65   1
  -7  -2   1 1247.69   57.12   1
  -2   7   1 1189.28   57.50   2
  -7  -1  -1 17.2691  2.4240   3
  -1   7  -1 15.3408  1.9207   4
   7   1  -1 19.4768  3.5967   1
   7   1  -1 21.3389  4.2337   4
  -7  -1  -1 16.8450  3.5608   4
  -1   7  -1 16.3794  1.8106   1
  -7  -1  -1 17.9735  4.3479   1
  -1   7  -1 17.7188  2.4176   4
  -7  -1   1 22.4219  4.5059   4
  -1   7   1 15.3900  1.2013   4
   7   1   1 10.6181  3.6253   4
   7   1   1 17.1211  3.8396   2
   7   1   1 14.8120  3.6646   1
  -7  -1   1 16.2153  4.3226   1
  -1   7   1 15.8820  3.0257   2
   0   7  -1 0.11801 1.40083   4
   7   0  -1 1.07120 2.91111   4
   0   7  -1 0.02237 1.04539   1
  -7   0  -1 -5.1268  3.0519   4
  -7   0  -1 0.51810 2.28032   3
  -7   0  -1 0.35300 3.75299   1
   7   0  -1 2.18159 2.70224   2
   7   0  -1 0.39346 2.68655   1
   7   0   1 -0.0850  2.0334   1
   7   0   1 1.18621 2.11048   4
  -7   0   1 -2.9035  3.4741   1
   0   7   1 2.83911 0.99743   4
   7   0   1 3.07044 2.28799   2
   0   7   1 3.68563 2.54093   2
  -7   0   1 -0.8797  2.2920   4
   1   7  -1 20.5478  2.7130   4
   7  -1  -1 16.0778  2.8688   4
   1   7  -1 13.5940  1.8881   1
  -7   1  -1 10.4799  4.0868   4
  -7   1  -1 10.3329  4.3028   1
  -7   1  -1 23.6069  2.9824   3
   7  -1  -1 18.2303  3.3867   2
   7  -1  -1 19.6753  3.0475   1
   7  -1   1 17.5876  3.0598   4
   7  -1   1 10.0751  3.6203   2
  -7   1   1 16.2545  4.1473   4
   1   7   1 13.1205  3.2275   2
   1   7   1 17.8710  1.6785   1
  -7   1   1 14.0355  2.8382   3
   7  -1   1 21.2659  3.5317   1
  -7   1   1 16.4494  4.2567   1
   1   7   1 15.9791  2.2053   4
   7  -2  -1 1227.02   53.85   1
   7  -2  -1 1220.67   56.01   2
  -7   2  -1 1066.99   55.29   1
   2   7  -1 1304.28   59.95   4
  -7   2  -1 1261.25   50.01   3
   2   7  -1 1245.17   53.65   1
  -7   2  -1 1158.37   60.90   4
  -7   2   1 1287.07   50.15   3
   7  -2   1 1267.48   54.28   1
   2   7   1 1252.26   49.27   3
   2   7   1 1291.94   53.63   1
   7  -2   1 1227.51   56.49   2
  -7   2   1 1173.50   60.80   4
   2   7   1 1102.69   59.35   4
  -7   2   1 1182.57   55.15   1
   7  -2   1 1092.60   60.12   4
   7  -3  -1 154.931   9.331   2
   3   7  -1 163.335   8.586   1
  -7   3  -1 148.771  10.707   1
  -7   3  -1 162.782  11.161   4
   3   7  -1 186.618  10.626   4
  -7   3  -1 168.132   8.472   3
   7  -3   1 152.776   8.559   1
  -7   3   1 155.938  10.134   1
   7  -3   1 159.224   9.978   2
   3   7   1 160.799   7.800   3
   3   7   1 157.571   8.827   1
  -7   3   1 168.193  10.981   4
  -7   3   1 166.286   8.536   3
   3   7   1 140.452   9.681   4
   4   7  -1 1683.01   82.77   4
  -7   4  -1 1756.72   68.41   3
   4   7  -1 1657.11   74.10   1
  -7   4  -1 1821.04   82.86   4
  -7   4  -1 1706.54   75.34   1
   7  -4  -1 1637.83   76.62   2
   4   7   1 1659.37   68.19   3
  -7   4   1 1570.73   74.78   1
  -7   4   1 1715.64   82.68   4
   7  -4   1 1562.27   77.08   2
   7  -4   1 1643.15   73.28   1
   4   7   1 1748.91   74.36   1
   4   7   1 1489.79   82.04   4
  -7   4   1 1757.36   68.45   3
  -7   5  -1 158.819  10.379   4
   5   7  -1 151.147   9.353   1
   7  -5  -1 143.343   9.817   2
  -7   5  -1 168.301  10.259   1
  -7   5  -1 160.646   8.229   3
   5   7   1 147.136   9.494   1
  -7   5   1 159.622   9.928   4
  -7   5   1 153.246   8.123   3
   7  -5   1 143.404  10.693   2
  -7   5   1 146.305   9.486   1
   5   7   1 138.343  10.492   4
  -7   6  -1 284.240  16.349   4
  -7   6  -1 318.902  15.722   1
  -7   6  -1 295.004  13.608   3
   7  -6  -1 283.162  16.168   2
   6   7  -1 287.304  15.534   1
  -7   6   1 299.403  16.610   4
  -7   6   1 305.877  13.559   3
   7  -6   1 271.355  16.393   2
   6   7   1 305.200  16.027   1
  -7   6   1 269.632  15.134   1
  -7   7  -1 1.51949 2.76890   4
   7   7  -1 5.51480 3.91725   1
  -7   7  -1 -4.3589  2.1593   3
  -7   7  -1 0.96483 3.06021   1
   7  -7  -1 0.04257 3.72461   2
   7   7   1 5.01568 4.33635   1
   7  -7   1 0.91140 4.49425   2
  -7   7   1 0.04319 2.02348   3
  -7   7   1 0.55285 2.46180   4
   8   7  -1 143.313  11.357   1
  -7   8  -1 166.270   8.795   3
  -7   8   1 167.699   8.423   3
   8   7   1 163.270  12.092   1
   6  -8  -1 57.3876  6.2820   2
  -6   8  -1 49.6185  4.6738   4
   8   6  -1 53.2354  6.4016   1
  -6   8  -1 48.5519  4.0230   3
  -8  -6  -1 37.5813  4.4038   1
  -6   8   1 49.7547  3.5383   3
  -8  -6   1 51.4878  5.6765   1
  -6   8   1 50.6170  4.3501   4
   6  -8   1 32.0753  6.3499   2
   8   6   1 41.2507  6.3381   1
  -5   8  -1 127.291   7.913   4
   8   5  -1 122.679   9.583   1
  -8  -5  -1 124.537   8.657   1
  -5   8  -1 136.503   6.765   3
  -5   8   1 121.961   6.065   3
   5  -8   1 111.040   9.083   2
  -5   8   1 124.693   7.445   4
  -8  -5   1 119.290   9.572   1
   8   5   1 117.353   9.568   1
  -8  -4  -1 69.8395  6.2955   1
  -4   8  -1 54.2875  4.0052   3
  -4   8  -1 58.0659  4.9217   4
   8   4  -1 54.8712  6.1999   1
   8   4   1 68.7944  6.7750   1
  -4   8   1 59.6557  3.2573   3
  -8  -4   1 68.4150  6.3157   1
  -4   8   1 64.0347  4.0162   4
  -3   8  -1 6.64499 1.74295   4
   8   3  -1 11.0098  3.1703   1
  -8  -3  -1 8.28710 3.05660   1
  -3   8  -1 6.39852 1.61641   3
  -8  -3   1 13.5600  4.7746   1
  -3   8   1 7.70429 1.05087   4
   8   3   1 0.69157 3.74100   1
   8   3   1 7.69689 4.00347   2
  -3   8   1 7.55197 0.73236   3
  -2   8  -1 -0.0924  1.4215   1
  -2   8  -1 1.05333 1.57595   3
  -8  -2  -1 -0.9217  3.9220   1
  -2   8  -1 -0.6423  1.7076   4
   8   2  -1 2.04276 3.52388   1
  -2   8  -1 2.25255 1.61651   4
   8   2   1 2.79727 2.72534   2
  -2   8   1 1.08542 0.46690   4
  -8  -2   1 -2.0208  2.8217   1
   8   2   1 -1.3232  3.4132   1
  -8  -1  -1 494.813  23.124   1
  -8  -1  -1 462.569  20.334   3
  -1   8  -1 437.995  19.217   3
  -1   8  -1 447.054  22.829   4
  -1   8  -1 456.403  23.065   4
   8   1  -1 481.793  23.090   2
  -1   8  -1 427.755  20.507   1
   8   1  -1 432.757  22.217   1
   8   1   1 460.324  22.529   1
   8   1   1 440.687  23.260   2
  -8  -1   1 475.711  25.639   4
  -8  -1   1 439.083  23.284   1
  -1   8   1 470.796  22.157   4
  -8   0  -1 55.2135  6.2333   1
  -8   0  -1 72.0210  7.0776   4
  -8   0  -1 63.1325  4.6975   3
   8   0  -1 67.1599  6.2688   4
   8   0  -1 63.1457  5.6889   1
   0   8  -1 59.2519  4.9961   4
   8   0  -1 65.7269  5.4936   2
   0   8  -1 57.2880  3.7960   1
  -8   0   1 70.2997  6.7383   4
  -8   0   1 51.0792  6.6198   1
   8   0   1 59.9819  5.3931   1
   0   8   1 59.8680  3.9270   4
   8   0   1 57.8019  6.1841   2
  -8   1  -1 436.101  19.623   3
   8  -1  -1 442.067  22.069   2
   1   8  -1 449.083  20.043   1
  -8   1  -1 463.452  23.085   1
   1   8  -1 439.216  22.675   4
   8  -1  -1 435.737  21.029   1
  -8   1  -1 431.816  24.556   4
  -8   1   1 422.025  22.453   1
   8  -1   1 440.505  22.366   2
  -8   1   1 445.379  24.357   4
   8  -1   1 405.231  23.750   4
   1   8   1 423.774  22.189   4
  -8   1   1 453.059  19.755   3
   8  -1   1 442.579  21.393   1
   2   8  -1 1.14140 1.74594   4
  -8   2  -1 2.76985 4.49360   1
   2   8  -1 0.47446 2.16388   1
   8  -2  -1 -3.9985  2.8913   2
  -8   2  -1 0.60845 1.78918   3
   8  -2  -1 8.29736 2.95076   1
  -8   2  -1 -3.5153  3.6885   4
   2   8   1 0.14788 1.76585   4
   2   8   1 0.25924 1.88756   1
  -8   2   1 1.62600 2.63463   4
  -8   2   1 -3.1470  2.4724   3
   2   8   1 3.19457 1.40041   3
  -8   2   1 -3.2401  3.7223   1
   8  -2   1 1.75932 3.67591   2
   8  -2   1 -1.5668  2.6604   1
  -8   3  -1 8.36373 4.14353   4
   8  -3  -1 0.47444 2.28951   2
   3   8  -1 8.37043 3.07309   4
   3   8  -1 6.74216 2.38869   1
  -8   3  -1 6.17858 4.57287   1
  -8   3  -1 7.62961 2.82630   3
   8  -3  -1 5.28396 1.98885   1
   8  -3   1 8.95799 3.17607   2
  -8   3   1 5.44945 3.85865   4
  -8   3   1 7.71107 4.06287   1
   8  -3   1 4.58320 2.46971   1
  -8   3   1 7.69536 2.89840   3
   3   8   1 7.98620 2.69709   4
   3   8   1 10.4555  2.5125   1
   3   8   1 4.81837 1.90224   3
  -8   4  -1 54.5373  6.6943   1
   8  -4  -1 61.2511  6.1355   2
   4   8  -1 53.6236  6.0396   4
  -8   4  -1 61.3595  4.6339   3
   4   8  -1 62.4714  5.1541   1
  -8   4  -1 68.2530  6.8759   4
  -8   4   1 74.5640  6.9128   4
   4   8   1 49.6432  5.6350   4
  -8   4   1 58.1263  4.6388   3
   4   8   1 62.9481  5.4016   1
   8  -4   1 56.2191  6.6608   2
  -8   4   1 72.3168  6.5710   1
  -8   5  -1 121.271   8.903   4
   5   8  -1 119.668   8.392   1
  -8   5  -1 131.710   9.774   1
  -8   5  -1 111.517   7.324   3
   8  -5  -1 105.145   8.246   2
   5   8   1 117.165   9.128   1
  -8   5   1 132.501   8.997   4
  -8   5   1 118.939   9.076   1
   8  -5   1 126.458   9.213   2
  -8   5   1 127.811   7.566   3
  -8   6  -1 50.5650  4.5796   3
  -8   6  -1 47.8157  5.7049   4
  -8   6  -1 52.3124  6.0691   1
   8  -6  -1 42.8225  5.9411   2
   6   8  -1 41.6129  5.4124   1
   6   8   1 44.3010  5.7197   1
  -8   6   1 44.2382  4.3341   3
  -8   6   1 44.7884  5.3951   1
  -8   6   1 49.4214  5.1787   4
   7   8  -1 154.473  10.943   1
  -8   7  -1 167.439  10.854   4
  -8   7  -1 143.452  10.235   1
  -8   7  -1 154.868   8.761   3
   7   8   1 157.293  11.443   1
  -8   7   1 140.142  10.614   1
  -8   7   1 155.593   8.697   3
   8   8  -1 -0.0107  4.5826   1
  -8   8  -1 -0.9825  2.6200   3
  -8   8   1 1.61604 2.49868   3
   8   8   1 -6.3658  4.7389   1
  -8   9  -1 58.4389  5.0164   3
   9   8  -1 46.2380  7.2288   1
   9   8   1 43.4140  7.5568   1
  -7   9  -1 70.4397  5.1690   3
   9   7  -1 66.6226  7.8663   1
   9   7   1 64.8723  8.1732   1
  -7   9   1 67.3372  4.8689   3
   9   6  -1 9.74269 5.14383   1
  -9  -6  -1 21.4676  4.7495   1
  -6   9  -1 12.5699  2.6170   3
   9   6   1 6.46125 5.36781   1
  -6   9   1 12.3158  2.2545   3
   9   5  -1 112.686   8.741   1
  -9  -5  -1 110.567   8.273   1
  -5   9  -1 116.580   6.338   3
  -9  -5   1 110.577   9.213   1
  -5   9   1 108.678   5.561   3
   9   5   1 109.431   9.709   1
   9   4  -1 355.858  18.327   1
  -4   9  -1 349.501  15.241   3
  -9  -4  -1 349.373  18.492   1
  -4   9  -1 335.842  18.069   4
  -4   9   1 340.168  17.219   4
   9   4   1 341.971  19.066   1
  -9  -4   1 371.394  19.329   1
  -4   9   1 335.821  14.379   3
  -3   9  -1 32.8546  2.8334   3
  -9  -3  -1 30.4288  5.8233   1
   9   3  -1 31.5687  5.5455   1
  -3   9  -1 38.0814  3.3887   4
  -9  -3   1 32.0975  6.2023   1
   9   3   1 31.1281  4.7514   1
  -3   9   1 33.4284  1.9455   3
  -3   9   1 36.1353  2.2436   4
   9   3   1 41.4415  6.0116   2
   9   2  -1 435.986  22.102   2
  -9  -2  -1 467.290  22.122   1
   9   2  -1 408.345  21.631   1
  -2   9  -1 406.014  21.708   4
  -2   9  -1 416.710  21.608   4
  -2   9  -1 415.669  18.235   3
   9   2   1 421.550  21.522   1
  -9  -2   1 446.099  22.707   1
   9   2   1 438.667  22.823   2
   9   1  -1 -2.0555  3.5916   2
  -9  -1  -1 4.46120 4.82293   1
  -1   9  -1 2.53195 1.78030   4
   9   1  -1 2.15234 3.85449   1
  -1   9  -1 1.52776 1.57837   3
  -9  -1   1 0.75012 4.67979   1
   9   1   1 2.26840 3.96331   1
   9   1   1 4.28652 3.02884   2
  -1   9   1 1.59227 0.90434   4
   9   0  -1 -1.7854  3.5300   1
  -9   0  -1 6.95340 3.68068   1
   0   9  -1 0.90175 1.85505   4
   9   0  -1 3.04766 3.76238   2
   0   9   1 0.81502 1.22997   4
   9   0   1 -1.7411  2.6732   2
  -9   0   1 -3.7269  4.5716   1
   9   0   1 -1.9917  3.7404   1
  -9   1  -1 3.70454 4.83615   1
  -9   1  -1 2.31598 3.00600   3
   9  -1  -1 -2.9232  3.0086   1
   1   9  -1 1.83966 1.70131   1
   9  -1  -1 2.41838 2.56643   2
   1   9  -1 0.49325 2.13310   4
  -9   1   1 4.48630 3.33390   1
   1   9   1 0.67764 1.47734   4
   9  -1   1 -0.4737  4.0175   2
   9  -1   1 -0.6101  3.4330   1
   2   9  -1 401.905  19.515   1
   2   9  -1 410.134  22.194   4
  -9   2  -1 461.346  22.937   1
  -9   2  -1 438.244  19.296   3
   9  -2  -1 376.165  21.417   2
   9  -2  -1 392.032  19.884   1
   9  -2   1 407.363  22.338   2
   9  -2   1 410.379  20.700   1
  -9   2   1 476.031  24.106   4
   2   9   1 418.647  21.854   4
  -9   2   1 424.161  22.232   1
  -9   2   1 419.336  19.043   3
  -9   3  -1 47.1491  6.9425   1
   3   9  -1 38.2079  3.9620   1
   3   9  -1 35.1553  4.6490   4
  -9   3  -1 35.9736  4.3579   3
   9  -3  -1 32.2218  5.1880   2
  -9   3   1 30.8590  5.8155   4
  -9   3   1 38.3804  4.5970   3
   3   9   1 33.4400  4.1296   1
   9  -3   1 38.6491  5.1475   2
   3   9   1 36.2220  4.3320   4
  -9   3   1 23.8001  5.5222   1
  -9   4  -1 318.022  15.636   3
   4   9  -1 332.365  16.853   1
  -9   4  -1 338.260  18.435   1
   9  -4  -1 303.669  18.258   2
  -9   4  -1 353.382  19.914   4
   4   9   1 341.394  17.092   1
  -9   4   1 345.525  15.917   3
  -9   4   1 360.504  20.192   4
   4   9   1 337.294  18.978   4
  -9   4   1 332.845  18.573   1
  -9   5  -1 106.272   9.294   4
   9  -5  -1 108.602   9.024   2
   5   9  -1 108.188   8.171   1
  -9   5  -1 112.590   9.390   1
  -9   5  -1 98.8074  6.6742   3
  -9   5   1 98.8048  8.7003   1
  -9   5   1 105.889   8.620   4
  -9   5   1 100.592   6.843   3
   5   9   1 115.941   8.447   1
   9  -6  -1 8.14717 4.85955   2
  -9   6  -1 13.9515  3.6488   4
   6   9  -1 15.2901  4.3714   1
  -9   6  -1 13.5616  2.7734   3
  -9   6  -1 11.7197  4.8680   1
   6   9   1 19.8605  4.9089   1
  -9   6   1 14.6572  4.4777   4
  -9   6   1 13.2290  4.6276   1
  -9   6   1 14.7137  3.6376   3
   7   9  -1 68.2461  7.1344   1
  -9   7  -1 75.7837  5.9195   3
  -9   7  -1 55.4537  6.6687   1
   7   9   1 65.4604  7.3779   1
  -9   7   1 56.6445  6.4284   1
  -9   7   1 60.2540  5.0431   3
   8   9  -1 43.5047  6.8910   1
  -9   8  -1 58.9424  5.3275   3
  -9   8   1 58.2715  5.1495   3
   8   9   1 51.6976  7.4368   1
   9   9  -1 -0.0949  5.7025   1
   9   9   1 9.02891 6.12066   1
  10   9  -1 107.786  10.926   1
  10   9   1 113.206  11.247   1
  10   8  -1 41.5654  7.7791   1
  10   8   1 39.5304  7.9952   1
  10   7  -1 529.943  28.091   1
  10   7   1 544.792  28.589   1
  -6  10  -1 118.804   6.925   3
 -10  -6  -1 84.7202  8.2594   1
  10   6  -1 133.004  10.677   1
 -10  -6   1 141.651  10.679   1
  10   6   1 132.287  11.207   1
  -6  10   1 122.584   6.351   3
  -5  10  -1 293.536  13.741   3
 -10  -5  -1 316.336  17.039   1
  10   5  -1 290.493  17.812   1
  10   5   1 316.755  18.333   1
  -5  10   1 292.465  13.024   3
 -10  -5   1 329.621  17.974   1
 -10  -4  -1 68.6305  7.3371   1
  -4  10  -1 53.0659  3.8860   3
  10   4  -1 53.8217  7.2322   1
 -10  -4   1 63.8039  7.7754   1
  -4  10   1 50.1346  3.1261   3
  10   4   1 54.6586  7.5120   1
  -3  10  -1 51.4970  3.9040   3
 -10  -3  -1 71.3757  7.7479   1
  10   3  -1 50.8205  6.9477   1
 -10  -3   1 55.6637  7.5568   1
  -3  10   1 51.2645  2.7324   3
  10   3   1 53.2307  7.0807   1
  10   2  -1 88.6323  8.1364   1
 -10  -2  -1 85.7779  8.6857   1
  -2  10  -1 70.7090  4.9139   3
  10   2   1 65.3606  7.3913   1
 -10  -2   1 69.5406  8.1466   1
  -1  10  -1 828.439  41.373   4
  10   1  -1 804.431  39.236   1
 -10  -1  -1 883.651  40.541   1
  -1  10  -1 839.140  34.652   3
 -10  -1   1 840.226  40.476   1
  -1  10   1 830.042  40.301   4
  10   1   1 803.268  39.427   1
 -10   0  -1 389.147  19.937   1
  10   0  -1 342.520  18.512   1
   0  10  -1 351.765  18.733   4
 -10   0   1 374.988  20.399   1
  10   0   1 324.349  18.707   1
   0  10   1 348.106  17.865   4
   1  10  -1 803.462  40.939   4
 -10   1  -1 918.029  40.404   1
  10  -1  -1 793.888  39.587   2
  10  -1  -1 789.844  37.720   1
   1  10   1 814.982  40.328   4
  10  -1   1 798.723  38.080   1
 -10   1   1 828.020  39.705   1
   1  10   1 792.731  33.430   3
 -10   2  -1 62.1721  8.4592   1
  10  -2  -1 70.9218  7.1022   2
   2  10  -1 64.7942  6.0561   4
 -10   2   1 81.4328  8.3836   1
   2  10   1 70.3701  5.7516   4
  10  -2   1 80.4054  7.1007   1
 -10   2   1 68.8607  6.2656   3
 -10   3  -1 50.4555  7.5620   1
   3  10  -1 52.4092  5.1933   1
 -10   3  -1 55.0921  5.5231   3
 -10   3   1 55.7610  6.6337   1
   3  10   1 47.9291  5.0453   4
 -10   3   1 43.2369  4.7021   3
 -10   4  -1 62.0590  6.8861   1
   4  10  -1 47.5298  5.1688   1
 -10   4  -1 50.4979  4.8700   3
 -10   4   1 44.3637  4.7768   3
 -10   4   1 45.7516  7.0669   1
 -10   5  -1 289.132  14.960   3
 -10   5  -1 321.080  17.969   1
   5  10  -1 278.839  15.833   1
 -10   5   1 303.007  14.702   3
   5  10   1 297.036  16.694   1
 -10   5   1 281.287  17.348   1
 -10   6  -1 125.488   8.092   3
 -10   6  -1 140.534  10.753   1
   6  10  -1 119.149   9.498   1
 -10   6   1 127.698   8.903   3
 -10   6   1 125.561  10.361   1
   6  10   1 128.521   9.982   1
 -10   7  -1 530.964  27.084   1
 -10   7  -1 491.805  24.048   3
   7  10  -1 506.570  26.837   1
 -10   7   1 528.129  26.979   1
 -10   7   1 554.841  24.345   3
   7  10   1 569.279  27.568   1
   8  10  -1 35.8266  6.8374   1
   8  10   1 37.3960  7.2744   1
   9  10  -1 121.208  11.101   1
   9  10   1 113.272  10.247   1
  10  10  -1 -4.1768  6.5851   1
  10  10   1 -7.6335  6.4301   1
  11   9  -1 42.9862  8.4564   1
  11   9   1 42.4659  8.7742   1
  11   8  -1 9.98026 6.88392   1
  11   8   1 2.38294 6.96332   1
  11   7  -1 38.4327  6.6469   1
  11   7   1 36.4480  8.0020   1
  11   6  -1 36.9939  7.5724   1
  11   6   1 29.5733  7.6908   1
 -11  -6   1 33.0765  6.5540   1
  11   5  -1 -10.673   5.559   1
 -11  -5  -1 -4.5886  6.0311   1
  -5  11  -1 -0.1472  2.3514   3
  -5  11   1 1.16937 1.28637   3
 -11  -5   1 7.55386 5.96705   1
  11   5   1 3.02050 4.48978   1
  11   4  -1 44.9500  7.6222   1
  -4  11  -1 40.9311  3.8363   3
 -11  -4  -1 51.6931  7.3039   1
  11   4   1 39.2169  7.4062   1
  -4  11   1 45.0454  2.8206   3
 -11  -4   1 42.4898  7.5905   1
  -3  11  -1 8.96455 2.16750   3
 -11  -3  -1 3.01544 5.78001   1
  11   3  -1 11.9293  5.9196   1
  -3  11   1 9.77135 1.17723   3
 -11  -3   1 12.2430  6.5117   1
  11   3   1 -2.4604  5.7266   1
  -2  11  -1 11.6807  2.5463   3
  11   2  -1 14.8666  5.7703   1
 -11  -2  -1 19.6381  6.6697   1
  -2  11   1 11.0895  1.3769   3
 -11  -2   1 8.15940 6.38864   1
  11   2   1 12.3752  5.9072   1
  11   1  -1 -3.2568  4.7381   1
 -11  -1  -1 -1.2462  5.7864   1
  -1  11  -1 1.22424 2.41367   3
  11   1   1 -4.5880  4.8206   1
 -11  -1   1 -0.9836  5.8590   1
   0  11  -1 -0.5965  2.1366   3
 -11   0  -1 9.06788 6.43254   1
  11   0  -1 0.77747 4.39453   1
  11   0   1 -1.5218  4.6115   1
 -11   0   1 -1.6481  5.7413   1
  11  -1  -1 1.65240 3.78255   1
   1  11  -1 -0.0437  2.6206   4
 -11   1  -1 7.38738 6.34971   1
  11  -1   1 0.18789 4.30653   1
 -11   1   1 -3.4612  5.6156   1
 -11   2  -1 9.76270 6.42110   1
  11  -2   1 4.10292 3.88030   1
 -11   2   1 9.96395 4.77369   1
 -11   3  -1 13.3870  6.5098   1
 -11   3   1 10.5182  4.5288   1
 -11   4  -1 50.6843  8.0105   1
 -11   4   1 32.4604  5.2086   3
 -11   4   1 48.3492  7.6619   1
 -11   5  -1 4.99354 4.22912   1
   5  11  -1 4.88126 4.20246   1
 -11   5   1 9.76160 5.64307   1
 -11   5   1 0.02931 2.83708   3
 -11   6  -1 32.8005  4.4741   3
 -11   6  -1 49.7968  7.3820   1
   6  11  -1 31.2844  5.8221   1
 -11   6   1 31.9045  6.7485   1
 -11   6   1 24.4071  4.9668   3
   7  11  -1 33.6421  6.4767   1
 -11   7  -1 39.8969  7.3130   1
   7  11   1 31.7921  6.6180   1
 -11   7   1 38.6032  6.8230   1
   8  11  -1 5.48676 5.79040   1
   8  11   1 -3.4311  5.7367   1
   9  11  -1 41.7536  7.9743   1
   9  11   1 46.4396  8.4899   1
  12   7  -1 174.391  14.522   1
  12   7   1 190.324  14.911   1
  12   6  -1 43.7400  8.3260   1
  12   6   1 31.3362  8.1900   1
  12   5  -1 82.4865  9.8940   1
 -12  -5  -1 93.1569  9.7811   1
  12   5   1 91.9917  9.2087   1
 -12  -5   1 81.3859  9.3481   1
  12   4  -1 6.04431 6.33988   1
 -12  -4  -1 2.80149 5.94681   1
  12   4   1 -8.8609  6.1709   1
 -12  -4   1 -1.9071  6.4123   1
 -12  -3  -1 23.8705  7.2593   1
  12   3  -1 24.1794  5.5012   1
  12   3   1 28.9513  7.4938   1
 -12  -3   1 16.4590  7.1910   1
 -12  -2  -1 60.2696  7.6525   1
  -2  12  -1 56.7153  4.2717   3
  12   2  -1 46.4574  7.6818   1
  -2  12   1 56.5303  3.1768   3
  12   2   1 67.3688  8.5072   1
 -12  -2   1 68.5027  9.2683   1
  -1  12  -1 194.027   9.829   3
  12   1  -1 182.937  13.349   1
 -12  -1  -1 190.946  13.506   1
  12   1   1 164.782  13.595   1
 -12  -1   1 191.298  15.163   1
   0  12  -1 94.2537  6.3613   3
 -12   0  -1 106.779  11.099   1
  12   0   1 90.7591  8.9358   1
 -12   0   1 105.394  10.822   1
   1  12  -1 184.779  10.578   3
 -12   1  -1 220.647  14.688   1
  12  -1   1 204.956  14.031   1
 -12   1   1 222.674  15.827   1
 -12   2  -1 47.7054  8.8923   1
 -12   2   1 67.9058  7.9780   1
 -12   3  -1 26.4848  6.1452   1
 -12   3   1 14.8191  6.9150   1
 -12   4  -1 -5.3408  6.4786   1
 -12   4   1 4.88419 6.40288   1
 -12   5  -1 81.3247  9.7783   1
 -12   5   1 82.2669  9.7541   1
 -12   6  -1 39.7534  7.7165   1
 -12   6   1 22.7690  7.1815   1
   7  12  -1 195.466  14.341   1
 -12   7  -1 206.999  15.025   1
   8  12  -1 48.0228  7.9792   1
  13   5  -1 63.0692  7.9971   1
 -13  -5   1 57.6200  8.4664   1
  13   5   1 46.7322  7.7942   1
  13   4  -1 267.694  18.612   1
 -13  -4  -1 300.300  18.543   1
  13   4   1 261.448  19.056   1
 -13  -4   1 299.590  19.011   1
  13   3  -1 99.3581 10.5027   1
 -13  -3  -1 91.7093 10.4457   1
 -13  -3   1 104.127  11.264   1
  13   3   1 103.197  11.019   1
 -13  -2  -1 263.568  18.855   1
  13   2  -1 268.851  17.686   1
  13   2   1 271.561  18.283   1
 -13  -2   1 327.788  19.774   1
  13   1  -1 15.6625  6.1228   1
 -13  -1  -1 19.6752  7.9213   1
  13   1   1 19.7965  6.7537   1
 -13  -1   1 16.4178  7.9122   1
 -13   0  -1 0.50022 7.53251   1
 -13   0   1 -0.0123  7.0432   1
  13   0   1 2.99989 5.80332   1
 -13   1  -1 22.3781  8.1845   1
 -13   1   1 14.8702  7.7240   1
 -13   2  -1 282.647  19.648   1
 -13   2   1 276.998  17.735   1
 -13   3  -1 130.514  13.139   1
 -13   3   1 123.799  12.269   1
 -13   4  -1 266.338  19.036   1
 -13   4   1 278.796  18.830   1
 -13   5  -1 42.6978  8.8222   1
 -13   5   1 62.8521  9.4649   1
 -13   6  -1 32.6588  8.2071   1
 -13   6   1 31.0939  7.9341   1
  14   3  -1 9.90235 5.31250   1
 -14  -3  -1 -1.5489  5.0479   1
  14   3   1 -0.7142  7.0720   1
 -14  -3   1 -7.6098  6.8194   1
  14   2  -1 6.78533 6.45086   1
 -14  -2  -1 -3.4713  7.1446   1
 -14  -2   1 -0.9003  7.2623   1
  14   2   1 -2.8897  6.7809   1
 -14  -1  -1 -3.2684  7.3501   1
  14   1   1 -4.8907  5.9077   1
 -14  -1   1 -0.6346  7.3179   1
 -14   0  -1 9.05100 8.01729   1
 -14   0   1 6.24069 7.70459   1
 -14   1  -1 -7.2319  7.7670   1
 -14   1   1 5.20110 7.54321   1
 -14   2  -1 -2.1714  7.6668   1
 -14   2   1 5.87637 5.68250   1
   0   0  -2 2215.95   96.28   1
   0   0  -2 2264.78   88.76   3
   0   0  -2 2216.38  106.45   4
   0   0  -2 2179.22  106.33   4
   0   0  -2 2162.88   98.77   2
   0   0   2 2143.84   96.48   1
   0   0   2 2253.11  106.48   4
   0   0   2 2269.23  106.37   4
   0   0   2 2253.15   99.81   2
   0   0   2 2135.54   88.76   3
   0   1  -2 0.10454 1.01343   4
  -1   0  -2 0.14699 0.91769   4
  -1   0  -2 -1.4485  1.1487   2
   1   0  -2 0.62499 1.05158   3
   1   0  -2 -0.1099  1.0046   4
   1   0  -2 1.12910 0.96584   2
   0  -1  -2 0.83296 1.04150   4
   0  -1  -2 0.27263 0.49268   2
   0  -1  -2 1.14675 0.92127   1
   0   1  -2 0.79067 1.08963   2
   0   1  -2 -1.0593  1.2916   4
  -1   0  -2 0.34499 0.79181   1
   1   0  -2 0.61003 1.13603   1
   0   1  -2 1.07100 1.34281   3
  -1   0  -2 -1.2944  1.1282   3
   0  -1  -2 -0.4177  0.8197   3
   0   1  -2 1.10949 1.18595   1
   0  -1   2 -0.2579  1.0633   1
   0  -1   2 0.14480 1.27931   3
   0   1   2 0.88561 1.04482   3
  -1   0   2 -0.2771  0.8886   3
   1   0   2 1.60985 1.11607   1
   1   0   2 1.98509 0.92100   3
   0  -1   2 -0.6438  1.2687   4
   0  -1   2 -0.2059  0.3375   4
   0   1   2 -1.0670  1.2220   1
   0  -1   2 0.63651 1.49902   2
   1   0   2 0.50045 1.25195   4
   1   0   2 0.91463 1.48950   4
  -1   0   2 -0.8961  0.8690   4
   0   1   2 0.42713 0.91874   4
   0   1   2 1.21659 1.14897   4
   0   1   2 -0.6427  0.5550   2
  -1   0   2 -0.8580  1.4376   1
   1   0   2 -0.1574  0.9178   2
  -1   0   2 0.89367 1.07677   4
   1  -1  -2 2007.42   77.79   3
  -1   1  -2 1857.09   87.01   2
   1   1  -2 1981.08   84.61   1
   1   1  -2 1886.65   78.10   3
  -1  -1  -2 2025.77   93.37   4
  -1   1  -2 1906.10   93.46   4
  -1   1  -2 2014.97   84.63   1
   1  -1  -2 1829.05   86.77   2
  -1  -1  -2 1908.76   84.48   1
   1  -1  -2 2038.70   84.46   1
   1  -1  -2 2009.60   93.37   4
  -1  -1  -2 1976.89   77.84   3
   1   1  -2 1944.94   93.64   4
  -1   1  -2 1907.53   78.00   3
  -1   1   2 1896.62   84.64   1
  -1  -1   2 1972.61   84.85   1
   1   1   2 1984.34   86.76   2
  -1   1   2 1993.31   93.37   4
   1  -1   2 1894.44   84.79   1
   1  -1   2 1974.81   93.45   4
  -1   1   2 1974.30   93.43   4
   1   1   2 1908.74   77.93   3
   1   1   2 1888.70   84.76   1
   1   1   2 1972.88   93.39   4
   1  -1   2 1797.24   87.06   2
   1  -1   2 1790.75   77.95   3
  -1   1   2 1912.26   77.89   3
   1  -1   2 1922.64   93.56   4
  -1  -1   2 1992.87   93.52   4
   1  -2  -2 772.251  33.669   1
   2   1  -2 764.890  31.807   3
   2   1  -2 800.119  34.251   1
  -1   2  -2 750.779  34.142   1
  -1   2  -2 789.382  31.621   3
  -1   2  -2 778.630  37.822   4
  -1   2  -2 765.075  37.905   4
  -2  -1  -2 746.036  34.121   1
  -2  -1  -2 774.779  37.776   4
  -1   2  -2 767.369  35.538   2
   2   1  -2 791.610  38.132   4
   1  -2   2 723.230  35.530   2
   2   1   2 762.390  34.460   1
  -2  -1   2 815.593  38.188   4
  -2  -1   2 814.628  34.683   1
  -1   2   2 793.886  37.568   4
   1  -2   2 757.214  34.295   1
   2   1   2 756.406  31.572   3
  -1   2   2 749.891  34.029   1
   1  -2   2 757.600  31.551   3
   1  -2   2 763.490  37.865   4
   2   1   2 809.347  35.260   2
   1  -2   2 763.283  37.705   4
  -1   2   2 766.686  37.607   4
   2   1   2 768.593  37.826   4
  -1   2   2 764.686  31.296   3
  -2   0  -2 4570.88  186.62   3
   0   2  -2 4742.64  222.66   4
   0  -2  -2 4721.08  202.41   1
   0   2  -2 4467.61  204.28   1
   2   0  -2 4746.95  222.67   4
   0   2  -2 4409.17  207.20   2
  -2   0  -2 4702.32  208.36   2
   0   2  -2 4523.77  187.01   3
   0   2  -2 4279.10  223.73   4
   2   0  -2 4812.56  204.07   1
   0  -2  -2 4590.92  186.18   3
  -2   0  -2 4848.51  203.74   1
   2   0   2 4649.20  208.61   2
   0   2   2 4633.37  224.43   4
   0   2   2 4605.27  202.78   1
   2   0   2 4665.26  185.69   3
   2   0   2 4797.76  223.91   4
   0  -2   2 4441.07  223.35   4
  -2   0   2 4642.89  203.11   1
   0   2   2 4686.56  186.80   3
   2   0   2 4595.07  201.87   1
   0  -2   2 4922.67  203.12   1
   0   2   2 4689.35  207.32   2
   0  -2   2 4517.15  222.56   4
  -2   0   2 4619.04  224.35   4
  -1  -2  -2 786.869  37.461   4
   2  -1  -2 787.391  37.705   4
   2  -1  -2 778.177  33.954   1
  -1  -2  -2 769.550  31.131   3
  -2   1  -2 773.512  34.185   1
   1   2  -2 732.969  34.058   1
   1   2  -2 771.810  31.734   3
   1   2  -2 787.322  37.988   4
  -2   1  -2 762.212  31.515   3
  -2   1  -2 756.709  35.286   2
  -1  -2  -2 774.033  33.796   1
  -2   1  -2 757.310  37.768   4
   2  -1  -2 762.869  31.321   3
   1   2   2 761.000  31.343   3
  -1  -2   2 761.087  37.718   4
   2  -1   2 786.868  37.759   4
   1   2   2 771.806  37.556   4
  -2   1   2 763.039  31.486   3
   1   2   2 741.857  34.142   1
   1   2   2 828.211  34.843   2
   2  -1   2 747.960  35.401   2
  -2   1   2 745.506  34.171   1
   2  -1   2 797.613  34.412   1
   2  -1   2 746.200  31.536   3
  -2   1   2 780.030  37.781   4
  -1  -2   2 787.030  37.937   4
  -2  -2  -2 119.764   6.645   4
   2   2  -2 123.912   7.286   4
  -2  -2  -2 121.694   5.524   3
   2  -2  -2 117.384   6.450   4
  -2   2  -2 111.316   6.722   2
  -2  -2  -2 120.921   5.979   1
   2   2  -2 115.730   6.283   1
   2  -2  -2 119.818   5.114   3
  -2   2  -2 120.651   5.936   3
  -2   2  -2 128.938   6.208   1
  -2   2  -2 123.819   7.037   4
   2  -2  -2 121.823   5.609   1
   2  -2  -2 122.425   5.721   2
   2   2   2 134.622   6.537   2
   2   2   2 118.635   5.773   3
   2   2   2 123.791   6.502   1
   2  -2   2 112.864   6.879   2
   2  -2   2 124.957   6.922   4
  -2  -2   2 120.282   6.941   4
   2   2   2 122.294   6.899   4
  -2   2   2 116.104   6.059   1
   2  -2   2 120.266   6.264   1
  -2   2   2 116.723   5.505   3
  -2   2   2 121.313   6.684   4
  -2  -2   2 133.580   7.289   4
   2  -2   2 120.146   6.916   4
  -2  -2   2 132.201   7.082   1
  -2   3  -2 4.92551 1.47983   1
  -2   3  -2 4.14771 1.73394   2
   3   2  -2 3.38343 1.72118   4
  -3  -2  -2 3.80880 1.22834   3
  -3  -2  -2 4.60692 1.23079   4
  -2   3  -2 0.17713 1.45849   3
  -3  -2  -2 5.48250 1.62424   1
  -2   3  -2 4.77682 1.30601   4
   3   2  -2 2.40632 1.75823   1
   3   2   2 3.69936 1.85734   2
  -3  -2   2 2.85747 2.48859   1
   3   2   2 2.39999 1.08756   3
   2  -3   2 5.20525 2.48653   2
  -2   3   2 3.46401 1.13480   4
   3   2   2 3.21139 1.48430   1
  -2   3   2 3.29019 0.88953   3
   2  -3   2 2.69739 1.41173   1
   2  -3   2 4.41439 1.39634   4
   2  -3   2 3.20365 1.19026   4
  -2   3   2 2.90246 1.13354   1
   3   2   2 4.52391 1.38938   4
  -3  -2   2 3.83370 1.65103   4
   3   1  -2 2.48312 1.61745   1
  -1   3  -2 1.63274 1.26101   1
  -3  -1  -2 2.17208 1.62377   4
  -3  -1  -2 9.22496 1.31334   3
  -1   3  -2 1.12564 1.10703   4
  -1   3  -2 4.00153 1.51443   3
  -1   3  -2 1.81501 1.61841   2
  -3  -1  -2 2.80457 1.63607   1
  -1   3  -2 5.66428 1.60554   4
   3   1  -2 4.14532 1.66809   4
  -1   3   2 3.56082 0.87301   1
  -3  -1   2 4.54268 2.14823   4
   1  -3   2 1.61635 1.66806   2
  -1   3   2 2.90858 1.01032   4
   3   1   2 2.08572 1.37695   2
  -3  -1   2 1.44685 2.23754   1
   1  -3   2 5.86581 1.53990   1
   1  -3   2 4.36584 1.52634   4
   3   1   2 4.04638 1.50121   3
  -1   3   2 3.17994 0.94399   4
   1  -3   2 1.47379 1.23001   4
   3   1   2 0.05781 1.89128   1
  -1   3   2 5.34733 0.58967   2
   3   1   2 5.91570 1.78309   4
  -1   3   2 4.50324 0.88545   3
   3   0  -2 -1.8464  1.5975   4
  -3   0  -2 -0.3810  1.5374   1
  -3   0  -2 0.07691 0.77247   4
  -3   0  -2 0.21575 1.72819   2
   0   3  -2 1.43461 2.10388   2
   0   3  -2 -0.0986  1.3309   4
   0   3  -2 0.30087 1.15650   1
   3   0  -2 -1.1872  0.9740   1
  -3   0  -2 2.90491 1.42654   3
   0   3  -2 1.88050 1.59560   4
   0   3  -2 -0.5994  1.4648   3
   3   0   2 -1.2001  1.3026   1
   3   0   2 -1.7795  1.3451   3
  -3   0   2 0.15983 1.32363   1
   0  -3   2 0.36621 1.20441   4
   3   0   2 -1.2939  1.2915   2
   0   3   2 0.11914 0.83866   1
   0   3   2 -0.3935  0.7054   3
   0  -3   2 0.95089 1.02770   4
   0  -3   2 0.35484 1.51217   1
   3   0   2 -1.1966  1.5112   4
  -3   0   2 0.38019 1.31642   4
   0   3   2 0.38499 0.83486   4
   1   3  -2 7.00988 1.84018   2
   3  -1  -2 3.75138 1.29174   1
  -3   1  -2 3.89852 1.38151   4
   1   3  -2 3.16724 1.82583   3
  -3   1  -2 2.81844 1.87956   2
  -3   1  -2 10.6640  1.9689   1
   1   3  -2 1.31713 0.99340   1
   1   3  -2 2.95197 1.36735   4
   3  -1  -2 3.90918 1.26825   4
  -1  -3  -2 5.80472 0.90854   4
   3  -1  -2 1.90514 1.21014   3
  -3   1  -2 7.25283 1.31016   3
   1   3   2 3.14780 0.93871   4
  -1  -3   2 3.99313 1.47584   4
   3  -1   2 2.03611 1.62256   2
  -1  -3   2 1.25081 1.21203   4
   1   3   2 5.94342 1.38379   1
   3  -1   2 9.30507 1.59880   4
  -3   1   2 4.99439 1.45669   4
   1   3   2 4.15461 1.03954   3
   3  -1   2 1.66769 1.43025   3
  -1  -3   2 3.34521 1.89472   1
   3  -1   2 5.50924 2.06249   1
   3  -2  -2 2.07109 1.12621   2
  -3   2  -2 1.94106 1.46982   2
  -3   2  -2 3.34823 1.33049   1
  -2  -3  -2 2.66144 0.99202   1
   3  -2  -2 1.99137 1.18161   4
  -2  -3  -2 3.69674 0.91016   4
  -2  -3  -2 3.22764 0.84597   3
   3  -2  -2 2.00466 0.97078   1
  -3   2  -2 4.68726 1.86489   4
   3  -2  -2 4.48049 0.85461   3
   2   3  -2 3.27878 1.19128   1
   2   3  -2 3.44444 2.13452   4
  -3   2  -2 2.54829 1.49914   3
   3  -2   2 1.62257 1.21569   4
   3  -2   2 3.89898 1.25716   4
   2   3   2 4.11541 1.67090   1
  -3   2   2 1.60018 1.41493   1
   2   3   2 2.93656 1.06274   4
  -2  -3   2 3.01004 1.67302   4
  -3   2   2 4.74381 1.63986   4
   3  -2   2 3.49053 1.84328   2
   3  -2   2 4.19844 1.88101   1
  -2  -3   2 4.08986 2.14776   1
  -2  -3   2 3.94495 1.53907   4
   2   3   2 2.86188 1.28220   3
   3   3  -2 8430.86  371.66   1
  -3  -3  -2 8847.42  372.23   1
  -3   3  -2 9075.93  341.65   3
  -3   3  -2 8386.40  371.55   1
  -3   3  -2 8809.32  411.65   4
   3  -3  -2 8679.58  381.89   2
  -3   3  -2 8532.16  380.15   2
   3   3  -2 8507.02  408.91   4
  -3  -3  -2 9031.42  411.83   4
   3  -3   2 8935.42  409.39   4
  -3  -3   2 7623.23  408.49   4
   3  -3   2 8899.01  410.27   4
   3  -3   2 8176.24  380.30   2
  -3   3   2 8523.05  372.43   1
   3  -3   2 8935.66  371.97   1
   3   3   2 8453.37  410.06   4
   3   3   2 8191.33  342.67   3
  -3   3   2 8450.68  411.34   4
  -3   3   2 8593.71  343.30   3
  -3  -3   2 7928.43  370.38   1
   3   3   2 7760.35  373.26   1
  -4  -3  -2 92.8385  5.9609   4
  -3   4  -2 82.3718  6.0146   2
  -4  -3  -2 83.9509  4.6869   3
  -4  -3  -2 83.6968  5.2675   1
  -3   4  -2 93.7195  5.9564   4
   4   3  -2 102.019   7.549   4
   4   3  -2 85.5845  5.7456   1
  -3   4  -2 94.3300  5.4606   1
   3  -4  -2 92.5436  5.0601   2
  -3   4  -2 94.3247  5.1023   3
   3  -4   2 89.3082  5.5351   4
   3  -4   2 92.4560  4.9489   1
  -4  -3   2 90.1282  6.7302   1
   3  -4   2 91.9440  5.5944   4
  -3   4   2 90.6982  4.8119   1
   3  -4   2 79.5346  6.6906   2
  -4  -3   2 85.6260  6.8321   4
   4   3   2 87.3476  5.2214   3
  -3   4   2 87.3549  5.3475   4
   4   3   2 91.5235  6.0340   4
  -3   4   2 91.1776  4.4864   3
  -3   4   2 96.3006  4.9530   2
  -3   4   2 90.9304  4.4610   3
   4   3   2 92.0505  6.3671   1
   4   2  -2 366.639  18.955   4
  -2   4  -2 338.416  17.313   2
  -4  -2  -2 361.631  18.133   4
  -4  -2  -2 338.361  16.306   1
  -2   4  -2 364.969  17.891   4
  -2   4  -2 330.895  16.019   1
   4   2  -2 332.953  16.453   1
  -2   4  -2 366.614  15.047   3
  -2   4   2 335.165  15.562   1
   4   2   2 323.029  15.081   3
   4   2   2 361.727  18.251   4
   2  -4   2 346.449  17.552   4
  -2   4   2 338.150  14.305   3
   4   2   2 371.941  17.098   2
  -4  -2   2 354.308  17.246   1
   2  -4   2 324.467  17.374   2
  -2   4   2 345.742  17.334   4
  -2   4   2 365.729  16.090   2
   2  -4   2 350.387  17.691   4
   4   2   2 355.652  16.877   1
  -1   4  -2 74.0722  4.4449   3
  -1   4  -2 74.5226  4.9239   4
  -1   4  -2 75.0441  4.3733   1
  -4  -1  -2 77.3770  5.1166   1
  -1   4  -2 69.4225  4.9041   4
  -4  -1  -2 75.9501  5.2379   4
   4   1  -2 79.8492  5.0921   1
  -4  -1  -2 75.7949  4.1854   3
  -1   4  -2 73.7583  5.8350   2
   4   1  -2 72.9339  6.1060   4
   4   1   2 81.5909  4.6207   3
  -1   4   2 79.6406  3.4470   3
   4   1   2 69.8180  5.4037   1
  -1   4   2 73.1747  4.1989   4
   1  -4   2 79.6770  4.5137   4
   4   1   2 77.5400  5.4815   2
  -1   4   2 77.9256  4.0419   2
  -1   4   2 72.4497  3.7804   1
  -4  -1   2 77.7113  6.0771   4
   4   1   2 80.0658  5.5750   4
   1  -4   2 80.1997  4.9068   4
   1  -4   2 76.7944  4.4857   1
  -4  -1   2 74.9275  5.9730   1
   0   4  -2 2991.35  142.90   4
   4   0  -2 3005.91  129.48   1
  -4   0  -2 3249.32  143.34   4
  -4   0  -2 2923.10  119.19   3
   0   4  -2 2803.81  133.42   2
   0   4  -2 2963.88  119.23   3
  -4   0  -2 3041.80  129.70   1
   4   0  -2 2949.92  143.23   4
   0   4  -2 2896.58  129.17   1
   0   4  -2 2855.61  142.66   4
  -4   0   2 3002.11  130.02   1
   4   0   2 2923.44  129.75   1
   0   4   2 3026.50  143.69   4
   0   4   2 2903.90  118.57   3
   0  -4   2 3026.76  142.74   4
   4   0   2 3037.50  143.11   4
  -4   0   2 3061.99  143.38   4
   0  -4   2 3018.73  129.31   1
   4   0   2 2828.58  119.21   3
   0  -4   2 2847.32  142.42   4
   4   0   2 2924.83  133.28   2
   0   4   2 2900.30  128.92   1
   4  -1  -2 80.7883  4.5832   2
   1   4  -2 72.4310  4.4523   1
   4  -1  -2 81.9864  5.1467   4
   4  -1  -2 72.4507  4.5727   1
   1   4  -2 76.1395  5.9703   2
  -4   1  -2 77.3886  4.5470   3
  -4   1  -2 76.8537  5.4691   2
  -4   1  -2 81.1755  4.9792   1
   1   4  -2 71.6481  5.1274   4
   4  -1  -2 71.2508  4.2916   3
  -4   1  -2 79.4792  5.7428   4
  -4   1   2 71.0663  5.4350   1
   1   4   2 74.8843  4.4043   4
   1   4   2 73.5979  4.4193   1
   4  -1   2 76.8683  5.8432   2
   4  -1   2 81.9539  5.3798   1
   4  -1   2 72.0473  5.4187   4
  -1  -4   2 66.7129  4.7255   4
  -1  -4   2 80.1216  4.7873   1
  -1  -4   2 80.4964  5.0429   4
  -4   1   2 82.4541  5.3949   4
   1   4   2 81.8351  3.8630   3
   4  -2  -2 368.148  16.682   2
  -4   2  -2 359.244  17.543   2
   4  -2  -2 374.020  18.048   4
  -4   2  -2 338.178  15.186   3
  -2  -4  -2 344.039  17.450   4
  -4   2  -2 364.221  16.949   1
  -4   2  -2 369.114  18.556   4
   2   4  -2 361.821  18.669   4
   2   4  -2 341.563  16.361   1
   4  -2  -2 342.990  15.999   1
  -2  -4   2 344.543  16.708   1
  -4   2   2 355.419  16.785   1
  -2  -4   2 348.137  18.018   4
  -2  -4   2 354.756  18.421   4
   4  -2   2 352.859  17.684   2
   2   4   2 362.138  16.531   1
  -4   2   2 356.369  18.449   4
   2   4   2 354.158  17.949   4
   4  -2   2 342.278  16.651   1
   4  -2   2 353.604  18.364   4
   2   4   2 339.287  14.989   3
   3   4  -2 98.6489  6.7552   4
  -4   3  -2 96.8294  6.1629   2
  -3  -4  -2 98.0232  5.5326   4
   4  -3  -2 88.4613  5.1315   4
  -4   3  -2 87.0913  5.2246   3
  -3  -4  -2 91.5491  4.6940   1
  -4   3  -2 103.134   6.508   4
  -4   3  -2 91.4428  6.0108   1
   3   4  -2 87.6285  5.7388   1
   4  -3  -2 91.4511  5.3100   2
  -4   3   2 101.258   5.963   4
   3   4   2 89.5978  5.1265   3
   3   4   2 90.1950  5.9595   1
   4  -3   2 89.7745  5.4455   1
  -3  -4   2 89.0913  6.6607   4
   4  -3   2 100.415   6.167   4
  -4   3   2 90.1832  5.0105   3
   3   4   2 88.0691  6.0328   4
   4  -3   2 85.6279  6.9720   2
  -3  -4   2 92.2372  6.2451   1
  -4   3   2 93.8220  5.6394   1
  -3  -4   2 101.448   6.227   4
   4  -3   2 87.6217  6.0125   4
  -4   4  -2 191.741   9.785   1
   4   4  -2 188.697   9.576   1
  -4  -4  -2 183.471  10.184   4
   4  -4  -2 175.948   9.567   2
  -4  -4  -2 190.109   8.999   1
   4   4  -2 199.245  11.691   4
  -4   4  -2 180.919   8.820   3
  -4   4  -2 192.998  10.503   4
   4  -4   2 187.241   9.061   1
   4  -4   2 175.281  11.067   2
  -4  -4   2 160.358  10.190   1
   4  -4   2 174.365  10.199   4
  -4   4   2 186.277   8.516   3
  -4  -4   2 173.178  11.213   4
   4  -4   2 181.133  10.150   4
   4   4   2 191.192  10.869   4
   4   4   2 191.050  10.385   1
  -4   4   2 193.122  10.286   4
  -4   4   2 189.581   9.449   1
   4   4   2 185.025   8.988   3
  -4   5  -2 60.3296  4.0771   3
  -5  -4  -2 42.8427  3.7159   1
   4  -5  -2 55.9907  4.1752   2
   5   4  -2 45.1716  3.9194   3
  -5  -4  -2 57.6776  4.7069   4
   5   4  -2 56.7220  4.7056   1
   5   4  -2 47.8542  5.5659   4
  -4   5  -2 50.9030  4.1909   4
  -4   5  -2 55.3250  4.3076   1
  -4   5   2 47.4575  3.3198   3
   5   4   2 60.5030  5.5551   1
   5   4   2 49.4981  4.1616   3
   5   4   2 57.1059  4.9367   4
  -4   5   2 56.2515  3.8182   2
  -5  -4   2 41.7578  4.9039   4
  -4   5   2 57.6004  4.1241   4
   4  -5   2 49.8507  5.2011   2
  -5  -4   2 48.9724  5.1990   1
  -3   5  -2 869.828  35.581   3
  -3   5  -2 892.768  42.661   4
  -5  -3  -2 825.794  35.525   3
   5   3  -2 827.139  44.094   4
   5   3  -2 902.783  39.064   1
  -5  -3  -2 859.142  43.006   4
  -5  -3  -2 872.297  38.745   1
   5   3  -2 797.123  35.690   3
  -3   5  -2 857.548  38.529   1
  -3   5   2 858.323  37.980   1
  -3   5   2 882.000  39.286   2
   5   3   2 902.066  39.544   1
  -3   5   2 907.749  42.127   4
  -5  -3   2 807.047  43.641   4
   3  -5   2 879.127  42.193   4
  -5  -3   2 843.789  39.683   1
  -3   5   2 868.173  34.971   3
   3  -5   2 830.448  40.849   2
   5   3   2 830.132  43.194   4
   5   3   2 820.669  35.826   3
   5   3   2 934.539  40.512   2
  -3   5   2 885.600  35.063   3
  -2   5  -2 8.18042 1.92990   3
   5   2  -2 7.79533 2.02398   1
  -2   5  -2 9.28536 2.09775   4
   5   2  -2 7.34991 3.42647   4
  -5  -2  -2 7.75497 2.12884   4
  -2   5  -2 8.59156 1.61578   4
  -2   5  -2 4.51262 2.25978   2
  -2   5  -2 7.71094 1.70993   1
  -5  -2  -2 7.26687 2.55769   1
   5   2   2 9.09651 2.20875   4
  -2   5   2 8.73296 1.00958   1
   5   2   2 10.5805  2.2836   3
  -2   5   2 8.32395 1.09576   4
   2  -5   2 6.77894 3.27646   2
  -2   5   2 11.2302  1.5216   2
  -5  -2   2 12.1361  3.3854   1
  -2   5   2 6.47078 0.86781   3
   2  -5   2 9.50761 1.51227   4
  -2   5   2 8.22597 0.80051   3
   5   2   2 7.27913 2.16507   2
   5   2   2 8.40746 2.96774   1
  -1   5  -2 2938.13  113.48   3
  -1   5  -2 2740.69  122.87   1
  -1   5  -2 2919.74  136.00   4
   5   1  -2 2849.29  136.94   4
  -5  -1  -2 3007.26  136.71   4
   5   1  -2 2846.98  123.47   1
  -5  -1  -2 2928.02  123.65   1
  -1   5  -2 2829.72  135.77   4
  -5  -1  -2 2768.23  113.51   3
  -1   5  -2 2605.13  127.19   2
   1  -5   2 3055.15  135.61   4
  -1   5   2 2776.78  122.33   1
   5   1   2 2664.40  113.56   3
  -1   5   2 2802.72  126.07   2
   5   1   2 2659.21  136.35   4
  -5  -1   2 2726.09  136.75   4
  -1   5   2 2772.33  135.73   4
  -1   5   2 2843.59  113.02   3
   5   1   2 2847.65  123.75   1
   5   1   2 2830.50  127.02   2
  -5  -1   2 2698.72  123.98   1
  -5   0  -2 1.67872 2.60493   1
  -5   0  -2 -0.1228  2.3808   4
   5   0  -2 -1.0177  2.0634   1
   5   0  -2 0.89109 2.25825   4
   0   5  -2 0.87374 1.74471   4
   0   5  -2 0.60615 1.70241   3
  -5   0  -2 -2.5449  1.6636   3
   0   5  -2 0.66333 1.29188   1
   0   5  -2 -2.1019  1.4438   4
   0   5  -2 -0.5301  2.5123   2
   0   5   2 0.46178 0.83344   3
  -5   0   2 0.91446 1.83444   4
   5   0   2 1.09320 1.58817   4
   5   0   2 1.29304 1.73938   1
   0   5   2 0.18186 0.70389   4
   0  -5   2 -0.9661  1.2228   4
   0   5   2 1.29795 1.32258   2
   0   5   2 -1.3741  0.9273   1
  -5   0   2 1.53169 2.00953   1
   5   0   2 -0.1697  1.7627   2
   0  -5   2 0.18321 1.13976   1
   0  -5   2 -0.6369  0.9597   4
  -5   1  -2 3060.95  138.37   4
   1   5  -2 2759.29  124.31   1
   1   5  -2 2867.00  137.71   4
   1   5  -2 2739.70  128.73   2
   5  -1  -2 2944.71  127.84   2
  -5   1  -2 2912.33  114.88   3
   5  -1  -2 2777.12  114.71   3
  -5   1  -2 3031.89  128.53   2
   5  -1  -2 2935.37  137.82   4
  -5   1  -2 3008.26  125.33   1
   5  -1  -2 2728.91  124.48   1
   5  -1   2 2804.07  124.94   1
   5  -1   2 2733.52  137.82   4
   1   5   2 2835.18  124.27   1
  -1  -5   2 2533.33  124.16   1
  -5   1   2 2829.58  138.08   4
  -1  -5   2 2777.92  137.00   4
  -5   1   2 2878.13  125.26   1
  -1  -5   2 2819.62  137.39   4
   1   5   2 2922.74  114.27   3
   5  -1   2 2786.55  128.57   2
   1   5   2 2970.87  136.94   4
  -5   2  -2 9.34511 2.44729   1
   5  -2  -2 9.27288 2.01971   4
   2   5  -2 13.3180  2.1965   1
   5  -2  -2 10.4086  1.6161   1
  -5   2  -2 11.4857  2.4029   2
   2   5  -2 10.9672  2.2768   4
  -5   2  -2 6.83610 2.23034   4
   5  -2  -2 5.74341 1.91893   2
  -5   2  -2 9.41049 1.77627   3
   5  -2   2 5.47121 2.38537   1
   5  -2   2 8.98987 3.28844   2
   2   5   2 10.7275  1.7100   3
  -2  -5   2 8.49489 1.52646   4
   2   5   2 7.67530 1.77418   4
  -2  -5   2 8.81792 2.27680   4
   2   5   2 10.9272  2.1138   1
  -5   2   2 14.3494  2.8741   4
  -2  -5   2 7.23504 1.91603   1
  -5   2   2 11.1796  2.7550   1
   5  -2   2 9.59917 2.06529   4
  -3  -5  -2 852.672  42.283   4
   3   5  -2 945.409  44.103   4
  -5   3  -2 920.631  43.694   4
   5  -3  -2 841.377  39.969   2
   3   5  -2 899.031  39.027   1
  -5   3  -2 958.733  39.880   1
  -5   3  -2 875.052  36.043   3
   5  -3   2 865.435  43.193   4
  -3  -5   2 809.006  39.101   1
   5  -3   2 864.554  41.251   2
  -3  -5   2 777.986  43.328   4
   3   5   2 877.376  35.973   3
   5  -3   2 878.429  39.017   1
   5  -3   2 778.593  43.121   4
   3   5   2 859.027  43.076   4
  -3  -5   2 881.727  43.015   4
  -5   3   2 873.680  43.440   4
   3   5   2 889.680  39.382   1
  -5   3   2 888.668  36.103   3
  -5   3   2 888.415  39.404   1
   5  -4  -2 46.0865  4.0412   2
  -5   4  -2 54.2423  4.5532   1
  -5   4  -2 54.4017  4.9766   4
  -4  -5  -2 50.6184  3.2265   1
   4   5  -2 60.7894  6.0956   4
   4   5  -2 51.0843  4.4567   1
  -5   4  -2 56.7623  4.0424   3
   5  -4   2 48.5844  5.1037   2
   4   5   2 62.2600  5.2294   1
  -5   4   2 51.9981  3.8519   3
   5  -4   2 50.1415  3.9860   1
  -4  -5   2 57.5779  5.3088   4
   4   5   2 50.1490  4.0093   3
   5  -4   2 52.9851  4.3690   4
   4   5   2 54.2346  4.9449   4
  -5   4   2 59.3240  4.8989   4
  -4  -5   2 46.3825  4.6649   1
  -5   4   2 51.9473  4.3086   1
  -4  -5   2 51.3333  4.2954   4
  -5   5  -2 2426.73  102.06   1
  -5   5  -2 2446.67   93.74   3
  -5  -5  -2 2324.53  111.96   4
  -5   5  -2 2453.59  112.54   4
  -5  -5  -2 2420.97  101.14   1
   5   5  -2 2071.71  113.61   4
   5   5  -2 2347.24  102.05   1
  -5   5   2 2313.75  101.63   1
  -5   5   2 2365.73  112.24   4
  -5  -5   2 2229.84  102.18   1
   5  -5   2 2317.07  105.81   2
  -5  -5   2 2000.31  112.78   4
   5   5   2 2260.94   94.01   3
   5   5   2 2365.75  102.59   1
  -5   5   2 2463.65   93.58   3
   5   5   2 2137.56  112.71   4
   5  -6  -2 125.568   7.533   2
  -5   6  -2 116.002   7.947   4
  -6  -5  -2 118.529   7.893   4
  -5   6  -2 125.644   6.704   3
   6   5  -2 96.5494  8.1131   1
  -5   6  -2 122.621   7.444   1
  -6  -5  -2 128.074   7.345   1
   6   5   2 121.485   9.147   1
  -6  -5   2 134.838   8.847   1
   5  -6   2 128.188   8.948   2
  -5   6   2 115.823   6.168   3
  -5   6   2 101.894   6.930   1
  -5   6   2 114.199   7.714   4
  -4   6  -2 774.944  31.892   3
  -6  -4  -2 782.631  38.651   4
   6   4  -2 788.482  35.317   1
  -6  -4  -2 789.741  34.685   1
  -4   6  -2 770.640  34.560   1
  -4   6  -2 789.959  38.234   4
  -6  -4   2 737.447  35.780   1
   6   4   2 786.471  35.858   1
   4  -6   2 727.302  36.860   2
  -4   6   2 805.153  37.769   4
   6   4   2 649.038  38.789   4
  -4   6   2 772.503  31.392   3
  -4   6   2 831.222  35.390   2
  -6  -4   2 648.861  39.167   4
  -3   6  -2 27.8080  3.1354   4
   6   3  -2 22.2629  4.8432   4
  -6  -3  -2 31.1475  3.6823   1
  -6  -3  -2 28.5734  4.0046   4
  -3   6  -2 27.6119  3.0247   1
  -3   6  -2 27.2080  2.7435   3
  -6  -3  -2 25.7581  2.5633   3
   6   3  -2 25.5571  3.3292   1
  -3   6   2 29.0801  2.4447   4
  -3   6   2 28.8977  1.8106   3
  -3   6   2 25.8123  1.8770   3
  -3   6   2 26.2124  2.6007   2
   3  -6   2 24.6396  3.9068   2
  -6  -3   2 26.8549  4.5775   1
   6   3   2 30.1422  4.5279   1
  -3   6   2 26.2560  2.0120   1
   6   3   2 17.0395  3.3273   4
   6   3   2 29.0355  3.6578   2
  -6  -3   2 27.1879  4.4941   4
  -6  -2  -2 2150.44  102.77   4
  -6  -2  -2 2095.69   85.15   3
  -2   6  -2 2132.40   91.98   1
   6   2  -2 2153.63   92.77   1
  -2   6  -2 2079.30  101.61   4
  -6  -2  -2 2146.79   92.84   1
  -2   6  -2 2122.98  101.82   4
  -2   6  -2 2119.60   84.93   3
   6   2  -2 1949.18  103.22   4
   6   2   2 2112.58   93.09   1
  -6  -2   2 1987.95   93.37   1
  -2   6   2 2167.81  100.83   4
   6   2   2 1892.41  102.48   4
  -2   6   2 2119.85   94.43   2
  -2   6   2 2172.61   84.07   3
   6   2   2 2220.74   95.61   2
  -2   6   2 2110.80   83.98   3
   6   2   2 1995.61   85.25   3
  -1   6  -2 145.782   8.323   4
  -6  -1  -2 151.731   7.351   3
   6   1  -2 140.367   9.614   4
  -6  -1  -2 146.174   9.053   1
  -1   6  -2 145.612   7.260   3
  -1   6  -2 143.135   7.372   1
   6   1  -2 148.883   8.558   1
  -1   6  -2 142.105   8.580   4
  -6  -1  -2 148.458   9.467   4
  -1   6   2 137.807   6.468   1
  -6  -1   2 143.622   9.628   1
  -1   6   2 137.992   5.817   3
   6   1   2 143.797   9.562   4
  -1   6   2 147.142   7.324   4
  -1   6   2 141.515   7.750   2
   6   1   2 144.382   9.234   2
   6   1   2 148.026   8.517   1
  -6  -1   2 137.556   9.967   4
   0   6  -2 374.485  19.506   4
   0   6  -2 398.009  19.869   4
   6   0  -2 371.519  18.200   1
  -6   0  -2 390.046  19.049   1
   0   6  -2 403.054  16.592   3
   0   6  -2 373.665  17.539   1
  -6   0  -2 376.915  16.760   3
  -6   0  -2 413.872  21.200   4
   6   0  -2 394.957  20.779   4
   0   6   2 343.344  17.017   1
   0   6   2 375.052  15.630   3
   0   6   2 383.028  18.758   4
   0   6   2 379.905  18.298   2
   6   0   2 386.278  18.679   1
   6   0   2 358.681  20.427   4
  -6   0   2 378.709  19.209   1
  -6   0   2 375.481  20.918   4
   6   0   2 386.603  19.223   2
   6  -1  -2 153.046   8.243   2
   6  -1  -2 142.269   7.945   1
  -6   1  -2 143.827   7.315   3
   1   6  -2 142.725   7.486   1
   6  -1  -2 136.346   7.347   3
  -6   1  -2 157.066  10.180   4
  -6   1  -2 136.123   8.738   1
   1   6  -2 141.417   8.819   4
   6  -1  -2 156.208   9.265   4
   6  -1   2 117.624   9.058   4
   1   6   2 127.953   7.325   1
   1   6   2 150.384   7.877   4
  -6   1   2 140.796   9.304   4
   6  -1   2 140.250   8.531   1
   6  -1   2 147.113   9.434   2
   1   6   2 143.727   6.553   3
  -6   1   2 153.817   9.346   1
  -6   2  -2 2038.20   92.51   1
   2   6  -2 2210.73  101.58   4
   6  -2  -2 2068.81   91.16   1
   6  -2  -2 2177.20   94.05   2
  -6   2  -2 2110.23  102.01   4
  -6   2  -2 2117.60   84.45   3
   2   6  -2 2084.48   91.31   1
  -6   2   2 2113.15   92.30   1
   6  -2   2 1749.54  101.17   4
   6  -2   2 2179.88   91.86   1
  -6   2   2 2061.89  101.76   4
   6  -2   2 2045.97   94.99   2
   2   6   2 2100.51  100.63   4
   2   6   2 2076.22   84.00   3
   2   6   2 2052.47   91.44   1
   3   6  -2 28.4182  4.2407   4
   6  -3  -2 27.5531  3.1896   2
   6  -3  -2 18.3703  1.7160   1
  -6   3  -2 23.3414  4.2926   1
  -6   3  -2 30.3365  3.2003   3
   3   6  -2 24.3891  3.0902   1
  -6   3  -2 30.9905  3.9256   4
   3   6   2 20.9358  3.2577   1
  -6   3   2 32.3543  2.9765   3
  -6   3   2 26.8212  3.4950   4
  -3  -6   2 21.5455  3.1873   4
  -6   3   2 23.8970  3.6958   1
   3   6   2 27.1669  3.2449   4
   6  -3   2 23.7685  3.8037   2
  -3  -6   2 28.3139  2.9681   1
   3   6   2 29.4213  2.8858   3
   6  -3   2 25.4812  3.2982   1
   4   6  -2 788.624  39.454   4
   6  -4  -2 777.203  35.707   2
  -6   4  -2 799.287  38.878   4
   4   6  -2 755.307  34.737   1
  -6   4  -2 815.859  35.644   1
  -6   4  -2 796.702  32.020   3
   6  -4   2 720.288  36.904   2
   4   6   2 749.302  31.972   3
  -6   4   2 821.982  32.212   3
   4   6   2 716.725  38.438   4
  -4  -6   2 705.256  38.376   4
   6  -4   2 762.684  38.005   4
  -6   4   2 696.273  38.521   4
  -6   4   2 747.879  34.996   1
   4   6   2 772.004  35.259   1
  -6   5  -2 119.630   6.804   3
   5   6  -2 120.128   7.957   1
   6  -5  -2 116.538   7.510   2
  -6   5  -2 124.381   8.040   4
  -6   5  -2 116.213   7.528   1
   5   6   2 112.346   8.502   1
   6  -5   2 109.073   8.559   2
  -5  -6   2 127.506   7.702   1
  -6   5   2 113.186   8.066   4
  -6   5   2 101.170   7.698   1
  -6   5   2 115.525   6.689   3
   5   6   2 102.474   8.457   4
  -6   6  -2 132.184   8.294   4
   6   6  -2 118.462   7.898   1
  -6   6  -2 111.792   8.088   1
  -6   6  -2 129.484   6.774   3
   6  -6  -2 117.583   7.949   2
  -6   6   2 102.901   8.008   4
   6   6   2 119.387   8.536   1
  -6  -6   2 133.877   8.661   1
  -6   6   2 134.750   7.017   3
   6  -6   2 114.215   9.697   2
  -6   6   2 118.532   7.923   1
  -6   7  -2 3.88811 1.90464   3
  -6   7  -2 3.05702 2.84947   4
  -6   7  -2 15.7992  3.4409   1
   7   6  -2 8.24182 4.05951   1
   7   6   2 9.85659 4.74955   1
   6  -7   2 4.65019 4.77660   2
  -7  -6   2 16.2820  4.3746   1
  -6   7   2 4.37324 2.39343   4
  -6   7   2 9.56926 2.31413   3
  -5   7  -2 439.316  18.810   3
   7   5  -2 402.357  20.954   1
  -7  -5  -2 435.803  20.516   1
  -5   7  -2 415.681  20.297   1
  -5   7  -2 451.575  22.539   4
  -5   7   2 381.769  21.827   4
  -7  -5   2 424.668  21.759   1
   5  -7   2 428.493  22.607   2
  -5   7   2 452.010  18.309   3
   7   5   2 428.738  22.140   1
  -4   7  -2 9.65729 2.47860   4
  -4   7  -2 10.0672  2.3371   3
  -7  -4  -2 12.6164  3.1828   1
  -4   7  -2 6.16069 2.23967   1
   7   4  -2 5.69531 2.64043   1
  -4   7   2 8.36452 1.67358   3
  -4   7   2 6.79297 1.83569   4
   4  -7   2 7.19178 3.24710   2
   7   4   2 7.44950 4.17712   1
   7   4   2 10.0827  3.9358   2
  -7  -4   2 10.5421  4.4560   1
   7   3  -2 413.884  20.209   1
  -7  -3  -2 412.843  19.984   1
  -3   7  -2 393.909  17.634   3
  -3   7  -2 409.310  21.042   4
  -3   7  -2 381.327  18.836   1
  -3   7   2 422.902  20.161   4
  -7  -3   2 400.182  20.592   1
   7   3   2 397.401  20.672   1
   7   3   2 424.199  21.163   2
  -3   7   2 402.551  16.597   3
  -3   7   2 406.977  16.640   3
  -7  -2  -2 10.8846  3.0821   4
  -2   7  -2 13.6142  2.2635   3
  -2   7  -2 14.5590  2.1329   1
  -7  -2  -2 5.63657 3.52991   1
   7   2  -2 8.27582 3.43942   1
  -2   7  -2 13.3558  2.3692   4
  -2   7  -2 13.8843  2.2509   4
  -2   7   2 14.2686  2.3404   2
   7   2   2 12.8077  3.0785   1
  -7  -2   2 14.1925  3.5163   1
  -2   7   2 12.3301  1.2469   4
  -7  -2   2 9.90793 4.02445   4
   7   2   2 13.6720  3.1029   2
  -1   7  -2 283.448  15.034   4
  -1   7  -2 295.314  12.658   3
  -1   7  -2 282.684  14.732   4
  -7  -1  -2 272.354  13.001   3
  -1   7  -2 274.626  13.141   1
   7   1  -2 297.558  16.970   4
   7   1  -2 295.660  14.207   1
  -7  -1  -2 306.065  15.281   1
  -7  -1   2 248.113  16.461   4
   7   1   2 268.953  14.767   1
  -7  -1   2 256.974  15.365   1
   7   1   2 234.371  15.904   4
   7   1   2 264.950  14.879   2
  -1   7   2 264.687  13.894   2
  -1   7   2 284.879  13.643   4
   0   7  -2 -1.4449  1.9222   4
   0   7  -2 1.39578 1.79317   4
   7   0  -2 -0.2113  2.5094   2
  -7   0  -2 -5.1909  2.0264   4
  -7   0  -2 -1.1637  3.5236   1
   0   7  -2 -0.3593  1.8697   3
   0   7  -2 0.84529 1.57818   1
   7   0  -2 3.43929 2.34489   4
   7   0  -2 0.69428 2.69261   1
  -7   0  -2 -0.6126  1.5559   3
  -7   0   2 0.66543 3.52127   1
  -7   0   2 3.41833 3.47653   4
   0   7   2 -1.6477  1.9188   2
   0   7   2 0.74030 0.94057   3
   0   7   2 0.30924 0.93259   4
   7   0   2 -1.5882  2.2103   2
   7   0   2 -1.2409  2.8366   4
   7   0   2 7.33806 3.32946   1
   1   7  -2 288.882  13.011   1
  -7   1  -2 231.787  14.850   1
   1   7  -2 291.541  14.900   4
  -7   1  -2 258.607  12.454   3
   7  -1  -2 294.050  14.185   2
   7  -1  -2 277.909  13.525   1
  -7   1  -2 228.798  15.717   4
  -7   1   2 261.302  15.727   4
   7  -1   2 224.722  15.316   4
  -7   1   2 278.446  15.003   1
   1   7   2 242.224  12.758   1
   1   7   2 269.093  11.669   3
   1   7   2 275.511  14.001   2
   7  -1   2 279.051  15.251   2
   1   7   2 289.175  13.934   4
   7  -1   2 282.116  14.180   1
  -7   2  -2 4.18097 3.97558   1
   7  -2  -2 8.95935 2.20923   1
  -7   2  -2 11.2540  4.0201   4
   2   7  -2 10.7937  3.0579   4
   2   7  -2 14.6734  2.4974   1
  -7   2  -2 12.3346  2.8417   3
   7  -2  -2 12.4123  2.4292   2
   2   7   2 12.1383  1.9564   3
   7  -2   2 9.81343 3.07801   2
  -7   2   2 11.9633  2.9851   1
   2   7   2 12.9252  2.2537   4
  -7   2   2 10.7093  3.0205   4
   7  -2   2 7.83848 3.18197   4
   7  -2   2 11.2293  3.2440   1
   2   7   2 7.08903 2.24372   1
  -7   3  -2 387.351  21.169   4
   3   7  -2 377.396  20.903   4
   7  -3  -2 379.428  18.949   2
  -7   3  -2 308.633  19.395   1
   3   7  -2 399.424  18.175   1
  -7   3  -2 394.553  16.960   3
   3   7   2 381.009  16.681   3
  -7   3   2 368.475  21.014   4
   3   7   2 386.752  18.489   1
  -7   3   2 401.277  17.369   3
   7  -3   2 358.430  19.837   2
  -7   3   2 385.473  19.269   1
   3   7   2 369.216  19.974   4
   7  -3   2 374.651  18.212   1
   4   7  -2 10.5895  2.9917   1
  -7   4  -2 6.69902 4.02153   1
  -7   4  -2 12.2747  2.8570   3
   4   7  -2 11.4298  3.1792   4
   7  -4  -2 9.44895 2.96866   2
  -7   4  -2 9.51649 3.71790   4
  -7   4   2 11.6169  3.4630   4
   7  -4   2 6.17790 2.16701   1
   7  -4   2 6.23037 4.36043   2
   4   7   2 10.0290  3.2547   1
  -7   4   2 7.80174 3.35214   1
   4   7   2 7.77901 2.89978   4
  -7   4   2 8.58549 2.87524   3
  -7   5  -2 442.101  22.527   4
  -7   5  -2 433.672  18.550   3
   5   7  -2 420.498  20.272   1
   7  -5  -2 418.605  20.725   2
  -7   5  -2 451.154  21.174   1
  -7   5   2 438.734  18.497   3
   5   7   2 432.120  21.009   1
  -7   5   2 370.672  22.189   4
   7  -5   2 401.989  21.880   2
  -7   5   2 374.274  20.229   1
   5   7   2 335.970  22.190   4
  -7   6  -2 3.18266 3.62709   1
  -7   6  -2 5.81741 2.58726   4
  -7   6  -2 9.43505 2.88815   3
   6   7  -2 11.8434  3.9855   1
  -6  -7   2 14.7206  3.7981   1
  -7   6   2 10.3372  3.3531   1
  -7   6   2 8.16843 2.74541   3
   6   7   2 6.48204 4.39694   1
   7  -6   2 9.57830 3.70019   2
  -7   6   2 1.47185 2.88473   4
  -7   7  -2 117.651   8.900   4
   7   7  -2 118.877   9.413   1
  -7   7  -2 114.947   7.356   3
  -7   7  -2 123.440   8.615   1
  -7   7   2 116.810   7.247   3
   7   7   2 115.233   9.753   1
  -7   7   2 113.871   8.439   4
  -7   8  -2 99.8969  6.7311   3
   8   7  -2 101.337   8.672   1
  -7   8  -2 87.3346  7.0789   1
   8   7   2 89.1772  9.2609   1
  -7   8   2 88.9906  6.5633   3
  -8  -7   2 82.0097  7.1467   1
   8   6  -2 1298.27   61.95   1
  -6   8  -2 1374.80   56.16   3
  -6   8  -2 1351.99   67.28   4
  -6   8  -2 1286.65   60.90   1
  -8  -6   2 1389.95   61.94   1
  -6   8   2 1394.09   55.76   3
   8   6   2 1412.85   62.72   1
  -5   8  -2 3.96498 2.60961   4
  -8  -5  -2 1.18949 3.13618   1
  -5   8  -2 5.95356 2.49188   3
  -5   8  -2 7.69182 3.13578   1
   8   5  -2 4.10421 4.12991   1
  -8  -5   2 8.82552 5.02188   1
   8   5   2 5.45683 4.42620   2
  -5   8   2 7.26094 2.09192   4
   8   5   2 12.6661  5.3182   1
   5  -8   2 10.0961  3.9017   2
  -5   8   2 7.82077 1.67485   3
  -4   8  -2 123.162   6.932   3
  -4   8  -2 122.071   7.717   4
  -4   8  -2 119.290   7.178   1
   8   4  -2 134.503   9.491   1
  -8  -4  -2 119.227   8.612   1
  -4   8   2 129.870   5.889   3
  -4   8   2 110.807   6.974   4
   8   4   2 132.455   9.911   1
   8   4   2 108.146   8.760   2
  -8  -4   2 134.866  10.403   1
  -8  -3  -2 30.5944  4.8285   1
  -3   8  -2 29.2230  3.1037   3
   8   3  -2 20.3569  4.6499   1
  -3   8  -2 32.4384  3.1284   1
  -3   8  -2 25.4643  3.2602   4
   8   3   2 24.8119  5.1738   1
  -3   8   2 28.7924  1.7471   3
   8   3   2 31.5360  4.5170   2
  -3   8   2 25.4653  2.1842   4
  -8  -3   2 24.0283  5.4329   1
  -3   8   2 25.5945  1.6870   3
  -2   8  -2 3.77557 1.85165   1
  -2   8  -2 2.11289 2.05481   3
  -2   8  -2 4.95896 1.61981   4
  -8  -2  -2 2.26426 3.78211   1
  -2   8  -2 3.03553 2.24850   4
   8   2  -2 4.61487 3.67768   1
   8   2   2 10.7133  4.1438   2
  -2   8   2 5.65021 0.78967   4
  -8  -2   2 3.27822 4.44737   1
   8   2   2 4.96782 3.94658   1
  -2   8   2 4.59754 0.81346   4
  -8  -1  -2 174.992  10.785   1
   8   1  -2 166.848   9.934   1
  -1   8  -2 172.248   8.642   3
  -1   8  -2 165.901   8.925   1
  -1   8  -2 167.868   9.813   4
  -1   8  -2 162.375  10.118   4
  -1   8   2 167.041   6.992   3
   8   1   2 172.635  11.129   1
   8   1   2 173.625  10.784   2
  -1   8   2 177.955   8.608   4
  -8  -1   2 153.868  10.751   1
  -8   0  -2 2068.04   82.68   3
   8   0  -2 2098.73   89.75   1
  -8   0  -2 1973.47   90.79   1
   0   8  -2 2023.74   88.75   1
   0   8  -2 2048.60   82.25   3
   0   8  -2 2070.29   98.52   4
   8   0  -2 2125.23   92.25   2
  -8   0   2 1780.35   99.72   4
   0   8   2 2109.33   97.36   4
   8   0   2 2100.49   90.18   1
  -8   0   2 1824.81   90.49   1
   0   8   2 2005.29   81.18   3
   8   0   2 1987.60   92.88   2
   1   8  -2 171.750  10.393   4
   8  -1  -2 167.092  10.069   2
   1   8  -2 161.515   8.732   1
   8  -1  -2 174.927   9.742   1
  -8   1  -2 138.592  11.389   1
  -8   1  -2 174.551   8.824   3
  -8   1   2 164.722  11.389   1
   8  -1   2 164.561  10.308   1
   1   8   2 163.462   9.254   4
  -8   1   2 147.426  11.133   4
   8  -1   2 166.292  11.291   2
   1   8   2 169.333   7.687   3
   2   8  -2 6.34430 2.36376   1
  -8   2  -2 5.58219 4.19611   4
   8  -2  -2 6.16475 2.40945   1
   2   8  -2 5.06110 2.96936   4
   8  -2  -2 1.07597 2.92266   2
  -8   2  -2 -4.6935  3.9025   1
  -8   2  -2 3.05612 2.80757   3
   2   8   2 3.17950 1.72967   3
   8  -2   2 6.16795 4.27733   2
   8  -2   2 7.36234 3.39562   1
  -8   2   2 5.00084 4.11112   1
  -8   2   2 6.48438 3.00148   4
   2   8   2 0.72595 2.53057   1
   2   8   2 3.85522 2.35210   4
  -8   3  -2 32.1090  3.9518   3
   8  -3  -2 23.7686  3.9811   2
  -8   3  -2 11.1894  4.8625   1
  -8   3  -2 23.2551  4.4175   4
   3   8  -2 27.3480  3.9438   4
   3   8  -2 29.3018  3.6449   1
   3   8   2 26.0801  3.0651   3
  -8   3   2 23.9372  4.8750   1
   3   8   2 29.2419  3.8248   1
   3   8   2 26.2676  3.6515   4
   8  -3   2 29.3793  4.6160   2
  -8   3   2 21.7901  4.8235   4
   8  -3   2 27.5487  3.7776   1
  -8   4  -2 127.368   7.786   3
  -8   4  -2 107.641   9.580   1
  -8   4  -2 145.857   9.834   4
   4   8  -2 120.656   8.249   1
   8  -4   2 132.461   9.703   2
  -8   4   2 114.191   9.782   4
   4   8   2 108.630   8.795   4
  -8   4   2 118.456   9.219   1
   4   8   2 132.684   9.444   1
  -8   4   2 130.953   8.142   3
   8  -4   2 133.935   7.867   1
  -8   5  -2 8.61239 4.48241   1
   8  -5  -2 6.07712 3.53448   2
  -8   5  -2 7.02544 3.01653   3
  -8   5  -2 10.0093  4.1966   4
   5   8  -2 8.13289 3.58822   1
  -8   5   2 5.95776 3.72892   1
  -8   5   2 1.51731 2.97863   3
  -8   5   2 3.75004 3.54838   4
   5   8   2 5.38948 3.99462   1
  -8   6  -2 1314.33   66.32   4
  -8   6  -2 1317.03   55.00   3
   6   8  -2 1299.97   60.00   1
  -8   6  -2 1422.91   60.66   1
  -8   6   2 1444.69   55.32   3
   6   8   2 1301.46   60.74   1
  -8   6   2 1286.29   66.16   4
  -8   6   2 1187.57   60.02   1
  -8   7  -2 83.5947  8.0349   4
  -8   7  -2 86.3513  7.7878   1
   7   8  -2 97.5064  8.3324   1
  -8   7  -2 96.9907  7.1200   3
   7   8   2 117.689   9.693   1
  -8   7   2 105.900   7.185   3
  -8   8  -2 49.4182  5.0497   3
   8   8  -2 51.2574  6.9265   1
  -8   8  -2 55.3767  6.1563   1
  -8   8   2 53.8441  4.8456   3
   8   8   2 50.9032  7.6639   1
  -8   9  -2 104.723   7.571   3
   9   8  -2 111.352   9.972   1
   9   8   2 95.0916 10.3278   1
   9   7  -2 130.551  10.857   1
  -7   9  -2 127.566   8.205   3
  -7   9   2 124.819   7.691   3
   9   7   2 156.165  11.201   1
   9   6  -2 1.66878 4.91068   1
  -6   9  -2 1.24375 2.62526   3
  -6   9   2 3.49486 2.15767   3
  -9  -6   2 2.87797 4.75053   1
   9   6   2 8.45032 5.74241   1
  -5   9  -2 55.5247  4.6101   3
   9   5  -2 59.7843  7.2098   1
  -9  -5  -2 55.6255  5.8386   1
   9   5   2 54.4290  7.5558   1
  -5   9   2 57.1966  3.8995   3
  -9  -5   2 66.3294  7.7222   1
  -9  -4  -2 198.573  12.408   1
  -4   9  -2 198.043  11.690   4
  -4   9  -2 206.174  10.030   3
   9   4  -2 193.203  12.967   1
  -4   9   2 194.743   8.730   3
   9   4   2 198.410  13.687   1
  -9  -4   2 200.483  13.712   1
   9   3  -2 2025.57   93.26   1
  -9  -3  -2 2210.02   93.41   1
  -3   9  -2 2049.76  101.33   4
  -3   9  -2 2146.44   84.80   3
  -3   9   2 2076.80   83.40   3
   9   3   2 2076.56   93.79   1
  -9  -3   2 2022.07   93.96   1
  -3   9   2 2090.62   83.38   3
  -3   9   2 2096.17   99.83   4
  -3   9   2 2033.89   99.86   4
  -9  -2  -2 115.972   9.468   1
  -2   9  -2 116.259   8.017   4
  -2   9  -2 118.578   6.826   1
   9   2  -2 111.756   8.910   1
  -2   9  -2 113.184   7.625   4
  -2   9  -2 120.527   6.856   3
   9   2   2 124.861  10.130   2
   9   2   2 118.589   8.866   1
  -9  -2   2 122.210  10.091   1
   9   1  -2 5.43773 4.21350   1
  -1   9  -2 -0.2309  2.2132   1
  -1   9  -2 -0.8791  2.1224   3
   9   1  -2 3.48132 3.57261   2
  -9  -1  -2 1.20766 4.77056   1
  -1   9  -2 -3.0009  2.1720   4
   9   1   2 2.86365 4.38629   1
   9   1   2 -1.8772  2.7796   2
  -1   9   2 1.36354 0.84761   4
  -1   9   2 0.68714 0.73842   3
  -9  -1   2 -0.4832  4.5665   1
  -9   0  -2 0.94012 4.74706   1
   0   9  -2 0.96744 2.32322   3
   9   0  -2 0.55009 3.37676   2
   0   9  -2 2.08804 2.47679   4
   0   9  -2 0.03611 1.90370   1
   9   0  -2 -5.0996  3.2747   1
   9   0   2 2.89527 4.00439   1
  -9   0   2 0.48893 4.56885   1
   0   9   2 0.57331 1.28575   3
   0   9   2 0.87102 1.43042   4
   9   0   2 -3.2449  3.9752   2
   1   9  -2 -1.2634  1.6400   3
   9  -1  -2 -1.2274  2.2323   2
   1   9  -2 2.31287 2.76198   4
   9  -1  -2 -3.3832  2.9713   1
   1   9  -2 -0.6468  2.0537   1
  -9   1  -2 -4.3282  3.3627   1
  -9   1   2 -1.1641  4.5503   1
   9  -1   2 -4.2139  2.6531   2
   9  -1   2 4.47684 3.91159   1
   1   9   2 1.96430 1.59689   4
   1   9   2 -0.2446  1.6164   3
   2   9  -2 117.054   8.509   4
  -9   2  -2 113.964  10.096   1
   9  -2  -2 107.052   7.677   2
   9  -2  -2 101.608   7.295   1
  -9   2  -2 124.305   7.777   3
   2   9  -2 111.050   7.055   1
   2   9   2 98.1588  7.5176   4
   2   9   2 117.305   6.403   3
  -9   2   2 103.893   9.265   1
   9  -2   2 109.427   8.373   1
  -9   3  -2 1825.68   86.69   1
   9  -3  -2 2017.25   87.99   2
   3   9  -2 2066.37   84.96   1
  -9   3  -2 2020.64   78.83   3
  -9   3   2 1871.66   86.40   1
  -9   3   2 1863.01   95.07   4
   3   9   2 1719.48   93.50   4
  -9   4  -2 193.454  10.054   3
  -9   4  -2 191.902  13.364   1
   4   9  -2 195.405  11.083   1
   9  -4  -2 175.013  11.667   2
  -9   4   2 172.934  12.429   1
  -9   4   2 180.759  12.559   4
   4   9   2 187.437  11.480   1
   5   9  -2 61.2730  6.0043   1
  -9   5  -2 57.5240  5.4680   3
  -9   5  -2 59.3362  7.4489   1
   5   9   2 51.5897  6.3518   1
  -9   5   2 63.0327  6.8705   1
  -9   5   2 44.1904  6.5085   4
  -9   6  -2 4.39513 2.55879   3
  -9   6  -2 3.11109 4.65601   1
   6   9  -2 5.58521 4.15194   1
  -9   6   2 2.46379 3.42029   3
   6   9   2 0.48987 4.47386   1
  -9   6   2 -0.9155  4.0438   1
   7   9  -2 103.090   9.245   1
  -9   7  -2 128.365   8.542   3
  -9   7  -2 123.690   9.697   1
  -9   7   2 120.754   8.449   3
   7   9   2 128.204  10.764   1
  -9   8  -2 110.025   9.523   1
  -9   8  -2 105.064   7.729   3
   8   9  -2 101.798   9.560   1
  -9   8   2 114.862   7.918   3
   8   9   2 131.013  11.192   1
   9   9  -2 484.466  26.574   1
   9   9   2 518.512  27.719   1
  10   9  -2 109.945   9.921   1
  10   9   2 102.886  11.468   1
  10   8  -2 103.832  10.336   1
  10   8   2 108.168  11.321   1
  10   7  -2 34.5641  5.9950   1
  10   7   2 32.0816  7.8337   1
  -6  10  -2 35.2917  4.1237   3
  10   6  -2 33.1424  6.8479   1
  10   6   2 37.9051  7.6127   1
 -10  -6   2 25.6172  6.3720   1
  -6  10   2 38.2042  3.3399   3
 -10  -5  -2 -0.3330  4.3688   1
  -5  10  -2 6.12208 2.77106   3
  10   5  -2 3.22322 3.83055   1
  -5  10   2 6.95437 1.64525   3
 -10  -5   2 12.7228  6.0034   1
  10   5   2 4.51731 4.41910   1
 -10  -4  -2 233.762  14.338   1
  -4  10  -2 236.329  11.315   3
  10   4  -2 223.921  13.906   1
 -10  -4   2 223.465  15.400   1
  10   4   2 206.223  14.090   1
  -4  10   2 231.958   9.855   3
  10   3  -2 68.2586  7.6313   1
 -10  -3  -2 71.6955  7.5795   1
  -3  10  -2 53.1127  4.5325   3
  10   3   2 54.7209  7.6167   1
 -10  -3   2 61.2317  8.3901   1
  -3  10   2 58.3826  2.7771   3
 -10  -2  -2 263.199  16.028   1
  -2  10  -2 257.436  12.239   3
  10   2  -2 245.084  15.323   1
 -10  -2   2 241.981  16.334   1
  10   2   2 255.517  15.771   1
  -1  10  -2 19.8033  3.5123   4
 -10  -1  -2 12.1724  6.0213   1
  10   1  -2 18.0404  5.2478   1
  -1  10  -2 18.5534  3.1395   3
 -10  -1   2 15.5630  6.0442   1
  10   1   2 7.66462 5.03309   1
  -1  10   2 21.2753  1.5832   3
  10   0  -2 80.0584  7.6528   2
 -10   0  -2 92.5521  8.5040   1
   0  10  -2 86.8333  6.1549   3
  10   0  -2 85.4047  7.4682   1
   0  10  -2 85.3794  7.0716   4
  10   0   2 84.7325  8.2012   1
   0  10   2 78.7914  5.2195   4
   0  10   2 85.5656  4.5618   3
 -10   0   2 78.1601  8.9289   1
   1  10  -2 16.1770  3.4895   3
 -10   1  -2 17.5885  6.6700   1
  10  -1  -2 22.5231  4.1642   1
   1  10  -2 21.2489  3.6751   1
  10  -1  -2 15.3775  4.7006   2
   1  10   2 23.5428  2.5428   3
 -10   1   2 11.5497  5.6603   1
  10  -1   2 20.2594  4.8567   1
   1  10   2 18.3562  2.5768   4
   2  10  -2 252.693  12.749   1
  10  -2  -2 232.219  13.846   2
 -10   2  -2 251.213  16.586   1
 -10   2   2 249.376  15.666   1
  10  -2   2 245.307  13.890   1
   2  10   2 223.765  13.658   4
  10  -3  -2 51.4784  5.7288   2
   3  10  -2 66.6075  5.6055   1
 -10   3  -2 40.6233  7.8774   1
 -10   3   2 61.1128  7.8118   1
   3  10   2 63.0981  5.8309   4
   4  10  -2 221.027  12.914   1
 -10   4  -2 229.707  14.651   1
 -10   4   2 234.099  14.894   1
   5  10  -2 13.7859  4.3235   1
 -10   5  -2 6.47429 2.90570   3
 -10   5  -2 11.4330  5.8445   1
 -10   5   2 13.6066  5.2440   1
 -10   6  -2 35.5919  5.0936   3
   6  10  -2 37.0787  5.8619   1
 -10   6  -2 31.1632  6.5676   1
 -10   6   2 31.4523  6.1935   1
   6  10   2 44.5548  6.7786   1
 -10   7  -2 28.6128  6.2834   1
   7  10  -2 20.8118  5.7058   1
 -10   7  -2 38.7219  5.1324   3
   7  10   2 33.3332  7.9294   1
 -10   8  -2 97.4061  9.1059   1
   8  10  -2 89.8372  9.4011   1
   8  10   2 124.865  11.492   1
   9  10  -2 106.123  10.191   1
   9  10   2 86.8022  9.4865   1
  10  10   2 127.381  12.786   1
  11   8  -2 28.3007  7.7356   1
  11   8   2 10.5370  5.6873   1
  11   7  -2 76.8456  9.3653   1
  11   7   2 88.6767 10.7603   1
  11   6  -2 24.9288  5.5807   1
  11   6   2 14.6707  7.3022   1
 -11  -6   2 15.2417  6.4130   1
 -11  -5  -2 798.093  37.505   1
  11   5  -2 738.902  38.676   1
 -11  -5   2 822.565  38.437   1
  11   5   2 778.201  39.376   1
 -11  -4  -2 157.811  12.086   1
  -4  11  -2 152.773   8.497   3
  11   4  -2 147.775  11.839   1
  11   4   2 140.297  12.172   1
 -11  -4   2 152.918  11.878   1
  -3  11  -2 221.791  11.703   3
  11   3  -2 225.440  15.472   1
 -11  -3  -2 253.835  15.919   1
 -11  -3   2 256.369  16.692   1
  11   3   2 253.665  15.353   1
  -2  11  -2 163.876   8.496   3
  11   2  -2 146.515  11.332   1
 -11  -2  -2 152.247  12.179   1
  11   2   2 137.175  11.527   1
  -2  11   2 144.229   6.078   3
 -11  -2   2 144.299  11.575   1
  11   1  -2 655.157  32.375   1
  -1  11  -2 671.572  28.679   3
 -11  -1  -2 725.883  34.171   1
 -11  -1   2 660.220  33.827   1
  -1  11   2 641.133  26.941   3
  11   1   2 642.499  32.937   1
   0  11  -2 -0.5850  2.5822   3
 -11   0  -2 3.34239 6.32769   1
  11   0  -2 1.02810 5.39501   1
 -11   0   2 -6.7160  3.7541   1
   0  11   2 0.12388 1.49348   3
  11   0   2 -4.1080  4.7850   1
 -11   1  -2 746.896  34.874   1
   1  11  -2 666.667  29.112   3
 -11   1   2 627.591  33.736   1
  11  -1   2 631.482  32.280   1
   2  11  -2 136.078   8.992   3
 -11   2  -2 187.013  13.670   1
 -11   2   2 143.621  12.147   1
  11  -2   2 113.794   9.933   1
   3  11  -2 242.653  14.082   1
 -11   3  -2 265.351  17.384   1
 -11   3   2 229.669  16.328   1
   4  11  -2 141.840  10.177   1
 -11   4  -2 151.134  12.646   1
 -11   4   2 156.778  12.364   1
 -11   5  -2 796.259  38.079   1
   5  11  -2 724.266  35.878   1
 -11   5   2 747.958  37.477   1
   6  11  -2 19.3191  5.4794   1
 -11   6  -2 15.0414  6.3325   1
 -11   6   2 11.3242  6.1225   1
 -11   7  -2 84.2149  9.1606   1
   7  11  -2 93.1810  9.0881   1
 -11   8  -2 19.9005  6.2970   1
   8  11  -2 21.1336  5.1682   1
   8  11   2 12.5082  6.7549   1
   9  11   2 23.6363  7.9575   1
  12   7  -2 14.7809  7.6037   1
  12   7   2 12.9933  5.8987   1
  12   6  -2 1.42064 6.96421   1
  12   6   2 2.68153 7.16571   1
 -12  -6   2 -6.0475  5.9499   1
  12   5  -2 38.2208  8.1072   1
  12   5   2 14.8187  7.5286   1
 -12  -5   2 28.8078  7.5793   1
  12   4  -2 130.677  11.609   1
 -12  -4  -2 122.093  10.670   1
  12   4   2 116.954  11.739   1
 -12  -4   2 130.298  11.759   1
  12   3  -2 10.5736  6.2416   1
 -12  -3  -2 6.03560 6.29272   1
  12   3   2 -0.0143  6.3975   1
 -12  -3   2 -0.9653  6.6345   1
 -12  -2  -2 393.384  22.406   1
  12   2  -2 365.176  21.190   1
 -12  -2   2 376.085  21.599   1
  12   2   2 382.854  22.037   1
 -12  -1  -2 29.1368  7.8307   1
  12   1  -2 10.3697  5.6568   1
  -1  12   2 20.4553  1.7400   3
  12   1   2 20.9224  6.5126   1
 -12  -1   2 17.6948  5.9371   1
 -12   0  -2 4.22045 7.06517   1
   0  12  -2 5.50494 3.21479   3
  12   0  -2 1.87836 4.61329   1
  12   0   2 3.74275 5.83797   1
 -12   0   2 9.12803 6.61693   1
   1  12  -2 23.8356  4.1246   3
 -12   1  -2 29.6888  8.1665   1
 -12   1   2 18.8869  7.2110   1
  12  -1   2 9.57908 5.32174   1
 -12   2  -2 408.460  24.482   1
 -12   2   2 403.574  23.712   1
 -12   3  -2 15.7029  7.4661   1
 -12   3   2 5.02795 6.54563   1
 -12   4  -2 126.559  11.998   1
 -12   4   2 123.850  10.785   1
 -12   5  -2 29.9507  7.8729   1
 -12   5   2 16.6481  6.9694   1
   6  12  -2 5.61427 5.20085   1
 -12   6  -2 9.78670 6.43494   1
 -12   6   2 1.31307 6.23725   1
   7  12  -2 16.2123  6.2847   1
 -12   7  -2 3.79773 6.17685   1
  13   5  -2 20.6252  7.8475   1
 -13  -5   2 6.54753 7.22096   1
  13   5   2 10.6707  5.7800   1
  13   4  -2 2.04501 6.88217   1
 -13  -4  -2 -4.1334  5.8787   1
  13   4   2 11.9337  7.5267   1
 -13  -4   2 4.12651 7.43622   1
 -13  -3  -2 285.256  18.653   1
  13   3  -2 280.783  18.513   1
 -13  -3   2 295.806  20.054   1
  13   3   2 312.794  19.835   1
  13   2  -2 11.3593  6.3474   1
 -13  -2  -2 -3.2303  6.6499   1
 -13  -2   2 0.20759 7.04618   1
  13   2   2 -1.4819  4.6521   1
  13   1  -2 31.4039  6.5730   1
 -13  -1  -2 39.7909  8.7313   1
  13   1   2 32.1313  7.3977   1
 -13  -1   2 31.3458  8.6961   1
 -13   0  -2 6.67332 7.68106   1
 -13   0   2 -1.0473  6.9403   1
  13   0   2 3.62481 5.81202   1
 -13   1  -2 68.5267 10.2850   1
 -13   1   2 42.5944  9.1644   1
 -13   2  -2 1.84503 7.57943   1
 -13   2   2 -10.819   6.591   1
 -13   3  -2 304.887  20.355   1
 -13   3   2 277.868  18.140   1
 -13   4  -2 3.13229 7.26568   1
 -13   4   2 6.53239 7.14450   1
 -13   5  -2 10.4948  7.2561   1
 -13   5   2 5.90051 5.16067   1
  14   2   2 4.68711 7.52847   1
 -14  -1  -2 68.3266 10.5084   1
  14   1   2 88.7558  9.9072   1
 -14   0  -2 548.776  29.228   1
 -14   0   2 532.542  30.375   1
   0   0  -3 -0.1020  1.0571   4
   0   0  -3 1.46479 1.39626   1
   0   0  -3 -1.3180  1.0695   2
   0   0  -3 -0.9449  0.8855   3
   0   0   3 -0.3147  1.3267   1
   0   0   3 1.49120 1.72581   4
   0   0   3 -2.6576  1.1584   2
   0   0   3 -0.7073  1.0627   4
   0   0   3 -0.7859  0.9903   3
   0  -1  -3 -0.2283  0.6902   2
   0  -1  -3 -0.1768  1.2171   1
   0  -1  -3 1.52504 1.17455   3
  -1   0  -3 1.79968 1.32878   2
   0   1  -3 -0.1261  0.4017   4
   1   0  -3 1.07792 1.46210   1
   0   1  -3 0.93417 1.11926   3
  -1   0  -3 2.40376 1.52105   1
   0   1  -3 -0.5332  1.7408   4
  -1   0  -3 0.09491 1.04613   4
   0   1  -3 2.80845 1.59674   2
   0  -1  -3 -0.0117  0.9545   4
   1   0  -3 0.86022 1.21683   4
   0   1  -3 -1.1944  1.4562   1
   1   0  -3 1.66822 1.10029   2
  -1   0  -3 -1.1606  1.3052   3
   1   0   3 1.06474 1.64041   3
   0   1   3 -0.3354  1.1514   4
  -1   0   3 1.29211 1.31246   4
  -1   0   3 0.16109 1.78140   1
   0  -1   3 4.38685 1.38381   4
   0  -1   3 7.05029 2.03574   4
  -1   0   3 1.26002 1.15483   3
   0   1   3 0.85969 1.02121   2
   1   0   3 0.61204 1.52432   2
   1   0   3 0.16145 1.09839   4
   1   0   3 -0.6235  1.8492   1
   1   0   3 1.28053 1.33523   4
   0   1   3 5.61336 1.89592   1
   0  -1   3 0.93055 1.15733   3
  -1   0   3 0.43152 1.58103   4
   0   1   3 4.18626 1.48311   3
   0   1   3 4.73893 1.65911   4
   0  -1   3 1.32084 1.86248   1
   1   1  -3 -2.0058  1.5765   3
  -1  -1  -3 0.10699 0.84376   3
   1  -1  -3 -0.8830  0.6212   2
   1   1  -3 -2.2494  1.4424   2
  -1  -1  -3 -0.5218  1.2496   1
  -1   1  -3 -0.9489  1.5039   3
   1  -1  -3 0.59374 1.11073   3
   1  -1  -3 2.18131 1.29933   1
   1   1  -3 -0.4030  1.5375   1
  -1   1  -3 -0.7642  1.5827   2
  -1  -1  -3 -0.4853  0.9931   2
  -1  -1  -3 -0.1941  1.4217   4
   1   1  -3 -1.1376  1.2422   4
  -1   1  -3 0.37098 1.59690   4
  -1   1  -3 1.64770 1.58570   1
   1  -1   3 -0.9870  1.7677   2
   1  -1   3 1.14659 1.13233   3
  -1   1   3 -0.8190  1.4908   4
  -1  -1   3 0.39896 1.66073   3
   1  -1   3 3.81328 2.14395   1
  -1  -1   3 -0.3677  1.6141   4
   1   1   3 -0.1365  1.1372   2
   1  -1   3 0.32304 0.41860   4
  -1   1   3 1.02406 1.71952   1
  -1  -1   3 2.11672 1.36982   4
  -1   1   3 2.53158 1.73234   4
   1   1   3 0.53451 1.81758   1
   1   1   3 0.00332 1.00192   3
  -1  -1   3 -0.2140  1.8615   1
   1   1   3 0.52386 1.21545   4
  -1   1   3 0.16107 1.43841   3
   1  -1   3 -1.9555  1.0385   4
   1   1   3 0.02909 1.23905   4
   2   1  -3 2219.12   97.07   1
  -2  -1  -3 2259.32   96.98   1
   1  -2  -3 2231.27   88.94   3
  -1   2  -3 2095.57   99.97   2
   2   1  -3 2259.67  107.59   4
  -1   2  -3 2169.78   97.04   1
   1  -2  -3 2253.97   96.62   1
   2   1  -3 2276.20   89.75   3
  -1   2  -3 2252.17   89.62   3
  -1   2  -3 2261.34  107.31   4
  -2  -1  -3 2306.92  107.20   4
  -1   2   3 2215.09  107.17   4
   1  -2   3 2292.44   97.35   1
   2   1   3 2099.44   99.64   2
   1  -2   3 2259.43  107.19   4
  -2  -1   3 2278.95  107.38   4
   2   1   3 2240.02  107.22   4
  -1   2   3 2145.52   89.31   3
   2   1   3 2174.71   97.42   1
  -1   2   3 2243.64  107.05   4
  -1   2   3 2225.41   97.12   1
   1  -2   3 2143.11  100.08   2
  -2  -1   3 2205.29   97.42   1
   2   1   3 2121.48   89.49   3
  -2  -1   3 2190.03  107.50   4
   1  -2   3 2204.18  107.39   4
   0   2  -3 8.18035 2.27179   2
   0   2  -3 7.02104 2.15059   4
   0   2  -3 4.28644 1.69331   1
   0   2  -3 8.00386 2.06698   4
   0  -2  -3 7.92325 1.07237   3
  -2   0  -3 5.33480 1.67964   3
   2   0  -3 4.21128 1.70854   1
  -2   0  -3 3.38817 1.34646   4
  -2   0  -3 6.24014 1.82784   1
   2   0  -3 6.17383 2.06266   4
  -2   0  -3 6.21023 1.41231   2
   0   2  -3 5.10594 1.50306   3
   0  -2  -3 8.83436 1.26949   1
   0   2   3 6.30190 1.88422   1
   2   0   3 4.64799 1.81730   3
  -2   0   3 5.40455 1.63955   1
  -2   0   3 5.96279 1.44176   3
   0   2   3 5.44380 1.51983   3
  -2   0   3 6.94155 1.95607   4
   0   2   3 5.52003 0.80759   2
   2   0   3 5.38445 1.48821   4
   2   0   3 6.34535 2.32757   1
   0  -2   3 5.08043 2.08184   1
   2   0   3 4.28771 2.14388   4
  -2   0   3 6.37346 1.68972   4
   2   0   3 5.44400 1.53289   2
   0  -2   3 7.40239 2.10761   4
   0   2   3 6.26620 1.36115   4
   0   2   3 7.45123 1.91340   4
   0  -2   3 4.93391 1.82636   4
  -1  -2  -3 2281.05   89.01   3
   1   2  -3 2178.65   89.61   3
   2  -1  -3 2304.99   89.22   3
  -2   1  -3 2174.49   99.76   2
   2  -1  -3 2234.94  107.09   4
  -2   1  -3 2268.64  107.22   4
   1   2  -3 2271.46  107.49   4
   1   2  -3 2100.82   99.83   2
  -2   1  -3 2266.11   97.02   1
   2  -1  -3 2276.83   98.99   2
  -1  -2  -3 2179.65   96.60   1
   1   2  -3 2265.42   96.97   1
  -1  -2  -3 2274.43  106.84   4
   2  -1  -3 2239.11   96.76   1
  -2   1  -3 2120.26   89.39   3
   1   2   3 2173.59   99.15   2
  -2   1   3 2264.09  107.13   4
  -2   1   3 2237.13  107.24   4
  -1  -2   3 2229.47  107.17   4
  -2   1   3 2210.75   97.15   1
   2  -1   3 2204.02   89.48   3
  -1  -2   3 2182.49   97.25   1
  -1  -2   3 2222.29  107.37   4
   2  -1   3 2156.60   99.93   2
   1   2   3 2271.52  106.99   4
   1   2   3 2175.07   89.29   3
   1   2   3 2203.42   97.16   1
   2  -1   3 2186.27   97.33   1
  -2   1   3 2087.96   89.35   3
   2  -1   3 2173.38  107.11   4
  -2  -2  -3 -0.4692  1.1037   3
  -2  -2  -3 0.21616 1.01464   4
   2  -2  -3 0.40244 0.91711   1
  -2  -2  -3 2.12588 1.38999   1
   2   2  -3 0.11818 1.44241   4
  -2   2  -3 0.84752 1.72237   1
  -2   2  -3 0.14899 1.25599   4
   2   2  -3 -1.4466  1.3801   3
   2   2  -3 1.33250 1.81224   1
  -2   2  -3 -0.2981  1.4999   2
  -2   2  -3 1.26795 1.76523   3
   2   2   3 3.23779 1.56637   3
   2  -2   3 -0.0746  1.8770   4
  -2   2   3 1.35505 1.64857   4
   2   2   3 0.82671 1.40086   2
  -2   2   3 0.45171 1.56207   1
   2  -2   3 -2.5230  2.2834   2
  -2  -2   3 -3.3780  2.3579   1
   2   2   3 0.38439 2.00618   1
  -2  -2   3 1.08405 1.36982   4
  -2   2   3 -1.2148  1.4651   4
  -2   2   3 0.18982 1.40189   3
   2  -2   3 -2.2411  1.5367   4
  -2  -2   3 -1.6471  1.3198   4
   2   2   3 -0.1921  1.5409   4
   2  -2   3 -1.4449  2.1181   1
   3   2  -3 86.2902  5.1357   3
  -3  -2  -3 73.1482  4.7998   1
  -2   3  -3 70.4886  5.5514   4
   3   2  -3 78.4374  5.8371   4
   3   2  -3 78.3968  5.2708   1
  -2   3  -3 87.4899  5.0702   3
  -2   3  -3 70.6258  5.0384   1
  -2   3  -3 69.9332  5.9234   2
  -3  -2  -3 80.2733  4.3610   3
  -3  -2  -3 81.6008  5.4184   4
   3   2   3 82.7332  5.3739   2
   2  -3   3 80.2989  5.6180   4
   2  -3   3 66.0245  5.9047   2
   2  -3   3 80.9205  5.1309   4
   2  -3   3 75.7517  5.2415   1
   3   2   3 74.3505  4.4654   3
   3   2   3 77.8225  5.2488   1
  -2   3   3 80.2794  4.3619   3
  -2   3   3 82.2754  5.1331   4
   3   2   3 79.8466  5.6052   4
  -2   3   3 68.1013  4.6562   1
  -2   3   3 79.4650  5.2410   4
  -3  -2   3 84.2991  5.8967   4
  -3  -2   3 85.8834  6.3197   1
  -1   3  -3 14.9002  2.1070   4
  -1   3  -3 16.8759  2.5817   2
   3   1  -3 15.9300  2.4312   1
   3   1  -3 15.6372  2.9102   4
  -3  -1  -3 13.7928  2.2065   1
  -1   3  -3 12.7991  1.9961   3
  -1   3  -3 12.1772  2.1419   1
  -3  -1  -3 13.0567  2.0369   4
   3   1  -3 13.9502  2.5339   3
  -1   3  -3 10.5441  2.1051   4
   3   1   3 12.8631  1.8797   3
   1  -3   3 14.9777  1.9754   4
  -3  -1   3 12.0444  2.3487   4
   3   1   3 10.7246  2.7806   1
  -3  -1   3 15.4235  2.6933   4
  -1   3   3 14.6133  2.1051   4
   1  -3   3 17.6669  2.5380   1
  -1   3   3 12.5271  1.7107   3
   1  -3   3 15.2807  3.1557   2
   3   1   3 15.0335  2.5389   2
  -3  -1   3 19.2137  2.8119   1
   1  -3   3 15.3260  2.1870   4
   3   1   3 11.3731  1.9969   4
  -1   3   3 13.7324  1.9695   1
  -1   3   3 15.2380  2.0135   4
   3   0  -3 2.73870 2.02825   4
   0   3  -3 3.75524 2.44700   2
  -3   0  -3 2.26982 1.22191   3
   0   3  -3 -0.2797  1.5951   1
   0  -3  -3 -0.1541  0.5329   1
  -3   0  -3 -1.7619  1.7862   1
   0   3  -3 -1.1925  1.9174   4
   0   3  -3 1.60892 1.46001   3
   3   0  -3 0.87787 1.74146   1
  -3   0  -3 3.20174 1.86534   4
   0   3  -3 -1.4478  1.7603   4
  -3   0  -3 0.11878 1.33405   2
   0   3   3 -0.6832  1.2221   3
   0   3   3 -1.3521  1.2853   4
   3   0   3 -0.5121  1.2602   4
   0  -3   3 1.85972 1.89114   4
   0   3   3 2.27338 1.52537   1
   0   3   3 0.10920 0.44082   2
  -3   0   3 -0.4965  2.0098   4
   0  -3   3 2.31597 1.96983   1
   3   0   3 -1.8207  1.4520   2
   3   0   3 0.04855 1.71878   3
   0   3   3 2.57652 1.56035   4
   3   0   3 0.19338 1.61446   1
   0  -3   3 0.58076 1.60975   4
  -3   1  -3 16.2260  2.6916   2
   1   3  -3 17.7729  2.9439   4
  -3   1  -3 14.4822  2.5448   4
  -3   1  -3 12.6435  2.3647   1
   1   3  -3 13.7967  2.9037   2
  -1  -3  -3 15.6409  1.4106   1
   3  -1  -3 16.0380  2.0232   1
   1   3  -3 15.3081  1.9438   1
   3  -1  -3 13.7740  1.9066   3
  -1  -3  -3 15.2910  1.7305   4
   3  -1  -3 13.5948  2.4125   4
  -3   1  -3 13.7723  2.1839   3
   1   3  -3 17.9172  2.7373   3
   3  -1   3 16.1879  2.5702   4
   3  -1   3 10.1551  2.7642   1
  -3   1   3 15.5563  2.5429   1
   3  -1   3 15.2505  2.7739   4
   3  -1   3 15.9594  3.0211   2
   1   3   3 14.8591  2.1205   4
  -3   1   3 13.7674  2.2401   4
   1   3   3 13.6363  1.6047   3
   1   3   3 13.9646  1.6503   2
   1   3   3 10.2952  2.2011   1
  -1  -3   3 15.8918  2.9836   1
  -1  -3   3 15.0295  2.4276   4
  -1  -3   3 17.7351  2.7540   4
  -3   2  -3 79.9986  4.5483   3
   2   3  -3 73.9830  6.0168   2
   2   3  -3 86.4692  5.5651   3
  -2  -3  -3 74.0453  4.1197   1
  -2  -3  -3 72.8788  4.8279   4
   3  -2  -3 79.8421  4.2859   1
  -3   2  -3 81.9591  5.7130   4
   3  -2  -3 78.0394  3.8903   2
  -3   2  -3 72.6827  5.7141   2
   3  -2  -3 76.3679  4.9925   4
  -3   2  -3 74.0674  4.8001   1
   2   3  -3 73.7711  6.0387   4
   2   3  -3 63.5265  4.5931   1
  -2  -3   3 73.8501  5.5338   4
  -3   2   3 75.2816  5.0315   1
   2   3   3 70.1041  4.4673   3
  -3   2   3 83.8683  5.5627   4
   2   3   3 78.1477  4.7193   2
   2   3   3 80.6643  5.2812   4
   3  -2   3 77.6680  5.3909   4
   3  -2   3 66.7691  5.4621   1
  -2  -3   3 85.0003  5.6601   4
   2   3   3 75.7388  5.2971   1
   3  -2   3 71.2982  5.1081   4
   3  -2   3 72.5392  5.9023   2
  -3   2   3 81.9920  4.3812   3
  -2  -3   3 73.5626  5.3800   1
  -3   3  -3 -1.8700  1.8190   1
  -3  -3  -3 -0.1014  1.3738   1
  -3  -3  -3 1.91393 1.15727   3
  -3  -3  -3 1.92474 1.57974   4
   3   3  -3 0.63010 2.08982   1
  -3   3  -3 3.85011 2.04262   3
   3   3  -3 -0.8253  2.4371   4
  -3   3  -3 0.27500 1.73323   2
   3   3  -3 -2.2582  1.7127   3
  -3   3  -3 -0.3935  2.0063   4
  -3   3   3 1.02708 1.27794   4
   3   3   3 0.39555 1.26986   2
  -3  -3   3 1.05139 1.76904   4
   3   3   3 4.38372 2.50643   1
   3   3   3 1.81123 1.86144   4
   3  -3   3 2.03661 1.98072   4
   3  -3   3 -0.4539  2.0055   1
   3  -3   3 1.88474 2.11889   2
   3  -3   3 -1.6243  1.7167   4
  -3   3   3 -2.2604  1.5479   1
  -3  -3   3 -1.0052  1.5056   4
  -3  -3   3 0.96173 2.97678   1
  -3   3   3 -1.2277  1.4466   3
   3   3   3 -1.3643  1.1718   3
   4   3  -3 86.6843  5.9080   3
   4   3  -3 91.0630  7.3970   4
   4   3  -3 81.8046  5.8623   1
  -3   4  -3 80.0045  5.3985   3
  -4  -3  -3 87.9781  5.2554   1
  -3   4  -3 80.1417  5.7201   1
  -3   4  -3 91.7062  6.2723   4
  -4  -3  -3 73.6433  5.7410   4
  -4  -3  -3 79.5952  4.4117   3
   4   3   3 90.6995  6.7028   1
  -4  -3   3 79.8939  6.4071   4
  -4  -3   3 92.6258  7.0328   1
  -3   4   3 89.7138  5.6405   4
   3  -4   3 87.2717  5.4511   1
   3  -4   3 81.2222  6.4743   2
  -3   4   3 78.8569  4.9884   1
  -3   4   3 83.8211  4.6482   3
   3  -4   3 81.4964  5.9072   4
  -4  -3   3 88.0767  6.4950   4
   4   3   3 77.1038  6.1747   4
   3  -4   3 79.8949  5.6878   4
   4   3   3 95.1074  5.1699   3
   4   3   3 82.8970  5.5807   2
  -4  -2  -3 28.4519  3.0732   1
   4   2  -3 27.7492  3.6139   3
  -2   4  -3 28.8743  3.0162   4
  -4  -2  -3 33.0420  3.4926   4
   4   2  -3 28.9849  4.2509   4
  -4  -2  -3 32.3685  2.7341   3
   4   2  -3 28.6318  3.3111   1
  -2   4  -3 25.9694  2.6994   3
  -2   4  -3 34.5832  2.9652   1
  -2   4  -3 29.2433  4.0989   2
   2  -4   3 30.0843  3.0347   4
   2  -4   3 40.6876  3.3311   1
   4   2   3 31.1327  3.9527   1
  -4  -2   3 13.9486  2.9108   4
   4   2   3 31.6280  3.1661   3
  -2   4   3 29.5582  2.7301   4
  -4  -2   3 41.1192  4.7405   1
   4   2   3 33.0882  3.6059   2
  -2   4   3 30.5523  2.6418   1
  -2   4   3 26.6469  2.2898   3
   4   2   3 27.2180  3.4823   4
   2  -4   3 35.3793  4.5304   2
  -2   4   3 31.4465  2.8926   4
   2  -4   3 28.3930  3.2381   4
   4   1  -3 2984.85  126.34   1
  -1   4  -3 2934.62  139.60   4
  -1   4  -3 2909.06  116.44   3
   4   1  -3 2855.68  116.62   3
  -4  -1  -3 2965.27  139.56   4
  -4  -1  -3 2784.00  116.17   3
  -1   4  -3 2822.89  126.08   1
  -1   4  -3 2690.53  130.17   2
  -4  -1  -3 2953.31  126.30   1
  -1   4  -3 2901.20  139.34   4
   4   1  -3 3013.79  140.02   4
   4   1   3 2691.08  116.33   3
  -4  -1   3 2932.55  127.06   1
   4   1   3 2872.17  126.73   1
   4   1   3 2880.96  139.53   4
  -1   4   3 2939.81  115.82   3
   4   1   3 2783.54  129.92   2
  -1   4   3 2883.33  138.93   4
  -4  -1   3 3104.53  140.09   4
   1  -4   3 2829.23  139.05   4
  -1   4   3 2834.54  125.88   1
   1  -4   3 2805.68  139.29   4
  -1   4   3 2945.17  138.82   4
   0   4  -3 100.168   6.847   4
   0   4  -3 100.911   6.961   2
   4   0  -3 102.442   6.289   1
   0   4  -3 108.592   6.164   1
   0   4  -3 98.8521  6.8182   4
   4   0  -3 110.865   7.063   4
  -4   0  -3 97.4756  6.6175   1
   0   4  -3 102.245   6.268   3
  -4   0  -3 105.485   5.610   3
  -4   0  -3 120.165   6.638   2
   4   0  -3 118.896   6.195   3
   4   0   3 102.067   7.057   1
   0  -4   3 112.774   6.683   1
   4   0   3 97.3954  7.1519   2
   0   4   3 96.7218  5.1906   3
  -4   0   3 109.069   7.149   4
   0  -4   3 113.085   7.015   4
   0   4   3 112.585   6.263   4
   0   4   3 104.825   5.179   2
  -4   0   3 100.838   7.272   1
   0   4   3 110.278   5.168   2
   4   0   3 105.484   5.771   3
   0   4   3 108.749   5.886   1
   4   0   3 106.874   6.840   4
   0  -4   3 106.025   6.385   4
  -4   1  -3 3102.16  132.40   2
  -4   1  -3 2918.75  128.70   1
   4  -1  -3 2990.88  141.98   4
   4  -1  -3 2788.10  128.26   1
   1   4  -3 2966.55  118.75   3
   1   4  -3 2933.65  128.42   1
  -4   1  -3 3051.72  142.21   4
   1   4  -3 2712.16  132.56   2
  -4   1  -3 2881.36  118.39   3
   4  -1  -3 2961.88  118.27   3
   1   4  -3 2965.16  142.25   4
  -1  -4   3 2915.58  142.05   4
   1   4   3 2877.36  118.05   3
   1   4   3 2982.53  141.46   4
   4  -1   3 2861.28  128.92   1
  -4   1   3 2947.71  129.06   1
  -1  -4   3 2907.47  141.69   4
   4  -1   3 2837.82  132.56   2
  -1  -4   3 3035.41  128.90   1
   4  -1   3 2968.83  142.05   4
   1   4   3 2772.31  128.37   1
  -4   1   3 2971.84  142.23   4
   1   4   3 3166.09  131.37   2
   4  -2  -3 28.7103  3.0390   4
  -4   2  -3 27.3526  3.5080   1
  -4   2  -3 29.5944  3.3316   2
   2   4  -3 30.7156  3.1996   1
   2   4  -3 29.4414  3.1639   3
  -2  -4  -3 28.3754  1.8061   1
   4  -2  -3 35.2956  2.4286   2
  -2  -4  -3 26.8506  2.4906   4
   4  -2  -3 34.7989  2.6964   1
  -4   2  -3 32.7044  3.1891   3
  -4   2  -3 32.2125  3.7530   4
   2   4  -3 28.3904  3.5033   4
   2   4  -3 26.2201  3.5779   2
   2   4   3 33.8866  3.4589   1
   4  -2   3 31.8054  3.4313   4
   2   4   3 31.1967  3.1270   4
   2   4   3 33.3303  2.8475   2
  -4   2   3 28.3304  3.5798   4
   4  -2   3 36.3535  3.5792   1
   4  -2   3 29.4744  4.3049   2
   2   4   3 29.1428  2.7482   3
  -2  -4   3 33.6441  3.8751   4
  -2  -4   3 29.0652  3.8620   1
   4  -2   3 23.3823  3.2794   4
  -2  -4   3 27.6895  3.0078   4
   3   4  -3 88.1722  6.2106   3
   3   4  -3 71.9645  6.3300   4
  -4   3  -3 81.3966  5.5245   1
  -4   3  -3 95.1283  6.1493   4
   4  -3  -3 87.6110  4.6342   2
   3   4  -3 78.8193  5.8427   1
  -3  -4  -3 81.8380  4.5287   1
  -4   3  -3 87.8003  5.4568   3
   4  -3   3 87.9956  6.5952   2
  -3  -4   3 94.8388  6.7982   1
   3   4   3 84.2212  5.3252   2
   3   4   3 86.5850  4.9142   3
  -3  -4   3 82.1594  6.2159   4
   4  -3   3 76.6864  6.1773   4
   4  -3   3 77.8653  6.0404   4
   3   4   3 85.9987  5.6701   4
  -4   3   3 89.9688  6.1432   4
   3   4   3 81.5403  6.1965   1
   4  -3   3 76.8437  5.8266   1
  -3  -4   3 81.2002  6.2244   4
  -4   4  -3 0.86690 2.19823   3
  -4   4  -3 -0.1605  2.2185   4
   4   4  -3 1.91546 2.50488   1
  -4   4  -3 -3.3685  2.2234   1
  -4  -4  -3 1.77819 1.73749   4
   4   4  -3 -1.8065  2.0831   4
   4  -4  -3 0.16111 1.10757   2
  -4  -4  -3 -0.6630  1.4503   1
  -4   4   3 1.24169 1.88522   4
  -4  -4   3 2.00913 3.15227   1
   4  -4   3 0.75763 2.58506   1
   4  -4   3 -1.4782  3.3289   2
  -4   4   3 0.82538 1.74947   1
   4   4   3 -1.7769  2.1040   3
   4  -4   3 -0.7140  1.8563   4
  -4  -4   3 2.28776 2.85891   4
   4   4   3 -2.2952  2.7283   1
   4   4   3 -2.7180  2.2609   2
   4   4   3 1.68542 2.32960   4
  -4  -4   3 1.86940 1.75647   4
   5   4  -3 947.481  42.973   1
  -4   5  -3 939.166  42.800   1
  -4   5  -3 951.700  47.284   4
  -5  -4  -3 985.583  42.388   1
  -4   5  -3 991.483  39.599   3
  -5  -4  -3 899.587  46.966   4
   4  -5   3 901.803  45.256   2
   5   4   3 982.864  43.872   1
   4  -5   3 907.252  46.827   4
  -5  -4   3 909.389  43.739   1
  -5  -4   3 932.196  47.598   4
   4  -5   3 1001.81   42.22   1
  -5  -4   3 862.791  48.030   4
   5   4   3 1012.38   44.56   2
  -4   5   3 931.190  42.310   1
   5   4   3 944.699  47.651   4
  -4   5   3 994.596  46.921   4
  -3   5  -3 102.922   6.286   3
  -5  -3  -3 104.452   5.824   3
  -3   5  -3 113.849   6.692   1
  -5  -3  -3 112.558   6.586   1
   5   3  -3 107.253   8.982   4
  -3   5  -3 109.705   7.343   4
   5   3  -3 106.340   7.194   1
  -5  -3  -3 101.571   7.266   4
  -3   5   3 104.343   5.384   3
   5   3   3 111.929   6.739   3
  -3   5   3 103.172   5.997   1
   5   3   3 116.021   7.582   2
  -5  -3   3 116.899   8.049   4
  -5  -3   3 103.855   8.138   1
  -3   5   3 106.145   6.517   4
   5   3   3 105.634   7.714   4
   3  -5   3 97.9602  7.6551   2
   5   3   3 102.723   8.051   1
   3  -5   3 102.825   6.824   4
  -2   5  -3 587.724  23.873   3
   5   2  -3 585.190  29.668   4
  -2   5  -3 562.919  28.319   4
   5   2  -3 545.842  25.749   1
  -2   5  -3 551.942  25.464   1
  -5  -2  -3 539.610  25.675   1
  -5  -2  -3 565.526  28.540   4
   5   2  -3 548.560  24.350   3
  -2   5   3 565.666  27.595   4
   2  -5   3 540.266  27.313   2
   2  -5   3 542.926  28.037   4
   5   2   3 535.203  26.226   1
  -5  -2   3 588.610  29.266   4
  -5  -2   3 557.250  26.852   1
   5   2   3 564.971  26.944   2
  -2   5   3 549.049  25.020   1
   5   2   3 550.849  28.731   4
  -2   5   3 552.857  27.676   4
   5   2   3 523.307  23.758   3
   2  -5   3 552.693  25.332   1
  -2   5   3 562.877  22.979   3
  -1   5  -3 44.1988  3.6275   1
  -5  -1  -3 38.0041  3.4588   3
  -5  -1  -3 40.8369  4.1897   4
   5   1  -3 42.2537  4.0978   1
   5   1  -3 47.2005  4.2178   3
  -1   5  -3 39.5603  4.0042   4
   5   1  -3 46.1190  4.6992   4
  -1   5  -3 40.0588  3.3844   3
  -1   5  -3 44.0608  4.3872   4
  -5  -1  -3 50.2634  4.4235   1
  -1   5   3 41.0817  3.3351   4
  -1   5   3 40.4888  2.7301   3
  -1   5   3 42.2838  3.2355   4
  -5  -1   3 46.9442  5.1275   4
   1  -5   3 45.4612  3.9965   4
   5   1   3 46.8209  4.3792   1
  -1   5   3 44.9399  2.2890   2
  -5  -1   3 45.8097  5.1848   1
   5   1   3 43.9269  4.2612   2
  -1   5   3 41.2299  3.3185   1
   5   1   3 36.8648  4.3306   4
   5   1   3 40.2965  3.4760   3
  -5   0  -3 -2.2534  1.2073   4
  -5   0  -3 -2.7693  1.8489   3
   0   5  -3 -0.6654  2.1149   4
   5   0  -3 -2.1576  2.1584   1
   5   0  -3 0.19596 2.05588   3
   5   0  -3 1.28480 1.80505   4
   0   5  -3 2.44343 1.98968   4
   0   5  -3 -0.3509  1.7922   1
   0   5  -3 3.70668 2.31552   3
  -5   0  -3 2.41627 2.61681   1
   5   0   3 -1.1836  2.7208   1
   5   0   3 0.88060 2.37594   4
   0   5   3 0.38911 1.01815   2
   0  -5   3 -0.6668  1.8849   4
   5   0   3 -0.1051  2.8203   2
   0  -5   3 -1.2463  1.9836   1
   0   5   3 -0.2595  1.0996   3
   0  -5   3 1.47162 1.16488   4
   0   5   3 1.59166 1.66991   1
  -5   0   3 4.37761 3.31706   1
  -5   0   3 -0.9120  1.8040   4
   0   5   3 0.78197 1.21288   4
   1   5  -3 39.7521  4.1256   4
  -5   1  -3 40.9426  3.4003   3
   1   5  -3 42.2332  4.0573   3
   5  -1  -3 42.4121  4.3314   4
  -5   1  -3 51.6951  4.7161   1
  -5   1  -3 43.7834  4.8360   4
   5  -1  -3 47.2802  3.8321   1
   5  -1  -3 45.1886  3.5370   2
   1   5  -3 39.5175  3.6039   1
   1   5   3 41.4591  3.0594   3
   1   5   3 48.5034  3.6877   1
  -1  -5   3 47.7816  4.0630   4
   5  -1   3 36.0683  4.2379   2
   5  -1   3 37.8651  4.4113   1
   5  -1   3 42.5845  4.4752   4
   1   5   3 44.4533  3.5802   4
  -1  -5   3 40.8711  3.4966   4
  -5   1   3 49.8501  4.9329   1
  -5   1   3 46.1311  4.4932   4
  -1  -5   3 49.7851  4.1558   1
   2   5  -3 583.344  24.954   3
   5  -2  -3 566.329  26.365   2
  -5   2  -3 631.942  26.971   1
   5  -2  -3 555.834  25.633   1
   2   5  -3 599.130  29.685   4
  -5   2  -3 571.345  24.244   3
   2   5  -3 578.802  26.192   1
  -5   2  -3 576.281  29.438   4
  -2  -5   3 555.847  29.233   4
  -2  -5   3 541.758  28.624   4
  -5   2   3 584.368  29.451   4
  -2  -5   3 596.873  26.590   1
   5  -2   3 546.340  27.992   2
   5  -2   3 561.916  26.487   1
   2   5   3 572.496  26.342   1
  -5   2   3 536.363  26.584   1
   2   5   3 549.115  28.475   4
   2   5   3 581.545  24.025   3
   5  -2   3 531.433  29.102   4
  -5   3  -3 129.208   7.929   1
   5  -3  -3 114.085   6.219   2
  -5   3  -3 103.286   6.539   3
   3   5  -3 119.243   8.737   4
  -5   3  -3 119.004   7.767   4
   3   5  -3 109.262   7.098   1
   3   5  -3 107.884   7.065   3
   5  -3   3 109.286   7.280   4
   3   5   3 108.740   6.390   3
  -3  -5   3 113.801   8.121   4
  -5   3   3 111.348   7.343   1
   3   5   3 108.896   7.443   1
   5  -3   3 110.354   7.712   4
   3   5   3 107.178   7.289   4
  -5   3   3 107.187   7.744   4
  -3  -5   3 121.909   8.294   1
  -3  -5   3 108.118   7.436   4
   5  -3   3 102.018   7.845   2
   5  -3   3 111.560   7.262   1
   4   5  -3 954.649  48.871   4
  -5   4  -3 961.325  47.861   4
   4   5  -3 979.275  43.172   1
  -5   4  -3 949.120  39.749   3
   5  -4  -3 949.072  43.506   2
  -5   4  -3 998.301  43.552   1
  -5   4   3 992.774  47.704   4
  -4  -5   3 920.017  43.659   1
  -4  -5   3 903.754  48.188   4
  -5   4   3 924.150  43.197   1
   4   5   3 957.311  39.963   3
   4   5   3 972.834  43.914   1
   5  -4   3 953.675  47.523   4
   5  -4   3 971.012  42.873   1
   5  -4   3 914.956  45.405   2
   4   5   3 959.683  47.702   4
  -5   5  -3 -1.9412  2.4748   4
   5   5  -3 1.00286 2.94566   1
  -5  -5  -3 -0.4639  1.8025   1
  -5   5  -3 -3.1023  2.2843   3
  -5   5  -3 -1.8863  2.6610   1
   5  -5  -3 -1.0380  1.6174   2
  -5   5   3 0.73521 2.23872   4
  -5  -5   3 -6.8695  3.4816   1
   5   5   3 -1.8326  2.8213   2
   5   5   3 1.35121 2.04588   4
  -5   5   3 4.64998 2.88181   1
   5  -5   3 -3.0075  2.0373   1
   5   5   3 0.33160 3.64525   1
   5  -5   3 7.40985 4.38375   2
  -5   6  -3 166.146  10.669   4
  -5   6  -3 156.779   9.714   1
  -5   6  -3 155.735   8.531   3
  -6  -5  -3 183.358   9.160   1
   6   5  -3 162.823  10.373   1
   6   5   3 168.513  11.627   1
  -6  -5   3 154.219  11.153   1
  -5   6   3 168.004  10.040   4
  -5   6   3 168.221   9.468   1
   6   5   3 171.354  10.876   2
   5  -6   3 151.410  11.047   2
  -4   6  -3 9.73394 2.63869   3
  -6  -4  -3 5.19519 3.10038   1
  -4   6  -3 6.54159 2.68658   1
   6   4  -3 7.95844 2.65638   1
  -4   6  -3 4.62416 2.06361   4
  -4   6   3 8.36886 1.95287   1
   6   4   3 8.31406 4.33647   1
   6   4   3 10.5463  3.6489   2
  -4   6   3 8.61254 2.17350   4
   4  -6   3 0.46475 2.95704   2
  -6  -4   3 10.4565  4.4675   1
  -6  -3  -3 22.7673  3.4838   1
  -3   6  -3 19.9600  2.9546   1
   6   3  -3 21.0160  3.8117   1
  -3   6  -3 24.8777  3.4584   4
  -3   6  -3 19.7035  2.9992   3
  -3   6   3 19.7658  2.3303   1
  -3   6   3 19.6366  2.1047   3
  -3   6   3 17.9300  2.4923   4
  -6  -3   3 15.6960  4.5647   1
   3  -6   3 16.9949  4.7139   2
   6   3   3 22.9082  4.5208   1
   6   3   3 25.2707  3.5012   2
  -2   6  -3 35.6546  3.5969   1
  -6  -2  -3 39.6079  4.3723   4
  -2   6  -3 37.8894  4.1155   4
  -6  -2  -3 42.9630  4.4473   1
   6   2  -3 48.9213  4.3046   1
   6   2  -3 39.2873  5.7276   4
  -2   6  -3 35.7847  3.3335   3
  -2   6   3 41.8931  2.4549   2
  -2   6   3 36.6793  3.1976   4
  -2   6   3 41.8093  3.1018   1
   6   2   3 41.0741  4.9234   2
  -2   6   3 38.3998  2.7321   3
  -6  -2   3 45.6628  5.2157   1
   6   2   3 40.7683  5.2916   1
  -2   6   3 40.8327  3.2778   4
   6   2   3 31.5276  4.5782   4
  -6  -2   3 40.1349  5.4307   4
  -6  -1  -3 344.270  16.403   1
  -1   6  -3 302.593  15.181   1
  -6  -1  -3 338.011  18.228   4
  -1   6  -3 336.419  17.131   4
   6   1  -3 331.234  18.580   4
  -6  -1  -3 328.774  14.445   3
  -1   6  -3 325.869  14.533   3
   6   1  -3 347.351  16.149   1
  -1   6  -3 323.055  17.520   4
  -6  -1   3 308.991  16.660   1
   1  -6   3 287.058  14.672   1
  -1   6   3 320.856  16.214   4
   6   1   3 310.197  17.679   4
   6   1   3 336.302  16.731   1
  -1   6   3 300.148  14.874   2
  -1   6   3 318.456  14.813   1
  -6  -1   3 312.429  18.133   4
   6   1   3 328.619  17.109   2
  -1   6   3 326.498  16.392   4
   0   6  -3 83.2695  5.6185   1
  -6   0  -3 84.4496  6.7898   4
  -6   0  -3 93.7575  5.8044   3
   0   6  -3 91.6402  6.3945   4
   6   0  -3 88.5194  5.4148   3
   6   0  -3 82.8478  7.2713   4
  -6   0  -3 100.467   7.297   1
   6   0  -3 90.8194  6.2717   1
   0   6  -3 82.5111  5.8596   3
   0   6  -3 81.5846  5.8923   4
  -6   0   3 88.6284  7.3071   1
  -6   0   3 87.4894  7.0046   4
   6   0   3 87.0997  6.6233   2
   0   6   3 80.7808  5.1857   4
   0  -6   3 83.8989  5.2012   1
   6   0   3 83.7010  6.5739   4
   6   0   3 93.6311  7.1767   1
   0   6   3 83.6476  4.4139   3
   0   6   3 84.8310  5.1795   1
   1   6  -3 315.961  15.451   1
   6  -1  -3 307.352  15.466   1
  -6   1  -3 334.952  18.158   4
  -6   1  -3 315.065  14.681   3
  -6   1  -3 341.857  16.431   1
   1   6  -3 330.377  15.051   3
   1   6  -3 309.247  17.470   4
   6  -1  -3 342.915  15.770   2
   6  -1   3 304.424  16.302   1
  -6   1   3 317.133  18.174   4
   1   6   3 315.166  16.500   4
   1   6   3 326.791  15.361   1
  -6   1   3 312.691  16.858   1
   1   6   3 334.645  14.047   3
   6  -1   3 308.952  16.934   2
   6  -1   3 300.558  17.738   4
   2   6  -3 35.4374  4.3741   3
   2   6  -3 43.8256  4.9506   4
  -6   2  -3 41.4619  5.0330   1
  -6   2  -3 40.1958  5.0808   4
  -6   2  -3 37.7169  3.8336   3
   2   6  -3 40.0206  3.8886   1
   6  -2  -3 38.5926  3.4699   2
   6  -2  -3 39.1966  3.4735   1
  -6   2   3 41.0056  4.5094   4
  -2  -6   3 37.3239  4.2871   4
   2   6   3 41.0531  4.0416   1
   2   6   3 40.4824  3.3525   3
   6  -2   3 41.9201  4.7083   1
  -6   2   3 37.9731  4.8958   1
   6  -2   3 39.2997  4.6219   4
   2   6   3 37.8260  3.6351   4
   6  -2   3 33.8574  5.2502   2
  -2  -6   3 29.1381  3.4967   1
   3   6  -3 21.0358  3.7107   4
  -6   3  -3 15.2742  3.2933   4
   6  -3  -3 26.8469  2.8866   2
   3   6  -3 19.8446  3.2424   1
  -6   3  -3 31.8379  4.0165   1
   3   6  -3 25.0369  4.2569   3
  -6   3  -3 19.3109  3.1465   3
  -3  -6   3 23.6728  3.9261   1
   6  -3   3 21.7880  3.6922   1
   6  -3   3 21.0835  3.2639   4
  -6   3   3 20.5563  3.3527   4
  -6   3   3 19.8077  3.8619   1
   3   6   3 16.3437  2.8478   3
   6  -3   3 17.6484  4.7012   2
  -3  -6   3 17.9536  3.1015   4
   3   6   3 18.3517  3.0721   4
   3   6   3 24.3756  3.8015   1
   6  -4  -3 10.3401  2.2726   2
  -6   4  -3 7.49014 3.51741   4
  -6   4  -3 4.22992 3.47819   1
   4   6  -3 7.23924 2.50905   1
  -6   4  -3 7.42198 2.75812   3
   6  -4   3 8.57611 4.43352   2
  -6   4   3 10.0432  3.2419   1
  -6   4   3 9.45653 3.20315   4
   6  -4   3 4.05030 2.56829   1
   4   6   3 11.6847  3.8220   1
   4   6   3 5.92258 2.83537   4
  -4  -6   3 6.89478 3.27084   1
   5   6  -3 176.666   9.780   1
  -6   5  -3 164.250   9.114   3
  -6   5  -3 177.218  11.244   4
  -6   5  -3 182.181  10.733   1
  -6   5   3 166.026  10.717   4
   6  -5   3 167.925  12.140   2
  -6   5   3 158.424   9.780   1
   5   6   3 156.752  11.188   1
  -5  -6   3 152.579  10.479   1
  -6   6  -3 1.80029 3.21555   1
   6   6  -3 6.70544 3.89062   1
  -6   6  -3 1.59679 2.67227   3
  -6   6  -3 -0.4705  3.0387   4
  -6   6   3 0.97142 2.60401   4
   6  -6   3 -2.7563  4.4327   2
  -6  -6   3 3.22427 4.01449   1
   6   6   3 0.68681 2.64473   2
   6   6   3 3.34528 3.32036   1
  -6   6   3 -5.0178  2.4480   1
  -6   7  -3 206.202  13.073   4
   7   6  -3 211.781  12.838   1
  -6   7  -3 219.706  12.124   1
  -6   7  -3 210.719  10.993   3
  -6   7   3 198.199  12.348   4
  -7  -6   3 198.078  13.938   1
   7   6   3 192.804  13.294   2
   7   6   3 221.093  14.432   1
  -5   7  -3 131.792   8.288   1
  -7  -5  -3 130.776   7.851   1
   7   5  -3 120.754   9.355   1
  -5   7  -3 127.687   7.644   3
  -5   7  -3 124.274   8.946   4
  -7  -5   3 130.375  10.019   1
   5  -7   3 98.8956  9.6053   2
  -5   7   3 123.058   8.035   4
   7   5   3 120.191   8.900   2
   7   5   3 131.751  10.234   1
  -4   7  -3 1297.42   59.46   1
  -4   7  -3 1307.40   65.81   4
  -4   7  -3 1377.29   55.08   3
  -7  -4  -3 1387.69   59.61   1
   7   4  -3 1343.87   60.32   1
  -4   7   3 1370.57   65.10   4
   4  -7   3 1269.82   62.81   2
   7   4   3 1343.42   62.22   2
  -7  -4   3 1244.71   60.97   1
   7   4   3 1347.75   61.21   1
  -3   7  -3 129.146   8.726   4
  -3   7  -3 136.521   7.654   3
   7   3  -3 113.630   8.989   1
  -7  -3  -3 139.130   8.778   1
  -3   7  -3 137.756   7.890   1
  -3   7   3 134.703   7.482   4
   7   3   3 127.712   8.895   2
  -7  -3   3 121.705   9.273   1
  -3   7   3 137.936   7.664   4
  -3   7   3 127.430   6.274   3
   7   3   3 130.961  10.136   1
  -2   7  -3 921.275  43.497   1
  -2   7  -3 1004.55   40.61   3
   7   2  -3 985.673  44.409   1
  -7  -2  -3 981.570  44.408   1
  -2   7  -3 935.631  48.270   4
  -2   7   3 983.320  39.395   3
  -2   7   3 979.037  47.208   4
  -7  -2   3 941.109  45.133   1
  -2   7   3 1002.74   47.37   4
   7   2   3 957.520  44.864   1
   7   2   3 963.492  46.115   2
  -7  -1  -3 13.4822  4.0580   1
  -1   7  -3 14.5297  2.5427   4
  -1   7  -3 14.8388  2.6575   1
   7   1  -3 12.5570  2.9622   1
  -1   7  -3 16.1925  3.0738   3
  -1   7  -3 16.1644  3.3280   4
  -1   7   3 14.1162  1.7349   4
   7   1   3 11.7127  3.2560   2
  -1   7   3 17.3509  2.1495   4
  -7  -1   3 17.6537  4.8926   1
  -7  -1   3 12.9745  4.3980   4
  -1   7   3 13.3812  1.5979   3
   7   1   3 17.1148  4.3050   1
   7   0  -3 0.49795 2.87820   1
   0   7  -3 -0.0460  2.0398   1
   0   7  -3 -2.2220  2.4721   3
  -7   0  -3 -3.8858  2.2443   3
   0   7  -3 -0.1534  2.5634   4
  -7   0  -3 -0.1788  3.6190   1
   0   7  -3 -2.1029  2.1643   4
  -7   0   3 6.73059 3.98157   1
  -7   0   3 -3.0807  3.3650   4
   0   7   3 1.93713 1.39523   3
   0   7   3 0.32608 1.18294   4
   7   0   3 -0.2631  3.4393   1
   7   0   3 -2.6028  3.4935   2
   1   7  -3 21.7721  3.5693   3
   7  -1  -3 16.0023  2.9803   2
  -7   1  -3 13.9843  3.6617   1
  -7   1  -3 17.9356  3.2014   3
  -7   1  -3 14.1998  3.6252   4
   7  -1  -3 16.2923  3.1853   1
   1   7  -3 20.7371  3.0462   1
   1   7  -3 13.1427  3.4478   4
   1   7   3 17.4190  2.9346   1
   7  -1   3 12.7581  4.3712   2
   7  -1   3 17.3190  4.0723   1
   1   7   3 15.0497  2.1060   3
   1   7   3 14.5765  2.2305   4
  -7   1   3 22.2126  4.6827   1
  -7   1   3 12.7121  3.4117   4
   7  -2  -3 969.806  44.992   2
   2   7  -3 945.620  49.039   4
  -7   2  -3 989.942  49.975   4
   7  -2  -3 963.229  43.453   1
   2   7  -3 1009.50   41.27   3
  -7   2  -3 988.683  45.326   1
   2   7  -3 949.918  43.811   1
  -7   2  -3 987.217  40.752   3
   7  -2   3 917.946  46.511   2
   2   7   3 1017.21   48.12   4
  -7   2   3 998.930  45.172   1
  -7   2   3 964.682  49.568   4
   2   7   3 901.032  44.036   1
   7  -2   3 1006.10   44.57   1
  -7   3  -3 128.307   7.417   3
  -7   3  -3 141.417   9.250   1
  -7   3  -3 141.360   9.827   4
   3   7  -3 133.372   8.340   1
   7  -3  -3 136.638   8.287   2
   3   7  -3 152.412   9.242   3
   7  -3   3 137.459   8.680   1
  -7   3   3 124.091   9.231   4
   3   7   3 128.092   7.523   3
   7  -3   3 118.334   9.894   2
  -7   3   3 128.896   9.426   1
   3   7   3 105.831   8.382   1
   3   7   3 137.136   8.671   4
  -7   4  -3 1311.15   53.74   3
  -7   4  -3 1338.72   65.02   4
  -7   4  -3 1369.37   59.28   1
   4   7  -3 1298.80   58.18   1
   7  -4   3 1266.09   61.35   2
  -7   4   3 1229.54   58.62   1
   7  -4   3 1269.45   57.72   1
  -7   4   3 1255.50   64.69   4
   4   7   3 1296.67   64.21   4
   5   7  -3 133.691   8.770   1
  -7   5  -3 113.062   7.553   3
  -7   5  -3 116.373   9.517   4
  -7   5  -3 135.834   9.631   1
  -7   5   3 127.586   8.684   1
  -5  -7   3 111.102   8.745   1
  -7   5   3 109.142   9.098   4
   5   7   3 94.9217  8.9647   1
  -7   6  -3 213.298  11.258   3
  -7   6  -3 225.386  13.379   4
  -7   6  -3 216.093  12.902   1
   6   7  -3 212.108  12.752   1
   6   7   3 189.041  13.859   1
  -7   6   3 212.592  12.335   1
  -7   6   3 200.745  13.220   4
  -7   7  -3 -1.3196  2.4330   4
   7   7  -3 -4.2298  4.2212   1
  -7   7  -3 -0.2744  3.6803   1
  -7   7  -3 0.05502 2.14516   3
  -7  -7   3 -1.9904  4.1001   1
   7   7   3 6.21092 5.41427   1
  -7   8  -3 140.363   9.704   1
   8   7  -3 127.323  10.194   1
  -7   8  -3 132.523   8.539   3
  -8  -7   3 107.110   9.300   1
   8   7   3 139.543  11.842   1
  -6   8  -3 27.7925  4.2083   4
  -6   8  -3 46.0831  5.1928   1
   8   6  -3 43.7057  6.2435   1
  -6   8  -3 38.6063  4.4243   3
  -8  -6   3 32.9570  6.4072   1
   8   6   3 30.9208  6.9879   1
  -8  -5  -3 98.7389  7.8813   1
  -5   8  -3 95.0806  6.8873   3
   8   5  -3 108.220   8.185   1
  -5   8  -3 90.3706  7.9222   4
  -5   8  -3 105.510   7.562   1
   8   5   3 98.2891  9.6554   1
  -8  -5   3 122.295   9.762   1
   8   4  -3 45.7110  5.2858   1
  -8  -4  -3 51.5689  5.4095   1
  -4   8  -3 53.9538  4.6215   3
  -4   8  -3 46.9001  5.1226   4
  -4   8  -3 42.6351  4.8750   1
   8   4   3 44.7371  5.5639   2
  -8  -4   3 46.3879  7.0861   1
  -4   8   3 51.3047  4.2716   4
   8   4   3 47.6287  6.0812   1
   8   3  -3 8.02879 4.27777   1
  -3   8  -3 7.96407 2.75420   1
  -3   8  -3 9.11355 2.80001   3
  -3   8  -3 7.58334 2.97719   4
  -8  -3  -3 2.89953 3.89522   1
   8   3   3 7.55754 4.92604   1
   8   3   3 9.96860 3.40647   2
  -3   8   3 8.97006 1.62511   4
  -3   8   3 9.35727 1.92532   4
  -8  -3   3 1.77843 5.13676   1
  -3   8   3 6.74142 1.47505   3
  -8  -2  -3 1.19686 2.87508   1
  -2   8  -3 0.21108 2.30988   1
  -2   8  -3 -1.2209  2.4341   3
   8   2  -3 -2.6918  2.4946   1
  -2   8  -3 1.58562 1.84127   4
  -8  -2   3 -6.5186  4.4384   1
   8   2   3 1.06902 2.87207   2
   8   2   3 5.17131 4.40641   1
  -2   8   3 0.53434 1.29097   4
  -2   8   3 1.80336 1.24101   3
  -2   8   3 0.42577 1.25041   4
  -1   8  -3 356.973  16.287   3
  -1   8  -3 340.079  19.323   4
  -1   8  -3 351.368  18.994   4
   8   1  -3 352.492  18.077   1
  -8  -1  -3 366.027  18.998   1
  -1   8  -3 357.074  17.013   1
   8   1   3 332.591  19.318   2
  -1   8   3 352.278  14.741   3
  -1   8   3 364.461  17.805   4
  -8  -1   3 346.875  19.388   1
   8   1   3 333.388  18.669   1
  -1   8   3 343.537  17.622   4
   8   0  -3 45.2091  4.8463   2
   0   8  -3 48.0375  4.2810   1
   0   8  -3 37.2762  4.3560   3
   8   0  -3 43.4741  5.1187   1
  -8   0  -3 49.3897  5.7064   1
   0   8  -3 46.7208  4.7818   4
  -8   0   3 43.1499  6.3783   1
   8   0   3 39.7331  5.6624   1
   0   8   3 49.6329  3.2504   3
   8   0   3 42.9699  5.3706   2
   0   8   3 43.9908  3.7531   4
   1   8  -3 353.011  16.702   1
   8  -1  -3 337.096  17.473   2
  -8   1  -3 318.424  18.743   1
   1   8  -3 343.021  15.933   3
   8  -1  -3 326.091  16.814   1
  -8   1   3 328.805  18.132   1
   1   8   3 350.017  17.694   4
   8  -1   3 325.560  19.057   2
  -8   1   3 307.056  19.572   4
   1   8   3 366.742  14.969   3
   8  -1   3 348.749  17.950   1
   8  -2  -3 2.21006 2.66052   1
   8  -2  -3 0.13251 2.69365   2
   2   8  -3 0.02419 2.61866   1
  -8   2  -3 0.64696 4.42608   1
  -8   2  -3 1.03886 2.91336   3
   2   8  -3 2.93387 3.36174   3
   8  -2   3 4.85331 3.79626   1
  -8   2   3 2.83813 2.87865   4
  -8   2   3 1.11851 4.19098   1
   8  -2   3 7.70411 4.58700   2
   2   8   3 1.49231 2.04383   4
   2   8   3 3.77217 2.46197   3
   3   8  -3 6.64751 3.12221   1
   8  -3  -3 0.98179 2.70647   2
  -8   3  -3 10.1811  3.2900   3
  -8   3  -3 13.2567  5.0399   1
   3   8  -3 5.20090 3.77872   3
  -8   3   3 4.16203 4.03689   4
   8  -3   3 12.3218  4.0886   2
   3   8   3 4.31797 2.77219   4
  -8   3   3 9.60778 4.37863   1
   8  -3   3 4.01860 4.21361   1
   3   8   3 4.97469 3.16428   1
  -8   4  -3 44.5533  5.7419   1
  -8   4  -3 44.7982  4.6962   3
   4   8  -3 43.6139  5.0307   1
   4   8   3 27.1306  4.9920   1
  -8   4   3 46.0831  5.9422   1
  -8   4   3 43.1650  5.3888   4
   8  -4   3 34.3493  4.0596   1
  -8   5  -3 102.914   7.247   3
  -8   5  -3 98.0557  8.6619   1
   5   8  -3 104.554   7.832   1
  -8   5   3 98.7874  8.1922   1
  -8   5   3 74.3367  7.5245   4
   5   8   3 78.0931  8.2738   1
  -8   6  -3 41.7211  5.3365   1
  -8   6  -3 52.1649  5.1523   3
   6   8  -3 38.1573  4.8911   1
  -8   6   3 27.5100  5.2323   1
   6   8   3 27.4024  6.3289   1
  -8   7  -3 135.950   8.909   3
  -8   7  -3 129.300  10.080   1
   7   8  -3 140.230  10.528   1
   7   8   3 110.087  11.022   1
  -8   8  -3 -1.1514  4.0826   1
   8   8  -3 2.94846 5.11008   1
  -8   8  -3 1.50129 3.50752   3
   8   8   3 3.39798 6.22724   1
   9   8  -3 44.6067  7.5126   1
  -8   9  -3 46.7096  6.1976   1
   9   8   3 42.9603  7.3272   1
  -7   9  -3 61.7257  6.5172   1
   9   7  -3 53.2566  7.7171   1
  -7   9  -3 64.3162  5.8705   3
   9   7   3 59.5642  9.0228   1
  -6   9  -3 21.3711  4.1585   1
  -6   9  -3 9.47985 3.40712   3
   9   6  -3 9.18443 5.61402   1
  -9  -6   3 1.32731 5.64976   1
   9   6   3 22.1375  6.9563   1
  -5   9  -3 85.2302  6.3965   3
  -9  -5  -3 99.0426  7.6770   1
  -5   9  -3 79.2908  6.5683   1
   9   5  -3 81.8791  8.3108   1
   9   5   3 81.3313  9.3451   1
  -9  -5   3 108.625   9.896   1
  -9  -4  -3 269.553  15.370   1
  -4   9  -3 277.624  14.406   1
  -4   9  -3 285.528  16.129   4
   9   4  -3 264.164  16.137   1
  -4   9  -3 269.424  13.572   3
  -9  -4   3 287.543  17.331   1
   9   4   3 290.279  16.565   1
   9   3  -3 31.6933  5.7491   1
  -3   9  -3 25.5720  3.8159   3
  -3   9  -3 24.2094  3.6468   1
  -3   9  -3 36.8613  3.9885   4
  -9  -3  -3 21.8570  5.1986   1
  -9  -3   3 27.7307  6.5517   1
   9   3   3 26.5994  6.4015   1
  -3   9   3 27.4354  2.1825   3
  -2   9  -3 335.012  16.032   3
   9   2  -3 351.070  18.529   1
  -9  -2  -3 353.821  18.785   1
  -2   9  -3 333.790  18.725   4
  -2   9  -3 333.682  16.746   1
   9   2   3 335.886  19.197   1
  -9  -2   3 313.842  19.554   1
  -2   9   3 354.744  17.041   4
  -2   9   3 342.120  14.309   3
   9   1  -3 0.41349 3.49697   2
  -9  -1  -3 -1.6261  4.6040   1
  -1   9  -3 0.22146 2.49397   1
  -1   9  -3 2.17405 2.77321   3
   9   1  -3 1.94508 4.11002   1
  -1   9   3 2.05244 1.15710   3
  -9  -1   3 3.35234 5.18283   1
  -1   9   3 0.40530 1.42303   4
   9   1   3 0.34741 4.55073   1
  -1   9   3 0.11836 1.19346   4
  -9   0  -3 1.69922 5.15393   1
   0   9  -3 -4.0941  3.0450   1
   9   0  -3 -0.4962  3.7075   1
   0   9  -3 0.47542 2.83032   3
   9   0  -3 -0.5854  3.3293   2
   9   0   3 -0.4683  3.0453   1
  -9   0   3 -2.3603  4.7502   1
   0   9   3 -1.6415  1.6172   4
   0   9   3 -0.4137  1.4087   3
   1   9  -3 3.75544 3.12345   3
   1   9  -3 0.19482 2.69322   1
   9  -1  -3 0.09426 2.93020   1
   9  -1  -3 9.36375 3.57697   2
  -9   1  -3 1.05009 5.00796   1
   1   9   3 2.64129 1.71001   3
   9  -1   3 -2.9807  4.0920   1
  -9   1   3 4.26866 3.63299   1
   1   9   3 2.19448 1.86993   4
   9  -2  -3 321.028  17.697   2
   2   9  -3 343.096  16.625   3
   2   9  -3 337.501  16.891   1
  -9   2   3 329.036  19.057   1
   9  -2   3 348.433  17.980   1
   2   9   3 333.716  18.109   4
  -9   3  -3 27.0445  6.4785   1
   3   9  -3 34.6605  4.5830   1
   3   9  -3 30.8056  4.2790   3
   3   9   3 33.7566  4.4129   4
   9  -3   3 32.1696  5.5032   1
  -9   3   3 21.5734  5.6430   1
   4   9  -3 265.324  14.744   3
   4   9  -3 268.681  14.426   1
  -9   4  -3 290.079  16.892   1
  -9   4  -3 251.265  13.206   3
  -9   4   3 261.776  15.768   1
  -9   4   3 221.335  16.277   4
   5   9  -3 92.5269  7.5064   1
  -9   5  -3 87.2677  8.7377   1
  -9   5  -3 74.7644  6.5341   3
  -9   5   3 77.1479  7.9676   1
  -9   5   3 70.2115  8.1693   4
   5   9   3 63.4870  7.7638   1
   6   9  -3 16.3983  5.0151   1
  -9   6  -3 22.0594  5.7056   1
  -9   6  -3 6.67987 3.00597   3
  -9   6   3 11.5790  4.7968   1
   6   9   3 15.5225  6.0380   1
  -9   7  -3 50.4353  6.9870   1
  -9   7  -3 57.6590  5.9618   3
   7   9  -3 43.3786  6.6968   1
   7   9   3 50.6225  8.1815   1
  -9   8  -3 40.7143  4.7042   3
  -9   8  -3 44.8673  6.5069   1
   8   9  -3 33.3332  6.7158   1
   8   9   3 53.4915  8.5757   1
   9   9  -3 -0.2469  5.9929   1
  -9   9  -3 1.88761 4.77062   1
   9   9   3 -3.8274  4.7869   1
  10   9  -3 93.6688 10.3768   1
  10   9   3 79.4899 11.1570   1
  10   8  -3 30.8559  6.0715   1
  10   8   3 28.9454  8.7251   1
  10   7  -3 449.520  24.990   1
  10   7   3 464.169  26.543   1
  10   6  -3 96.4713  9.7460   1
  10   6   3 103.417  11.202   1
 -10  -6   3 92.8696  9.5962   1
  -5  10  -3 225.785  11.991   3
  10   5  -3 220.109  15.237   1
  10   5   3 225.657  15.092   1
 -10  -5   3 228.446  15.994   1
  -4  10  -3 42.7666  4.6216   3
 -10  -4  -3 46.7892  6.3330   1
  10   4  -3 38.4791  7.0816   1
 -10  -4   3 28.6435  7.4407   1
  10   4   3 36.0746  6.2983   1
 -10  -3  -3 34.8397  6.3825   1
  10   3  -3 41.8867  6.7048   1
  -3  10  -3 39.5257  4.4971   3
  10   3   3 41.4306  7.5993   1
 -10  -3   3 35.3443  7.5286   1
  -3  10   3 41.2501  2.8875   3
 -10  -2  -3 49.6157  7.2775   1
  10   2  -3 70.9770  7.4683   1
  -2  10  -3 59.1800  5.5353   1
  -2  10  -3 53.3396  5.1268   3
  -2  10   3 56.6141  3.3376   3
 -10  -2   3 57.3672  8.2404   1
  10   2   3 51.8533  7.6711   1
  -1  10  -3 659.290  28.473   3
  10   1  -3 643.963  31.452   1
 -10  -1  -3 684.417  32.832   1
  -1  10  -3 658.532  30.283   1
 -10  -1   3 597.417  32.769   1
  10   1   3 635.839  32.228   1
  -1  10   3 648.290  26.630   3
 -10   0  -3 225.090  15.634   1
  10   0  -3 240.334  14.701   1
   0  10  -3 273.534  13.502   3
   0  10  -3 283.555  13.814   1
 -10   0   3 239.172  16.715   1
   0  10   3 267.385  11.659   3
  10   0   3 274.016  15.922   1
  10  -1  -3 629.186  29.153   1
   1  10  -3 633.458  28.707   1
   1  10  -3 614.644  27.275   3
 -10   1  -3 565.694  31.346   1
  10  -1   3 613.117  30.131   1
 -10   1   3 577.668  31.097   1
   2  10  -3 57.3564  5.5337   1
 -10   2  -3 34.3423  7.5261   1
   2  10  -3 55.5210  5.8196   3
  10  -2   3 59.3084  6.6852   1
 -10   2   3 59.6647  8.0641   1
   3  10  -3 45.1090  5.6421   3
   3  10  -3 32.9842  4.9084   1
 -10   3  -3 32.0797  7.1059   1
  10  -3   3 30.9427  5.0527   1
 -10   3   3 34.6941  6.8002   1
   4  10  -3 24.5580  5.4779   3
   4  10  -3 37.7875  5.2821   1
 -10   4  -3 36.4873  6.1853   1
 -10   4   3 28.1616  6.6628   1
   5  10  -3 245.179  14.599   3
 -10   5  -3 232.335  16.016   1
   5  10  -3 228.217  13.995   1
 -10   5   3 221.343  15.092   1
 -10   6  -3 90.7986  9.6032   1
   6  10  -3 100.585   8.912   1
 -10   6   3 112.798  10.441   1
   6  10   3 107.136  10.341   1
 -10   7  -3 448.525  23.154   1
   7  10  -3 415.433  23.250   1
   7  10   3 440.161  24.931   1
 -10   8  -3 29.7885  6.5640   1
   8  10  -3 41.7401  7.4811   1
   8  10   3 40.4869  8.5702   1
   9  10  -3 91.0372  8.9645   1
   9  10   3 92.9790 11.3986   1
  11   8  -3 1.85033 6.97825   1
  11   8   3 -5.5724  7.6637   1
  11   7  -3 32.8293  6.1981   1
  11   7   3 30.1616  6.9486   1
  11   6  -3 24.2328  7.3922   1
 -11  -6   3 29.0071  7.4866   1
  11   6   3 42.4399  8.9605   1
  11   5  -3 4.65767 4.64299   1
 -11  -5   3 0.48714 6.67820   1
  11   5   3 1.39793 6.85001   1
  11   4  -3 36.5135  6.0448   1
 -11  -4  -3 31.7611  6.3721   1
 -11  -4   3 34.7905  6.5775   1
  11   4   3 25.8241  7.4559   1
 -11  -3  -3 0.11450 5.37926   1
  -3  11  -3 4.45590 3.23069   3
  11   3  -3 -0.2710  5.4999   1
  11   3   3 5.81431 6.44449   1
 -11  -3   3 2.79233 6.81187   1
  11   2  -3 6.24392 5.50629   1
  -2  11  -3 6.00091 3.28881   3
 -11  -2  -3 14.2435  6.4539   1
  -2  11   3 6.43057 1.38713   3
 -11  -2   3 6.99790 5.13322   1
  11   2   3 5.00837 6.11147   1
  11   1  -3 11.2853  5.1572   1
  -1  11  -3 1.25923 3.12128   3
 -11  -1  -3 -1.9162  4.3160   1
 -11  -1   3 -5.8208  6.1391   1
  -1  11   3 1.45897 1.32741   3
  11   1   3 -0.0052  5.6954   1
 -11   0  -3 1.44930 6.34414   1
   0  11  -3 -0.2641  3.2605   3
  11   0  -3 0.29514 4.07885   1
 -11   0   3 2.18055 4.55599   1
  11   0   3 4.50515 5.49390   1
   1  11  -3 0.56919 3.56097   3
 -11   1  -3 -6.7346  4.0373   1
  11  -1   3 -3.7795  4.9082   1
 -11   1   3 -2.2588  6.0411   1
   2  11  -3 12.3729  3.9430   1
 -11   2  -3 -4.5960  6.5766   1
   2  11  -3 7.95265 4.10814   3
 -11   2   3 6.61332 6.10623   1
  11  -2   3 -3.8238  5.5343   1
 -11   3  -3 7.57364 4.88252   1
   3  11  -3 3.30956 4.04050   1
   3  11  -3 1.80199 4.27204   3
 -11   3   3 6.25446 6.03733   1
 -11   4  -3 35.5368  8.0572   1
   4  11  -3 28.1165  5.3896   1
   4  11  -3 43.5507  6.2991   3
 -11   4   3 38.4195  7.5377   1
   5  11  -3 -0.3605  4.5634   1
   5  11  -3 3.07466 3.54535   3
 -11   5  -3 0.95654 4.60583   1
 -11   5   3 -4.3156  5.8014   1
 -11   6  -3 34.3401  6.0718   1
   6  11  -3 24.0425  6.0043   1
 -11   6   3 29.1358  7.0356   1
 -11   7  -3 33.7701  7.4243   1
   7  11  -3 28.4586  6.6027   1
 -11   8  -3 1.88248 5.95256   1
   8  11  -3 2.68977 4.35804   1
  12   6  -3 38.7279  8.1244   1
  12   6   3 29.4134  7.0497   1
 -12  -6   3 25.7621  7.8494   1
  12   5  -3 58.9605  8.9217   1
 -12  -5   3 72.0917  9.7132   1
  12   5   3 48.1298  9.4109   1
  12   4  -3 0.24504 6.44910   1
 -12  -4  -3 -7.0294  5.6412   1
  12   4   3 -4.4618  7.1094   1
 -12  -4   3 -2.5448  7.0307   1
 -12  -3  -3 22.5825  5.4361   1
  12   3  -3 28.3814  7.0085   1
 -12  -3   3 37.5280  8.6355   1
  12   3   3 27.6330  6.3631   1
  12   2  -3 47.5526  7.4046   1
 -12  -2  -3 34.2081  7.7570   1
 -12  -2   3 39.8750  8.8799   1
  12   2   3 32.2705  7.7139   1
 -12  -1  -3 134.113  12.260   1
  12   1  -3 132.870  10.654   1
  -1  12   3 151.275   6.621   3
  12   1   3 109.030  11.198   1
 -12  -1   3 143.788  12.959   1
 -12   0  -3 102.399   9.804   1
  12   0   3 73.8911  8.9874   1
 -12   0   3 85.6191 10.7464   1
 -12   1  -3 145.973  13.425   1
 -12   1   3 145.952  12.076   1
 -12   2  -3 48.7201  9.3146   1
 -12   2   3 32.9666  8.1131   1
 -12   3  -3 26.3175  8.3544   1
 -12   3   3 19.3779  7.2513   1
 -12   4  -3 -5.4045  4.9235   1
   4  12  -3 0.48555 4.58766   1
 -12   4   3 1.99194 6.31965   1
   5  12  -3 53.6786  7.2487   1
 -12   5  -3 63.3597  9.5715   1
 -12   5   3 69.3618  9.2830   1
 -12   6  -3 39.7401  8.4320   1
   6  12  -3 40.1518  6.9334   1
 -12   6   3 42.3056  8.5948   1
  13   4  -3 204.148  15.490   1
 -13  -4   3 216.308  16.316   1
  13   4   3 174.304  15.678   1
  13   3  -3 70.1482  7.9104   1
 -13  -3  -3 85.4298  9.6293   1
 -13  -3   3 80.3263 10.5683   1
  13   3   3 66.6179  9.9325   1
 -13  -2  -3 223.550  16.318   1
  13   2  -3 212.017  14.987   1
  13   2   3 197.965  15.622   1
 -13  -2   3 228.284  17.412   1
 -13  -1  -3 21.9115  8.1918   1
 -13  -1   3 19.9269  8.0721   1
  13   1   3 16.2688  5.4813   1
 -13   0  -3 4.03412 7.44886   1
 -13   0   3 7.23879 5.62483   1
  13   0   3 1.63324 6.25596   1
 -13   1  -3 19.4795  8.1392   1
 -13   1   3 10.1509  7.9524   1
 -13   2  -3 240.894  18.694   1
 -13   2   3 227.956  17.621   1
 -13   3  -3 91.0800 11.7385   1
 -13   3   3 81.9313 10.9671   1
 -13   4  -3 228.667  18.149   1
 -13   4   3 237.506  17.991   1
   0   0  -4 9764.04  421.16   1
   0   0  -4 9366.81  461.49   4
   0   0  -4 9999.99  430.36   2
   0   0   4 9760.31  419.50   1
   0   0   4 9790.11  462.44   4
   0   0   4 9231.74  383.78   3
   0   0   4 9218.13  461.46   4
   0  -1  -4 -3.5135  1.6133   1
   1   0  -4 3.10376 2.20836   4
   0   1  -4 0.64668 1.88345   1
   0  -1  -4 0.25850 1.46415   3
  -1   0  -4 -0.8819  1.6810   3
  -1   0  -4 0.66761 1.56789   2
   0   1  -4 -0.3115  1.4027   4
   0   1  -4 0.56094 1.98475   3
  -1   0  -4 0.32895 1.87524   1
   0  -1  -4 0.53095 0.94544   2
   0   1  -4 -1.1189  1.7144   2
  -1   0  -4 -0.6120  1.2859   4
   1   0  -4 -1.8129  1.7843   1
   1   0  -4 -2.0089  1.2227   2
   0  -1   4 3.57409 2.32932   4
   0   1   4 -0.1236  1.8893   3
   1   0   4 0.94945 1.98097   4
  -1   0   4 -1.3535  1.3118   4
   0   1   4 0.50382 1.53839   4
   0   1   4 -2.3968  1.2140   4
   0   1   4 2.71205 2.43775   1
   0  -1   4 0.95092 2.47385   1
   0  -1   4 0.49269 1.37618   3
   1   0   4 -2.9706  1.6723   2
  -1   0   4 0.67571 2.24677   4
   1   0   4 -0.2824  1.7974   1
  -1   0   4 1.92854 2.44778   1
   0  -1   4 -1.0965  1.3908   4
   1   0   4 0.99927 2.31690   4
  -1   0   4 -0.5085  1.9698   3
   1   0   4 -0.8749  1.3994   3
   1   1  -4 407.116  17.676   3
   1   1  -4 414.972  21.291   4
  -1   1  -4 395.646  19.430   2
   1   1  -4 412.062  18.792   1
   1  -1  -4 407.785  18.457   2
  -1  -1  -4 434.700  18.900   2
   1   1  -4 410.370  19.388   2
  -1  -1  -4 377.866  17.145   3
  -1  -1  -4 409.481  18.581   1
  -1   1  -4 416.797  18.728   1
  -1   1  -4 419.397  17.617   3
   1  -1  -4 412.385  18.502   1
  -1  -1  -4 397.634  20.622   4
   1   1   4 387.175  18.966   2
   1  -1   4 384.932  20.746   4
   1   1   4 396.588  20.805   4
  -1   1   4 422.358  21.047   4
  -1  -1   4 388.396  17.536   3
  -1  -1   4 381.758  21.012   4
  -1   1   4 371.322  17.469   3
  -1   1   4 408.309  19.205   1
   1  -1   4 417.776  19.445   1
   1   1   4 389.509  21.106   4
   1  -1   4 367.649  17.456   3
   1  -1   4 403.353  19.496   2
  -1  -1   4 422.979  19.212   1
  -1   1   4 410.350  20.864   4
   1  -1   4 393.219  21.166   4
   1   1   4 383.322  17.526   3
  -1  -1   4 388.227  20.821   4
   1   1   4 413.795  19.372   1
  -2  -1  -4 13.2510  2.1262   3
   2   1  -4 14.7348  3.1383   4
  -2  -1  -4 15.8335  2.4686   1
  -2  -1  -4 16.5106  2.2668   2
   2   1  -4 13.2129  2.1104   2
  -2  -1  -4 14.6348  2.2826   4
   2   1  -4 17.7070  2.7879   3
  -1   2  -4 14.2932  2.5151   1
  -1   2  -4 14.4279  2.2421   3
  -1   2  -4 12.5119  2.3393   2
   1  -2  -4 14.3150  2.1317   1
   2   1  -4 17.7814  2.2954   1
  -1   2  -4 13.7908  2.3644   4
   2   1   4 13.9054  2.6678   1
   1  -2   4 12.3344  2.9207   4
  -2  -1   4 17.5699  3.0250   4
   2   1   4 13.6758  2.5402   4
   2   1   4 15.2811  2.1789   3
  -1   2   4 13.2973  2.3800   4
  -1   2   4 15.5278  2.6721   4
   1  -2   4 16.5396  3.2132   1
   1  -2   4 14.9448  2.3693   4
  -2  -1   4 16.6267  3.1307   4
  -1   2   4 19.6247  2.5305   3
  -2  -1   4 16.9878  3.1426   1
   1  -2   4 19.6312  2.7570   2
  -1   2   4 19.1951  2.9179   1
   2   1   4 20.7415  2.5951   2
   2   1   4 12.8738  2.6386   4
   0   2  -4 323.808  14.872   1
  -2   0  -4 317.153  15.340   2
  -2   0  -4 311.995  14.910   1
   0   2  -4 299.243  15.539   2
   0   2  -4 293.182  16.609   4
   0  -2  -4 319.214  14.496   1
   2   0  -4 301.222  14.974   2
   0  -2  -4 300.550  13.272   3
   2   0  -4 324.423  14.873   1
   2   0  -4 306.476  16.839   4
  -2   0  -4 320.193  16.554   4
   0   2  -4 316.214  16.878   4
   0   2  -4 304.876  14.020   3
  -2   0  -4 309.647  13.843   3
   0   2   4 321.109  16.383   4
   0   2   4 301.736  15.245   1
  -2   0   4 312.955  16.723   4
   2   0   4 305.219  16.966   4
   2   0   4 293.275  14.071   3
   0  -2   4 319.356  16.551   4
   2   0   4 292.417  16.541   4
  -2   0   4 331.041  15.541   1
  -2   0   4 292.768  14.050   3
  -2   0   4 312.637  16.781   4
   2   0   4 309.381  15.563   2
   0   2   4 325.264  13.937   3
   0  -2   4 314.197  15.469   1
   0   2   4 306.802  16.707   4
   2   0   4 314.845  15.654   1
   0  -2   4 319.058  16.945   4
   1   2  -4 15.4913  2.7038   1
  -1  -2  -4 15.9804  2.1214   1
   2  -1  -4 19.9022  2.3555   1
  -2   1  -4 16.5117  2.8301   2
   1   2  -4 7.33115 2.57508   3
   2  -1  -4 16.3879  2.3906   4
   1   2  -4 17.1036  2.7693   4
   2  -1  -4 15.2935  2.0795   3
  -2   1  -4 11.5404  2.5370   1
   1   2  -4 20.0572  2.6714   2
  -2   1  -4 13.1290  2.4514   3
  -1  -2  -4 14.4658  2.3366   4
  -1  -2  -4 18.4889  1.6847   3
   2  -1  -4 14.5752  1.5946   2
  -1  -2   4 13.3013  2.3645   4
   1   2   4 17.0370  2.6907   4
  -1  -2   4 8.56977 2.22942   4
   1   2   4 15.4489  3.0300   1
   2  -1   4 14.0368  2.3165   4
   2  -1   4 15.0840  3.1588   1
  -2   1   4 12.2729  2.7846   1
   1   2   4 14.2683  2.4620   3
  -1  -2   4 18.8288  3.1467   1
  -2   1   4 14.3178  2.4851   4
  -2   1   4 13.5130  2.6900   4
   1   2   4 13.1140  1.7245   2
   2  -1   4 12.4524  2.9470   2
   1   2   4 12.6375  2.4267   4
  -2   1   4 14.4377  2.5242   3
  -2  -2  -4 2236.48   90.57   3
  -2  -2  -4 2338.71   98.38   1
  -2   2  -4 2244.04   91.13   3
   2   2  -4 2270.72   91.34   3
  -2   2  -4 2254.09  109.18   4
  -2  -2  -4 2233.20  108.79   4
   2   2  -4 2318.05   98.74   1
   2   2  -4 2132.22  101.58   2
   2   2  -4 2271.18  109.57   4
  -2   2  -4 2280.04  101.76   2
  -2   2  -4 2341.29   98.80   1
   2  -2   4 2337.69   99.19   1
   2  -2   4 2197.77  109.28   4
  -2   2   4 2227.26  108.93   4
   2   2   4 2172.98   91.00   3
  -2   2   4 2188.48   90.96   3
   2  -2   4 2141.64  101.85   2
   2   2   4 2157.85   99.08   1
  -2   2   4 2241.78  109.12   4
  -2   2   4 2206.17   98.85   1
  -2  -2   4 2322.69  109.24   4
   2   2   4 2258.10  108.96   4
   2  -2   4 2232.18  109.00   4
   2   2   4 2269.67  101.09   2
  -3  -2  -4 2.01266 2.07346   1
   3   2  -4 -1.7402  1.6508   2
  -3  -2  -4 0.29151 1.59072   3
   3   2  -4 3.48842 2.87454   4
   2  -3  -4 1.33610 0.81223   1
  -2   3  -4 5.15373 2.41997   1
  -3  -2  -4 2.28332 2.10410   4
  -2   3  -4 0.12422 2.28263   3
   3   2  -4 1.33522 2.38037   1
   3   2  -4 4.91138 2.03711   3
  -2   3  -4 1.92257 1.78729   4
  -2   3   4 3.66500 1.54354   4
  -2   3   4 4.37132 1.70328   4
   2  -3   4 6.48877 2.29836   4
  -3  -2   4 2.39062 1.90172   4
  -2   3   4 3.44793 1.96924   3
   3   2   4 0.76929 2.83598   1
   2  -3   4 2.12817 2.29891   2
   2  -3   4 1.35043 2.36358   4
   3   2   4 2.93354 1.71257   4
  -3  -2   4 0.31910 3.23143   1
   2  -3   4 2.10046 2.71893   1
   3   2   4 3.02423 2.17160   2
   3   2   4 2.39164 2.22853   3
  -3  -2   4 0.31114 1.76453   4
  -2   3   4 3.59912 2.23067   1
  -1   3  -4 1489.51   75.03   4
  -3  -1  -4 1569.61   67.72   1
   3   1  -4 1496.58   69.69   2
  -1   3  -4 1474.82   70.18   2
  -1   3  -4 1568.35   62.85   3
  -1   3  -4 1601.37   67.87   1
   3   1  -4 1520.37   62.82   3
   3   1  -4 1551.75   75.46   4
   3   1  -4 1607.80   67.84   1
   1  -3  -4 1492.48   66.81   1
  -3  -1  -4 1515.99   74.90   4
   3   1   4 1490.10   69.76   2
  -1   3   4 1497.98   74.83   4
   1  -3   4 1551.38   74.90   4
  -3  -1   4 1566.85   75.24   4
   3   1   4 1570.10   75.06   4
   1  -3   4 1492.59   75.09   4
  -1   3   4 1588.91   74.70   4
  -1   3   4 1534.60   67.88   1
   1  -3   4 1512.29   68.09   1
   3   1   4 1587.39   68.49   1
  -1   3   4 1495.10   62.38   3
  -3  -1   4 1526.52   75.41   4
   3   1   4 1449.10   62.66   3
   3   0  -4 1.46259 1.99620   1
  -3   0  -4 0.45096 1.52855   4
   0   3  -4 -1.9257  1.3978   4
   3   0  -4 -2.6541  1.8675   3
   3   0  -4 0.93332 1.56265   2
   0   3  -4 -0.4496  2.2646   4
  -3   0  -4 -0.2796  2.1123   1
   3   0  -4 -0.3653  1.6184   4
  -3   0  -4 0.94674 1.86603   3
  -3   0  -4 -2.7397  1.9919   2
   0   3  -4 2.46019 2.65615   2
   0   3  -4 -6.4900  2.2016   3
   0   3  -4 -0.6506  2.0975   1
   0  -3  -4 -0.2223  1.0988   1
   0   3   4 -1.2343  2.0029   1
   0  -3   4 -0.8333  2.0486   4
  -3   0   4 1.95521 1.93924   1
   3   0   4 1.07701 2.82908   1
   3   0   4 -3.9911  2.4034   4
   0  -3   4 5.08485 2.60851   1
   0   3   4 -3.2367  1.6684   3
   0   3   4 -0.6987  1.2194   4
   3   0   4 -1.4701  2.0510   4
  -3   0   4 0.60236 1.85018   4
   3   0   4 1.64598 1.60595   3
  -3   0   4 3.04857 2.39420   4
   0  -3   4 0.31995 1.62253   4
   0   3   4 1.57383 2.07250   4
   3   0   4 -1.4143  2.3520   2
   1   3  -4 1602.60   68.16   1
   3  -1  -4 1591.01   62.64   3
   1   3  -4 1576.39   63.22   3
  -1  -3  -4 1525.30   74.67   4
   1   3  -4 1558.56   75.79   4
  -3   1  -4 1578.38   75.44   4
   3  -1  -4 1543.96   67.79   1
   1   3  -4 1437.92   70.40   2
   3  -1  -4 1482.27   69.14   2
  -3   1  -4 1569.75   70.25   2
  -1  -3  -4 1523.37   67.33   1
   3  -1  -4 1561.60   75.34   4
  -3   1  -4 1499.86   62.84   3
  -3   1  -4 1563.12   68.19   1
   1   3   4 1553.70   75.05   4
   1   3   4 1466.87   69.08   2
   3  -1   4 1566.22   68.72   1
  -1  -3   4 1498.27   75.27   4
  -3   1   4 1583.05   75.57   4
   3  -1   4 1522.25   75.29   4
   1   3   4 1554.23   75.33   4
   1   3   4 1509.75   62.72   3
   1   3   4 1522.60   68.32   1
  -3   1   4 1564.73   68.47   1
  -3   1   4 1575.23   75.42   4
  -1  -3   4 1468.51   75.50   4
   3  -1   4 1535.97   70.53   2
   2   3  -4 0.28167 2.65357   3
   2   3  -4 3.09712 2.37727   1
  -3   2  -4 2.23636 2.26911   3
   2   3  -4 3.06204 2.13099   4
  -2  -3  -4 2.01404 1.52899   1
  -2  -3  -4 2.46003 1.74767   4
  -3   2  -4 4.07152 2.73642   2
   2   3  -4 2.19910 2.77031   2
  -3   2  -4 3.05241 1.73808   1
  -3   2  -4 4.67954 1.93005   4
   3  -2  -4 0.72369 1.39949   1
  -2  -3   4 0.77404 2.42190   4
   3  -2   4 2.45711 1.68474   4
   2   3   4 2.92989 1.62230   2
   3  -2   4 0.63935 3.03629   2
   2   3   4 1.66464 1.48627   3
   3  -2   4 3.63883 3.01790   1
  -2  -3   4 0.45516 3.11019   1
  -3   2   4 3.36398 2.29141   4
  -3   2   4 2.94819 2.48038   1
  -2  -3   4 0.19350 2.48649   4
  -3   2   4 5.33024 2.22932   3
   2   3   4 0.73776 1.51918   4
   3  -2   4 0.90063 1.82970   4
   2   3   4 3.45178 2.56659   1
  -3   2   4 2.68428 1.79413   4
  -3  -3  -4 351.844  15.760   1
  -3   3  -4 350.757  16.350   1
  -3  -3  -4 340.643  17.717   4
  -3   3  -4 340.508  18.331   4
   3   3  -4 341.043  16.266   1
   3   3  -4 344.403  19.005   4
   3   3  -4 338.307  15.713   3
   3  -3  -4 280.810  14.901   1
  -3   3  -4 362.918  15.315   3
   3   3  -4 326.450  17.518   2
  -3   3   4 337.732  15.063   3
   3  -3   4 338.612  16.489   1
   3   3   4 340.647  17.938   4
   3   3   4 317.288  15.194   3
  -3  -3   4 313.583  17.326   1
   3  -3   4 347.400  18.420   4
   3   3   4 341.728  17.076   1
  -3   3   4 336.235  17.915   4
  -3  -3   4 340.898  18.218   4
  -3   3   4 357.848  16.447   1
  -3   3   4 323.773  18.009   4
  -3  -3   4 348.408  18.762   4
   3  -3   4 358.223  18.046   2
   3  -3   4 326.705  17.848   4
  -3   4  -4 11.9105  3.1506   4
   4   3  -4 19.0815  3.1205   3
   4   3  -4 10.8399  3.1355   4
  -3   4  -4 13.2640  3.0388   1
  -3   4  -4 12.6510  2.3974   3
   4   3  -4 8.37996 3.06443   1
  -4  -3  -4 12.3674  2.7528   4
  -4  -3  -4 12.2985  2.5262   1
  -3   4   4 6.48477 1.93425   4
   3  -4   4 14.1029  3.1787   1
  -3   4   4 13.1936  2.6514   1
  -4  -3   4 11.6819  3.2983   1
   3  -4   4 11.9597  3.0401   4
   4   3   4 16.1915  3.2295   4
  -4  -3   4 10.7616  2.7045   4
   3  -4   4 11.7373  3.2982   2
  -4  -3   4 13.1395  3.0274   4
   4   3   4 17.2769  3.9824   1
  -3   4   4 10.4929  2.6603   4
  -3   4   4 11.7130  2.3934   3
   4   3   4 12.0926  2.4072   2
   4   2  -4 881.354  36.431   3
   4   2  -4 910.381  43.958   4
  -4  -2  -4 862.914  42.918   4
  -4  -2  -4 803.867  35.478   3
  -2   4  -4 863.680  38.857   1
   4   2  -4 857.495  38.828   1
  -2   4  -4 839.395  42.971   4
  -2   4  -4 889.149  36.175   3
  -4  -2  -4 874.323  38.629   1
   2  -4   4 865.198  38.934   1
   2  -4   4 817.325  42.601   4
  -2   4   4 883.164  42.554   4
   4   2   4 858.480  39.622   1
  -2   4   4 889.641  42.714   4
  -2   4   4 839.049  38.636   1
   4   2   4 888.363  43.171   4
   4   2   4 824.605  40.107   2
  -2   4   4 833.474  35.543   3
   2  -4   4 830.296  40.903   2
  -4  -2   4 871.728  43.272   4
   2  -4   4 838.104  42.999   4
  -4  -2   4 839.723  39.848   1
  -4  -2   4 867.512  43.673   4
  -1   4  -4 65.9746  5.1093   3
  -4  -1  -4 68.4019  5.7763   4
  -1   4  -4 64.6395  5.2356   4
  -1   4  -4 60.7146  5.3732   4
  -4  -1  -4 61.4099  4.9641   1
   4   1  -4 65.4406  4.7528   1
  -1   4  -4 71.6875  5.3266   1
   4   1  -4 59.9461  5.6831   4
   4   1  -4 70.0209  5.1163   3
  -1   4   4 57.4478  4.8012   1
  -4  -1   4 69.6450  6.2680   1
  -1   4   4 68.0920  5.0126   4
   4   1   4 68.8504  5.8249   4
   4   1   4 59.6128  5.4987   2
   1  -4   4 74.4420  5.5774   1
  -4  -1   4 65.6439  5.8750   4
  -1   4   4 62.6436  5.2093   4
  -1   4   4 64.6240  4.3383   3
   4   1   4 62.7455  5.8370   1
   1  -4   4 61.8390  5.1608   4
  -4  -1   4 65.8759  5.7480   4
   4   1   4 62.8224  4.8729   3
   1  -4   4 75.9087  5.1007   4
   4   0  -4 0.33002 2.11203   3
  -4   0  -4 1.85261 2.51251   1
   4   0  -4 1.42155 1.86759   4
  -4   0  -4 -0.2172  2.0302   3
  -4   0  -4 3.59745 1.92193   4
   0   4  -4 4.67348 2.65976   3
   0   4  -4 4.07477 2.11994   4
   4   0  -4 1.31888 2.28729   1
   0   4  -4 0.50844 2.42186   4
   0   4  -4 3.29752 2.41936   1
  -4   0  -4 1.84691 2.45688   2
   4   0   4 3.41022 3.10005   1
  -4   0   4 1.56016 3.31995   1
   0   4   4 1.07965 2.11615   1
  -4   0   4 1.74450 2.59357   4
   4   0   4 6.51508 3.04718   2
   0  -4   4 -2.0468  1.9516   4
   0   4   4 1.99312 2.04567   4
   0   4   4 2.29264 1.86303   4
   0   4   4 4.05750 1.85651   3
   0  -4   4 1.60306 2.43813   4
  -4   0   4 3.31180 2.98646   4
   4   0   4 -0.1619  1.6406   4
   1   4  -4 68.8301  4.8286   1
   4  -1  -4 66.2859  4.7998   1
  -4   1  -4 71.6969  5.4890   4
   1   4  -4 68.1990  6.1335   4
   1   4  -4 70.6019  5.0531   3
  -4   1  -4 58.8683  5.1976   1
   4  -1  -4 70.1500  5.7854   4
  -4   1  -4 56.0233  4.6164   3
   4  -1  -4 69.2835  4.5452   3
   4  -1   4 74.1103  5.9346   4
  -1  -4   4 65.5176  5.5838   4
   4  -1   4 59.3049  5.4474   2
   1   4   4 63.0226  4.5240   3
  -4   1   4 63.5718  5.7628   4
  -1  -4   4 63.9017  5.3777   4
  -1  -4   4 62.8451  5.7118   1
   4  -1   4 60.5706  5.4997   4
  -4   1   4 69.0288  5.6203   4
   1   4   4 69.3952  5.1723   4
   4  -1   4 67.5478  5.8719   1
   1   4   4 69.6882  5.3143   1
  -2  -4  -4 863.003  38.066   1
  -4   2  -4 845.887  39.320   1
   2   4  -4 866.365  43.973   4
   2   4  -4 895.245  39.308   1
   2   4  -4 914.969  36.893   3
   4  -2  -4 919.763  39.085   2
  -4   2  -4 870.707  43.630   4
  -4   2  -4 847.056  36.322   3
  -4   2   4 866.895  39.487   1
   4  -2   4 867.870  43.819   4
   2   4   4 807.897  36.070   3
   4  -2   4 832.481  41.099   2
  -4   2   4 863.943  43.580   4
  -2  -4   4 863.718  43.797   4
   4  -2   4 814.123  43.380   4
   2   4   4 853.292  43.098   4
   2   4   4 837.849  39.653   2
  -2  -4   4 926.816  43.564   4
   4  -2   4 891.339  39.812   1
  -2  -4   4 881.896  39.886   1
   2   4   4 863.579  39.532   1
  -4   3  -4 13.6724  3.4299   4
   3   4  -4 11.5021  3.1589   1
  -4   3  -4 13.6705  2.4247   3
  -3  -4  -4 16.1501  2.0887   1
   3   4  -4 14.4539  3.6979   3
   3   4  -4 17.9845  4.0360   4
  -3  -4  -4 10.6854  2.2508   4
  -4   3  -4 17.7517  2.7399   1
  -3  -4   4 15.2999  3.1151   4
   3   4   4 16.0505  2.6440   2
  -4   3   4 15.2078  3.2330   4
   3   4   4 9.36155 3.48460   1
   4  -3   4 17.2450  3.5484   1
  -4   3   4 13.3703  2.9810   1
  -3  -4   4 11.8252  2.6340   4
   4  -3   4 13.2058  2.7808   4
  -3  -4   4 18.9657  4.3578   1
   4  -3   4 12.6206  3.0783   4
   3   4   4 15.1907  3.0789   4
   4  -3   4 12.7032  3.3000   2
   3   4   4 10.0797  2.6369   3
  -4   4  -4 628.187  27.714   3
  -4   4  -4 651.893  33.441   4
   4   4  -4 632.719  30.095   1
   4   4  -4 671.621  28.732   3
  -4   4  -4 654.115  30.200   1
   4   4   4 663.574  30.986   1
  -4  -4   4 659.332  30.873   1
   4   4   4 663.119  30.950   2
  -4   4   4 637.526  29.841   1
   4   4   4 623.895  33.158   4
   4  -4   4 638.281  29.955   1
   4  -4   4 655.553  32.287   2
  -4   4   4 643.701  32.954   4
  -4   5  -4 140.246   9.119   1
  -5  -4  -4 148.952   8.078   1
  -4   5  -4 137.246   9.905   4
  -4   5  -4 131.898   8.426   3
   5   4  -4 155.548  10.162   3
   5   4  -4 154.253   9.414   1
   5   4   4 157.025   9.708   2
   5   4   4 138.799  10.545   1
  -4   5   4 142.905   9.130   4
   4  -5   4 139.760  10.209   2
  -4   5   4 149.157   8.418   1
  -4   5   4 147.464   9.306   4
   4  -5   4 152.252   8.488   1
  -5  -4   4 148.348  10.585   1
   5   3  -4 2528.69  110.58   1
  -3   5  -4 2515.31  101.90   3
  -5  -3  -4 2538.49  110.02   1
   5   3  -4 2477.62  102.65   3
  -3   5  -4 2516.10  122.01   4
  -3   5  -4 2534.39  110.34   1
   3  -5   4 2537.60  110.12   1
  -3   5   4 2528.63  121.49   4
  -3   5   4 2571.41  121.34   4
   5   3   4 2515.96  111.35   1
   3  -5   4 2361.85  121.65   4
  -5  -3   4 2536.50  111.56   1
  -3   5   4 2504.01  110.04   1
  -3   5   4 2496.13  101.29   3
   3  -5   4 2486.98  114.64   2
   5   3   4 2407.24  113.65   2
  -2   5  -4 14.7328  2.9365   1
  -2   5  -4 6.95360 2.36111   4
  -2   5  -4 11.1098  2.5532   3
  -5  -2  -4 15.7130  3.1447   1
   5   2  -4 9.01837 3.17076   1
  -2   5   4 16.4060  2.2843   3
  -5  -2   4 11.6080  3.1572   4
  -2   5   4 14.0693  2.4495   1
  -2   5   4 12.0162  2.3376   4
  -2   5   4 10.8896  2.4555   4
   5   2   4 8.89841 3.91209   1
   2  -5   4 10.9774  2.3881   4
  -5  -2   4 15.5393  4.3697   1
   5   2   4 12.0600  2.7512   2
  -5  -1  -4 7.34023 2.35255   4
  -5  -1  -4 2.89993 2.82407   1
   5   1  -4 12.4812  3.1049   1
  -1   5  -4 7.26723 3.05703   4
  -1   5  -4 8.53567 2.38704   4
  -1   5  -4 11.9276  2.7493   1
   5   1  -4 6.47274 2.65943   4
  -1   5  -4 8.41700 2.30424   3
  -5  -1   4 6.37320 3.89170   1
  -1   5   4 7.67109 1.97577   3
  -1   5   4 8.26411 2.09415   4
  -5  -1   4 5.57038 3.44541   4
   5   1   4 6.63456 2.55054   2
  -1   5   4 8.57258 2.18763   1
   5   1   4 5.82936 3.64882   1
  -1   5   4 8.56660 2.30990   4
   1  -5   4 6.71554 2.97308   1
   1  -5   4 2.03021 1.86094   4
   0   5  -4 -2.6547  2.6244   4
  -5   0  -4 2.74959 1.65991   3
   0   5  -4 -0.5305  1.7116   4
  -5   0  -4 -2.0971  2.7535   1
   0   5  -4 1.17665 2.36087   1
   0   5  -4 -1.9330  2.5040   3
   5   0  -4 -2.8210  2.3565   1
   5   0  -4 0.65911 1.98193   4
  -5   0  -4 -0.3161  2.7171   4
  -5   0   4 0.03542 3.12415   4
   0  -5   4 -0.3383  2.3782   4
   0   5   4 -0.8102  1.3706   4
   0   5   4 1.13842 1.72340   3
   5   0   4 1.06621 2.23429   2
   0   5   4 1.26210 2.44635   1
   0  -5   4 0.86234 2.82247   1
   0   5   4 -0.1326  1.7306   4
   5   0   4 1.80169 3.31241   1
   5   0   4 -2.9563  2.5740   4
  -5   0   4 -0.2799  3.4451   1
   1   5  -4 11.3071  3.4170   4
  -5   1  -4 7.95456 2.00674   3
   5  -1  -4 10.4944  2.5746   1
  -5   1  -4 5.41251 3.13422   4
   1   5  -4 8.88312 2.88015   1
   1   5  -4 10.6718  2.4711   3
  -5   1  -4 8.33090 3.28111   1
  -1  -5   4 7.38111 3.27562   1
   1   5   4 7.66478 2.56344   1
  -1  -5   4 4.94759 2.82546   4
   1   5   4 8.73372 2.26098   4
   1   5   4 6.02387 2.05245   3
   5  -1   4 8.64260 3.14014   4
   5  -1   4 8.46454 2.88552   2
  -5   1   4 10.5920  3.4778   4
   5  -1   4 10.9358  3.7479   1
  -5   1   4 1.33647 3.28124   1
   5  -1   4 6.70918 3.20560   4
   5  -2  -4 13.2656  1.6903   2
   2   5  -4 10.1334  3.0338   1
  -5   2  -4 13.6064  2.3641   3
  -5   2  -4 13.1085  3.6600   4
  -5   2  -4 14.8726  3.5833   1
   5  -2  -4 13.8150  2.4676   1
   2   5  -4 17.2553  3.0421   3
  -5   2   4 9.25539 3.35849   4
  -2  -5   4 12.8095  2.8204   4
   2   5   4 11.5933  2.5384   3
   2   5   4 10.6355  2.6197   4
   2   5   4 14.7276  3.2140   1
  -2  -5   4 8.83146 3.59028   1
   5  -2   4 8.02955 3.14823   4
   5  -2   4 5.43549 3.53033   1
  -5   2   4 10.6728  3.5780   1
   5  -2   4 9.82629 3.16277   2
   2   5   4 9.19420 1.94756   2
   3   5  -4 2575.15  103.53   3
   3   5  -4 2551.81  111.36   1
  -5   3  -4 2466.13  102.64   3
  -5   3  -4 2524.83  123.40   4
  -5   3  -4 2633.53  111.80   1
   3   5   4 2550.10  114.04   2
  -3  -5   4 2611.63  112.08   1
   3   5   4 2487.06  111.85   1
  -5   3   4 2499.55  123.18   4
   5  -3   4 2477.81  111.54   1
  -5   3   4 2530.82  111.86   1
   3   5   4 2549.09  122.76   4
   5  -3   4 2376.53  115.36   2
   4   5  -4 166.708   9.525   3
  -5   4  -4 145.455   8.929   1
  -5   4  -4 146.800   8.090   3
  -5   4  -4 148.628   9.806   4
   4   5  -4 145.770   9.234   1
   4   5   4 145.335  10.348   1
   4   5   4 146.949   9.171   2
   5  -4   4 143.167  11.163   2
   4   5   4 125.018  10.090   4
  -5   4   4 149.201   9.386   1
  -5   4   4 146.658   9.855   4
  -4  -5   4 162.897  10.471   1
   5   5  -4 5.36427 3.30867   3
  -5   5  -4 -1.4384  2.7718   3
  -5   5  -4 -2.5746  3.0869   4
  -5   5  -4 -2.2881  3.1728   1
   5   5  -4 3.03302 3.48437   1
   5   5   4 1.58423 3.00710   1
  -5   5   4 -0.1439  2.5735   4
   5  -5   4 3.29504 3.38346   2
  -5  -5   4 5.00756 3.33757   1
   5  -5   4 2.81433 2.68468   1
   5   5   4 0.99568 3.14833   2
  -5   6  -4 152.591   8.903   3
   6   5  -4 142.734  10.013   1
  -5   6  -4 146.172   9.733   1
  -5   6  -4 153.483  10.056   4
  -5   6   4 154.177   9.444   4
  -6  -5   4 142.175  11.269   1
   6   5   4 130.900  10.324   2
   6   5   4 152.257  11.791   1
  -4   6  -4 71.5847  6.5857   4
   6   4  -4 65.9620  6.3995   1
  -4   6  -4 65.1008  5.5374   3
  -4   6  -4 66.0114  5.9251   1
  -6  -4  -4 71.9038  5.6651   1
   4  -6   4 86.1629  8.3255   2
  -4   6   4 68.2170  5.6104   4
  -4   6   4 72.1411  5.8315   4
  -4   6   4 76.8558  5.8871   1
   6   4   4 76.7924  6.3920   2
   6   4   4 72.6881  7.7382   1
  -6  -4   4 67.2503  7.4456   1
  -6  -3  -4 4.15068 3.04143   1
  -3   6  -4 7.52017 2.57729   4
  -3   6  -4 9.87532 3.07497   3
  -3   6  -4 11.0643  2.5076   1
   6   3  -4 9.31261 3.74221   1
  -3   6   4 8.87672 2.24484   4
  -3   6   4 9.02620 2.47982   4
   6   3   4 8.99840 3.74758   2
   3  -6   4 3.51137 2.62110   1
  -3   6   4 10.1275  2.6952   1
  -6  -3   4 3.11417 4.45710   1
  -3   6   4 13.3857  2.2370   3
   6   3   4 12.7946  3.5581   1
  -6  -2  -4 83.7524  6.5594   1
  -2   6  -4 84.4661  6.9926   4
  -2   6  -4 81.9465  6.3210   1
   6   2  -4 86.4422  6.5997   1
  -2   6  -4 71.6989  5.4807   3
  -2   6   4 77.4088  5.8329   4
   6   2   4 68.6414  6.7842   2
  -2   6   4 80.9065  5.5648   4
  -2   6   4 81.4780  5.3588   1
  -6  -2   4 98.7448  7.8837   1
  -2   6   4 82.1808  4.8505   3
   6   2   4 74.8778  6.7137   1
  -1   6  -4 245.813  12.475   1
   6   1  -4 243.001  12.811   1
  -6  -1  -4 242.505  12.944   1
  -1   6  -4 235.155  11.629   3
  -1   6  -4 222.214  13.483   4
  -6  -1   4 230.990  13.484   1
   1  -6   4 229.993  12.406   1
  -1   6   4 241.973  12.777   4
  -1   6   4 234.689  11.967   1
  -6  -1   4 223.885  14.464   4
  -1   6   4 234.846  10.777   3
   6   1   4 220.664  13.711   2
   6   1   4 235.804  13.765   1
  -1   6   4 249.812  13.085   4
   0   6  -4 3857.99  153.35   3
  -6   0  -4 3948.86  166.52   1
   0   6  -4 3721.32  165.86   1
   0   6  -4 3681.43  183.24   4
   6   0  -4 3755.32  165.95   1
  -6   0   4 3818.11  167.17   1
   6   0   4 3869.34  166.87   1
   6   0   4 3611.94  171.21   2
   0   6   4 3842.13  182.50   4
   0   6   4 3744.38  152.34   3
   0   6   4 3671.20  165.63   1
   0   6   4 3903.91  182.80   4
  -6   0   4 3811.76  184.14   4
   6  -1  -4 225.057  12.104   1
  -6   1  -4 257.357  13.057   1
   1   6  -4 236.497  12.529   1
   1   6  -4 243.599  12.434   3
  -6   1  -4 218.890  11.377   3
   6  -1  -4 255.011  12.098   2
   6  -1   4 223.246  13.642   2
   1   6   4 236.485  11.090   3
  -1  -6   4 244.229  12.768   1
   1   6   4 241.325  12.534   1
  -6   1   4 228.723  13.300   1
  -6   1   4 232.681  14.731   4
   6  -1   4 239.449  13.622   1
   1   6   4 230.657  12.990   4
   2   6  -4 88.0709  6.7632   3
   2   6  -4 88.1105  6.4807   1
  -6   2  -4 80.6528  5.8868   3
  -6   2  -4 83.7439  7.2155   1
   6  -2  -4 72.3970  5.6142   1
   2   6   4 86.3450  5.9413   4
   2   6   4 90.2304  6.6545   1
  -2  -6   4 87.5073  7.1328   1
   2   6   4 84.7902  5.6020   3
  -6   2   4 88.6675  7.5139   1
  -6   2   4 77.9935  6.9403   4
   6  -2   4 100.549   7.552   1
   6  -2   4 82.5876  7.9069   2
   3   6  -4 8.96435 2.54475   1
   3   6  -4 5.54927 3.90855   3
  -6   3  -4 11.1331  3.9912   1
  -6   3  -4 7.83211 3.07036   3
  -6   3   4 12.7354  3.2703   1
  -3  -6   4 7.61452 3.72888   1
   3   6   4 5.48910 3.50568   1
   3   6   4 5.76096 2.80739   4
   3   6   4 9.72225 2.78236   2
  -6   3   4 10.2118  3.7171   4
   6  -3   4 12.9231  4.9363   2
   6  -3   4 10.8016  3.8839   1
   4   6  -4 59.9645  5.9088   1
  -6   4  -4 66.5500  5.5395   3
   4   6  -4 67.7607  7.0143   3
  -6   4  -4 70.0085  6.6840   1
  -6   4   4 70.2305  6.2832   4
   4   6   4 83.3535  6.5445   2
  -6   4   4 78.1202  6.7343   1
  -4  -6   4 61.5856  6.5402   1
   6  -4   4 61.0406  5.6794   1
   6  -4   4 66.6693  6.9616   2
   4   6   4 81.0632  7.3098   1
  -6   5  -4 156.149   9.076   3
   5   6  -4 137.913  10.570   3
  -6   5  -4 155.990   9.595   1
   5   6  -4 149.871  10.016   1
  -5  -6   4 137.254  10.698   1
  -6   5   4 156.362   9.967   1
   5   6   4 144.807  11.401   1
   6  -5   4 146.618   9.086   1
  -6   5   4 146.787  10.406   4
   5   6   4 156.553  10.273   2
   6   6  -4 1729.72   77.52   1
  -6   6  -4 1722.90   71.25   3
  -6   6  -4 1759.62   77.52   1
  -6   6   4 1795.75   85.14   4
   6   6   4 1757.05   80.03   2
  -6   6   4 1731.26   77.35   1
   6   6   4 1561.85   78.60   1
  -6  -6   4 1708.56   78.00   1
   7   6  -4 53.3817  6.7205   1
  -6   7  -4 58.7775  5.4955   3
  -6   7  -4 54.6111  6.1355   1
  -7  -6   4 34.2697  6.6495   1
   7   6   4 40.9151  7.6994   1
  -5   7  -4 90.1003  7.2246   1
   7   5  -4 91.4341  7.9930   1
  -5   7  -4 86.8648  6.5811   3
  -5   7  -4 81.8516  7.6450   4
   7   5   4 109.308   9.292   1
  -5   7   4 83.2608  6.6770   4
  -5   7   4 95.9439  7.1309   4
  -7  -5   4 90.0386  8.9466   1
   7   5   4 84.5585  7.6661   2
  -4   7  -4 40.8923  4.6032   3
  -4   7  -4 41.6944  4.7905   1
   7   4  -4 40.5048  4.8275   1
  -7  -4  -4 43.9440  5.0842   1
  -4   7  -4 38.3977  4.5833   4
  -4   7   4 36.9250  3.7841   4
   7   4   4 38.5921  5.8540   2
  -7  -4   4 36.9480  6.5454   1
   7   4   4 32.5489  6.3816   1
  -4   7   4 33.0609  3.9011   4
  -3   7  -4 258.491  12.723   3
   7   3  -4 241.758  14.038   1
  -3   7  -4 238.279  13.245   1
  -7  -3  -4 258.865  13.597   1
  -3   7  -4 242.512  14.470   4
  -3   7   4 253.753  13.663   4
  -7  -3   4 234.714  15.477   1
  -3   7   4 250.735  13.468   4
   7   3   4 259.826  15.455   1
   7   3   4 249.048  14.987   2
  -3   7   4 245.191  11.391   3
  -2   7  -4 12.6689  3.4884   3
   7   2  -4 25.3685  4.6296   1
  -7  -2  -4 17.4811  4.1454   1
  -2   7  -4 17.6035  3.1969   4
  -2   7  -4 26.9877  3.7390   1
  -2   7   4 24.0059  2.5053   3
  -2   7   4 20.7960  2.8075   4
  -7  -2   4 14.0832  4.4521   1
  -2   7   4 21.0384  2.6678   4
   7   2   4 21.3177  5.1499   1
   7   2   4 21.2472  4.8327   2
  -7  -1  -4 324.257  16.699   1
   7   1  -4 319.784  15.869   1
  -1   7  -4 319.954  15.068   3
  -1   7  -4 304.957  17.486   4
  -1   7  -4 299.592  15.633   1
   7   1   4 312.895  16.727   1
   7   1   4 311.539  17.160   2
  -1   7   4 301.437  16.446   4
  -1   7   4 310.599  16.227   4
  -7  -1   4 302.311  17.697   1
  -1   7   4 308.788  13.688   3
   7   0  -4 -6.9266  2.9856   1
  -7   0  -4 -1.8447  3.7733   1
   0   7  -4 -1.0173  2.1231   3
   0   7  -4 -4.4367  2.5587   1
  -7   0   4 -5.0665  4.4527   1
   0   7   4 2.00122 1.73917   3
   0   7   4 1.42166 1.92574   4
   0   7   4 2.36703 2.55146   1
   7   0   4 -5.3944  3.7535   2
   0   7   4 -0.4462  1.6382   4
   7   0   4 -0.7834  3.8027   1
   7  -1  -4 300.605  15.758   1
   1   7  -4 314.562  15.358   3
  -7   1  -4 344.174  17.684   1
   7  -1  -4 321.227  16.025   2
   1   7  -4 325.252  16.176   1
   7  -1   4 284.303  17.462   2
   1   7   4 323.924  16.029   1
   1   7   4 317.311  16.950   4
  -7   1   4 316.583  17.847   1
  -7   1   4 337.718  18.853   4
   7  -1   4 326.159  17.268   1
   2   7  -4 16.0138  4.2150   3
   2   7  -4 22.7043  3.9189   1
  -7   2  -4 26.7918  5.2641   1
  -2  -7   4 25.6610  3.9883   1
   7  -2   4 13.5271  5.0988   2
  -7   2   4 27.5263  5.3362   1
   2   7   4 19.3711  3.6955   1
   2   7   4 21.8882  3.3132   4
   7  -2   4 19.9882  4.7178   1
  -7   2   4 20.4730  4.8545   4
  -7   3  -4 279.366  15.225   1
  -7   3  -4 253.478  12.466   3
   3   7  -4 236.085  13.864   3
   3   7  -4 255.278  13.683   1
   7  -3   4 251.330  14.045   1
   7  -3   4 226.068  15.734   2
   3   7   4 251.238  14.497   4
  -7   3   4 247.845  15.761   4
  -7   3   4 259.191  14.871   1
   3   7   4 247.762  14.109   1
  -7   4  -4 46.6119  5.4855   1
   4   7  -4 48.1192  5.4655   1
   4   7  -4 38.1773  6.0166   3
  -7   4  -4 38.1225  4.6485   3
  -4  -7   4 43.4989  5.9828   1
  -7   4   4 38.2114  5.6452   1
  -7   4   4 37.6663  5.0336   4
   7  -4   4 34.3709  5.3628   1
   4   7   4 45.0724  6.1655   1
  -7   5  -4 102.110   8.455   1
   5   7  -4 94.3972  8.7560   3
  -7   5  -4 96.1441  6.5336   3
   5   7  -4 91.5546  7.1539   1
  -7   5   4 90.5343  7.9086   1
  -7   5   4 86.4515  7.6444   4
   5   7   4 74.4535  8.4005   1
   6   7  -4 56.5955  6.5450   1
  -7   6  -4 59.8287  6.7087   1
  -7   6  -4 50.4184  4.7658   3
   6   7   4 32.1884  6.9562   1
  -7   6   4 43.2105  5.7616   1
   7   7  -4 168.413  12.059   1
  -7   7  -4 174.591  11.772   1
  -7   7  -4 164.635  10.359   3
   7   7   4 162.762  13.601   1
  -7  -7   4 172.700  12.203   1
   8   7  -4 45.9669  7.0590   1
  -7   8  -4 46.7532  6.2069   1
  -7   8  -4 44.9617  4.7536   3
   8   7   4 38.1453  6.9448   1
  -8  -7   4 49.3146  7.9495   1
   8   6  -4 180.421  12.483   1
  -6   8  -4 191.458  10.697   3
  -6   8  -4 159.831  11.331   1
   8   6   4 176.899  14.086   1
  -8  -6   4 166.676  13.103   1
  -5   8  -4 7.59262 2.87006   1
   8   5  -4 10.1884  5.0564   1
  -5   8  -4 2.22381 3.45789   3
   8   5   4 11.1718  6.4715   1
  -8  -5   4 5.15941 5.81135   1
  -4   8  -4 298.598  18.426   4
   8   4  -4 338.260  17.890   1
  -4   8  -4 303.904  16.583   1
  -8  -4  -4 328.555  16.686   1
  -4   8  -4 350.729  15.915   3
   8   4   4 305.154  19.176   1
  -8  -4   4 313.707  18.994   1
  -4   8   4 321.345  16.930   4
  -3   8  -4 15.8867  3.6461   3
  -3   8  -4 9.74085 2.99223   4
  -8  -3  -4 13.0597  4.2751   1
   8   3  -4 10.8644  4.5583   1
  -3   8  -4 10.9615  3.4568   1
  -3   8   4 7.10330 2.30047   3
   8   3   4 10.1057  5.7027   1
  -3   8   4 10.4233  2.1260   4
  -8  -3   4 9.47065 5.72706   1
   8   2  -4 1273.96   56.39   1
  -2   8  -4 1251.15   51.79   3
  -8  -2  -4 1296.93   56.48   1
  -2   8  -4 1191.05   61.51   4
  -2   8  -4 1284.79   55.68   1
  -2   8   4 1213.22   60.24   4
  -2   8   4 1232.29   50.44   3
   8   2   4 1212.99   57.05   1
  -8  -2   4 1196.28   57.55   1
  -2   8   4 1260.98   60.49   4
   8   2   4 1142.72   58.46   2
   8   1  -4 78.7598  6.9828   1
  -1   8  -4 94.7611  6.5571   3
  -8  -1  -4 74.5604  7.5439   1
  -1   8  -4 73.9589  6.0827   1
  -1   8  -4 68.8740  6.6983   4
  -1   8   4 75.0134  4.8643   3
   8   1   4 75.0942  7.2806   1
  -1   8   4 77.7905  5.2598   4
  -1   8   4 71.3551  5.4354   4
  -8  -1   4 77.4870  8.3479   1
   8   1   4 78.9819  7.4750   2
   8   0  -4 294.735  15.402   1
   8   0  -4 279.891  15.183   2
   0   8  -4 284.620  14.100   3
  -8   0  -4 294.029  16.776   1
   0   8  -4 292.943  14.939   1
   8   0   4 271.744  16.354   1
   0   8   4 289.487  15.270   4
   0   8   4 278.211  12.939   3
   0   8   4 290.548  15.491   4
  -8   0   4 288.210  16.462   1
  -8   1  -4 68.5237  7.8656   1
   1   8  -4 83.4425  6.2036   3
   1   8  -4 80.8470  6.3607   1
   8  -1  -4 61.7234  5.6376   1
   1   8   4 74.9363  5.7396   4
  -8   1   4 71.6117  7.9475   1
   8  -1   4 66.3792  7.3226   1
   2   8  -4 1263.34   53.51   3
  -8   2  -4 1262.98   58.57   1
   2   8  -4 1294.55   57.01   1
  -8   2   4 1246.48   58.44   1
   8  -2   4 1235.87   57.64   1
   2   8   4 1258.55   62.34   4
  -8   3  -4 10.4557  5.3051   1
   3   8  -4 4.55729 4.45886   3
   3   8  -4 11.8288  3.9547   1
   8  -3   4 14.4439  4.4616   1
  -8   3   4 6.13664 3.69191   1
   3   8   4 14.0489  4.9247   1
   4   8  -4 321.325  16.573   3
  -8   4  -4 329.157  18.526   1
   4   8  -4 332.845  16.906   1
   8  -4   4 313.648  16.265   1
  -8   4   4 316.523  19.317   4
   4   8   4 277.395  17.451   1
  -8   4   4 290.892  17.634   1
  -8   5  -4 5.99174 3.77897   1
   5   8  -4 11.2583  4.5198   1
  -8   5   4 6.71744 4.54105   4
   5   8   4 1.10771 4.72583   1
  -8   5   4 4.61225 4.52378   1
   6   8  -4 179.481  12.273   1
  -8   6  -4 202.148  12.991   1
  -8   6  -4 162.642  11.242   3
  -8   6   4 168.374  12.197   1
  -8   7  -4 35.2549  6.2838   1
  -8   7  -4 42.2167  5.4194   3
   7   8  -4 32.7104  5.2469   1
   7   8   4 23.1640  7.0336   1
  -8   8  -4 980.259  46.262   1
  -8   8  -4 1010.65   42.58   3
   8   8  -4 998.004  46.489   1
   8   8   4 923.282  48.528   1
   9   8  -4 51.6577  8.0958   1
  -8   9  -4 61.6399  7.4160   1
   9   8   4 84.3181 11.3735   1
  -7   9  -4 148.723  10.843   1
   9   7  -4 127.599  11.203   1
  -7   9  -4 140.155   8.890   3
   9   7   4 135.249  13.366   1
   9   6  -4 1.30856 5.53383   1
  -6   9  -4 -0.2457  3.6213   3
  -6   9  -4 -0.4886  4.0125   1
   9   6   4 -8.3472  6.3518   1
  -9  -6   4 1.32746 6.15671   1
   9   5  -4 580.324  30.591   1
  -5   9  -4 629.494  27.509   3
  -5   9  -4 622.181  29.776   1
   9   5   4 650.094  32.645   1
  -9  -5   4 578.851  31.420   1
  -4   9  -4 38.5950  5.1411   1
   9   4  -4 34.7579  6.3685   1
  -4   9  -4 40.8204  4.9748   3
  -9  -4   4 46.4788  6.6780   1
   9   4   4 36.3742  7.6807   1
   9   3  -4 100.199   8.737   1
  -3   9  -4 83.2641  7.8700   4
  -9  -3  -4 106.558   8.282   1
  -3   9  -4 92.1913  7.0399   3
  -3   9  -4 93.5267  7.1899   1
   9   3   4 89.8904  9.5328   1
  -9  -3   4 92.2102 10.0992   1
  -2   9  -4 20.2899  4.4925   4
  -2   9  -4 21.7741  4.2159   3
  -2   9  -4 23.1758  4.1035   1
  -9  -2  -4 31.1479  5.9442   1
   9   2  -4 24.5824  5.5235   1
   9   2   4 29.3607  6.7512   1
  -2   9   4 26.3615  2.7694   3
  -9  -2   4 28.5865  7.0403   1
   9   1  -4 582.698  28.447   1
  -9  -1  -4 629.927  29.656   1
  -1   9  -4 580.174  26.149   3
  -1   9  -4 567.812  27.614   1
  -1   9   4 566.074  24.526   3
  -9  -1   4 586.836  30.174   1
  -1   9   4 592.420  29.245   4
   9   1   4 562.117  29.409   1
  -9   0  -4 -1.1139  3.6699   1
   0   9  -4 0.69257 3.21398   1
   0   9  -4 -0.6552  3.4725   3
   9   0  -4 -9.5205  3.6259   1
   9   0   4 3.07960 5.08353   1
  -9   0   4 0.15886 3.76019   1
   0   9   4 -1.5499  1.7332   4
   1   9  -4 601.424  26.253   3
  -9   1  -4 527.285  29.323   1
   1   9  -4 565.549  27.313   1
   9  -1   4 560.747  28.667   1
   1   9   4 611.013  29.430   4
  -9   1   4 538.099  29.366   1
  -9   2  -4 9.76990 6.16421   1
   2   9  -4 24.8208  4.1670   3
   2   9  -4 25.2303  4.5127   1
   9  -2   4 28.1386  5.7073   1
  -9   2   4 23.0233  6.2541   1
   2   9   4 27.0797  4.0004   4
   3   9  -4 111.917   8.442   1
  -9   3  -4 84.4764  9.6828   1
   3   9  -4 98.8281  8.3946   3
  -9   3   4 91.7063  9.4537   1
   4   9  -4 49.9233  6.7399   3
  -9   4  -4 53.2321  7.9320   1
   4   9  -4 38.3413  5.6718   1
  -9   4   4 42.7255  7.1425   1
  -9   5  -4 654.534  31.797   1
   5   9  -4 596.291  29.726   1
  -9   5   4 601.284  30.993   1
  -9   6  -4 4.76572 5.58655   1
   6   9  -4 -5.4558  4.5945   1
   6   9   4 -2.7145  5.4227   1
  -9   6   4 3.49658 5.03344   1
  -9   7  -4 147.601  11.315   1
   7   9  -4 153.743  11.785   1
   7   9   4 104.901  12.091   1
  -9   8  -4 56.3772  7.6889   1
   8   9  -4 49.9042  7.8904   1
   8   9   4 53.8637  9.3675   1
  -9   9  -4 -1.5155  5.3519   1
   9   9  -4 12.0324  6.4237   1
   9   9   4 -9.9768  7.4823   1
  10   8  -4 32.2163  7.7686   1
  10   8   4 39.9879  9.7910   1
  10   7  -4 -7.3106  5.9772   1
  10   7   4 4.34428 7.85604   1
  10   6  -4 285.724  17.725   1
  -6  10  -4 248.794  15.551   1
 -10  -6   4 274.841  17.945   1
  10   6   4 291.075  19.775   1
  10   5  -4 27.4660  6.8602   1
  -5  10  -4 24.3172  4.6481   3
  -5  10  -4 19.3957  4.7894   1
  10   5   4 23.8430  6.4347   1
 -10  -5   4 15.6697  7.4516   1
 -10  -4  -4 57.3926  6.8673   1
  10   4  -4 37.8072  7.3215   1
  -4  10  -4 64.8723  6.2751   1
  -4  10  -4 57.3193  5.7691   3
 -10  -4   4 55.7281  8.9229   1
  10   4   4 61.4308  8.0286   1
  10   3  -4 20.3416  4.8042   1
  -3  10  -4 18.2618  4.2876   1
 -10  -3  -4 15.2662  5.6244   1
  -3  10  -4 12.8270  4.1575   3
  10   3   4 21.9578  7.2568   1
 -10  -3   4 22.6052  7.3897   1
 -10  -2  -4 66.6166  7.9892   1
  -2  10  -4 68.9886  6.3501   1
  10   2  -4 59.0981  7.2154   1
  -2  10  -4 67.0539  5.6791   3
  10   2   4 71.6343  7.9121   1
 -10  -2   4 70.0064  7.9938   1
  -1  10  -4 -1.4085  3.4132   3
 -10  -1  -4 5.97148 6.14982   1
  10   1  -4 4.99042 4.77972   1
  -1  10  -4 1.61550 3.57499   1
  10   1   4 -0.8945  3.9885   1
 -10  -1   4 -0.0533  5.9753   1
 -10   0  -4 359.769  21.035   1
   0  10  -4 345.958  17.436   3
   0  10  -4 378.324  18.540   1
 -10   0   4 312.844  19.690   1
  10   0   4 340.358  19.900   1
 -10   1  -4 -3.9140  5.9956   1
   1  10  -4 4.87044 3.82995   1
   1  10  -4 4.03020 3.95640   3
  10  -1   4 4.63655 5.51743   1
 -10   1   4 6.23335 6.19129   1
 -10   2  -4 33.8088  7.8921   1
   2  10  -4 61.1922  6.0231   3
   2  10  -4 70.8119  5.9551   1
 -10   2   4 69.6105  8.7644   1
  10  -2   4 59.5878  7.2890   1
 -10   3  -4 12.9773  6.7484   1
   3  10  -4 22.7501  4.3801   3
   3  10  -4 18.9438  4.8915   1
  10  -3   4 23.4521  5.9780   1
 -10   3   4 23.5756  6.6723   1
 -10   4  -4 32.0754  7.9461   1
   4  10  -4 52.1324  6.4243   1
   4  10  -4 73.1906  7.8063   3
 -10   4   4 40.6564  7.5358   1
   5  10  -4 26.2120  4.7068   1
 -10   5  -4 32.4854  7.7019   1
 -10   5   4 29.7500  6.8951   1
   6  10  -4 279.170  16.918   1
 -10   6  -4 302.027  18.505   1
 -10   6   4 255.148  18.250   1
   7  10  -4 2.07897 4.10006   1
 -10   7  -4 -2.2278  5.7130   1
   7  10   4 7.76682 6.95147   1
 -10   8  -4 48.4892  7.6342   1
   8  10  -4 38.2436  7.5988   1
   8  10   4 41.2347  7.6629   1
  11   7  -4 57.8562  9.0068   1
  11   7   4 60.4474 10.4933   1
  11   6  -4 21.1828  5.6761   1
 -11  -6   4 21.1086  7.5119   1
  11   6   4 11.8147  8.3792   1
  11   5  -4 6.20922 6.48728   1
 -11  -5   4 11.7377  7.3589   1
  11   5   4 3.98629 5.55462   1
  11   4  -4 108.371  10.320   1
 -11  -4  -4 116.585   9.707   1
 -11  -4   4 126.094  11.865   1
  11   4   4 117.234  10.943   1
  11   3  -4 755.712  37.464   1
 -11  -3  -4 813.489  37.978   1
  11   3   4 808.478  39.609   1
 -11  -3   4 733.261  38.634   1
  11   2  -4 70.0672  8.2066   1
 -11  -2  -4 93.8795  9.6441   1
  -2  11  -4 84.6768  7.2102   3
  11   2   4 109.361  10.671   1
 -11  -2   4 99.4407 10.6545   1
  -1  11  -4 2.23788 3.85044   1
  11   1  -4 -0.3353  5.9518   1
  -1  11  -4 6.11770 4.03658   3
 -11  -1  -4 0.42408 6.64396   1
  11   1   4 -2.4473  6.2748   1
 -11  -1   4 -1.3235  6.4611   1
 -11   0  -4 -2.4658  4.6829   1
   0  11  -4 -0.3545  3.7182   1
   0  11  -4 -0.0320  3.8375   3
 -11   0   4 -3.7260  6.4700   1
  11   0   4 6.75751 5.93518   1
   1  11  -4 8.03757 4.37303   3
   1  11  -4 -4.5848  3.7192   1
 -11   1  -4 8.56676 7.08298   1
 -11   1   4 0.63026 4.43651   1
  11  -1   4 -2.4453  5.6772   1
 -11   2  -4 56.4480  9.6205   1
   2  11  -4 88.1820  7.2945   3
   2  11  -4 77.5651  7.1801   1
  11  -2   4 93.0398  8.5621   1
 -11   2   4 71.1852  9.5068   1
 -11   3  -4 641.852  37.373   1
   3  11  -4 783.734  35.244   1
   3  11  -4 720.988  33.453   3
 -11   3   4 758.238  37.539   1
   4  11  -4 119.239   9.553   1
 -11   4  -4 102.541  11.551   1
 -11   4   4 109.089  11.240   1
 -11   5  -4 -3.2351  6.6290   1
   5  11  -4 1.05738 5.07469   1
 -11   5   4 9.27506 6.49295   1
   6  11  -4 8.60187 5.78619   1
 -11   6  -4 6.48689 6.78027   1
 -11   6   4 8.73010 6.79086   1
   7  11  -4 60.3143  7.2944   1
 -11   7  -4 85.2466 10.0463   1
  12   5  -4 24.8697  7.6598   1
  12   5   4 14.6736  8.5338   1
 -12  -5   4 35.3712  8.6179   1
  12   4  -4 69.2923  9.0156   1
  12   4   4 59.0805 10.0782   1
 -12  -4   4 80.4128 10.5658   1
  12   3  -4 4.68758 6.51620   1
 -12  -3  -4 -8.8075  5.7843   1
  12   3   4 -15.091   6.749   1
 -12  -3   4 -7.5477  7.0131   1
 -12  -2  -4 7.12712 7.01558   1
  12   2  -4 4.72140 5.71482   1
  12   2   4 6.87316 5.24777   1
 -12  -2   4 3.95814 5.29162   1
 -12  -1  -4 77.0979 10.1632   1
  12   1   4 58.9863  9.0172   1
 -12  -1   4 62.0757  8.4689   1
 -12   0  -4 503.048  27.895   1
  12   0   4 481.152  26.430   1
 -12   0   4 462.350  27.547   1
 -12   1  -4 56.4846  8.3509   1
 -12   1   4 48.1721  9.0754   1
 -12   2  -4 0.56493 7.52538   1
 -12   2   4 -2.6021  6.8796   1
   3  12  -4 -1.5900  4.6237   1
 -12   3  -4 -7.7981  7.0977   1
 -12   3   4 1.43727 6.92385   1
 -12   4  -4 68.5938 10.5180   1
   4  12  -4 55.9977  7.4509   1
 -12   4   4 79.0415 10.3111   1
 -12   5  -4 32.3172  8.6362   1
   5  12  -4 39.4656  6.9920   1
 -12   5   4 35.9119  8.3414   1
 -13  -3  -4 24.1993  7.5013   1
  13   3  -4 19.8493  7.1565   1
 -13  -2  -4 15.7305  7.7175   1
  13   2   4 12.4487  7.9569   1
 -13  -1  -4 90.8131 11.1853   1
  13   1   4 99.9367 11.2041   1
 -13  -1   4 140.004  13.423   1
 -13   0  -4 -5.6181  5.5676   1
 -13   0   4 -1.8620  7.4761   1
  13   0   4 -1.3530  6.6444   1
 -13   1  -4 118.987  13.364   1
 -13   1   4 103.607  12.610   1
   0   0  -5 0.93140 1.65273   2
   0   0  -5 2.74597 2.41164   1
   0   0   5 -1.8862  2.6056   4
   0   0   5 -1.0398  1.6300   4
   0   0   5 6.64913 3.22293   1
   0  -1  -5 3.81460 1.92024   3
   1   0  -5 -2.3793  2.2414   1
   0   1  -5 -0.1768  2.3181   4
   0   1  -5 0.13046 2.42457   1
   0   1  -5 -1.8337  1.9023   2
  -1   0  -5 1.88845 1.79439   4
   0   1  -5 -1.4498  2.1787   3
   0  -1  -5 0.74681 2.22774   1
   1   0  -5 2.73426 1.58228   2
   1   0  -5 -2.4381  1.9523   3
   0  -1  -5 1.78293 1.45565   2
  -1   0  -5 -0.0715  1.8324   2
  -1   0  -5 -0.5126  1.5982   1
  -1   0   5 0.30625 2.96996   1
  -1   0   5 1.24038 2.85789   4
   1   0   5 1.49022 2.00263   4
   1   0   5 -1.9761  1.8897   2
   0  -1   5 1.25745 2.25509   1
   0   1   5 -0.2471  1.6271   4
   0   1   5 0.33100 2.95088   1
   0   1   5 1.64178 2.81145   4
   0  -1   5 -0.0304  1.9293   4
   0  -1   5 -0.0655  2.4888   4
  -1   0   5 0.12997 1.73895   4
   1   0   5 1.02123 2.42831   4
   1   0   5 0.53042 2.17298   1
   1   1  -5 0.93733 2.52790   1
  -1  -1  -5 1.01969 2.25491   1
   1   1  -5 3.90090 1.85403   3
  -1  -1  -5 -0.2013  1.4197   2
  -1   1  -5 2.15110 2.55572   1
  -1   1  -5 -0.6080  2.1554   3
  -1  -1  -5 -3.5629  2.0630   4
  -1   1  -5 -0.0151  2.1021   2
  -1   1  -5 0.25147 2.42553   4
   1  -1  -5 1.85115 2.18793   1
   1   1  -5 1.28812 2.03708   2
   1  -1  -5 0.61387 1.11044   2
  -1   1   5 0.79833 1.76242   4
  -1  -1   5 4.21586 2.95190   4
   1  -1   5 2.30169 2.92495   4
  -1   1   5 1.83268 3.00820   1
   1  -1   5 -0.1698  1.7552   4
   1  -1   5 2.37008 2.38724   1
  -1   1   5 2.96027 2.90201   4
   1   1   5 0.07039 2.38193   4
   1   1   5 1.53936 1.65234   2
  -1  -1   5 -1.4915  2.9454   1
   1   1   5 1.28064 3.00702   1
  -1  -1   5 0.66513 2.61916   4
   1   1   5 -2.2107  1.8783   4
   1  -2  -5 1152.67   51.56   1
  -1   2  -5 1160.60   57.86   4
  -2  -1  -5 1186.33   51.99   1
  -2  -1  -5 1157.55   57.61   4
   2   1  -5 1119.32   53.43   2
   2   1  -5 1171.85   58.20   4
   2   1  -5 1185.05   52.15   1
  -1   2  -5 1121.86   53.81   2
   2   1  -5 1165.96   48.43   3
  -1   2  -5 1186.73   48.50   3
  -1   2  -5 1204.74   52.30   1
  -2  -1   5 1165.47   52.82   1
  -1   2   5 1175.30   57.67   4
   2   1   5 1119.76   57.73   4
  -2  -1   5 1166.66   58.18   4
  -2  -1   5 1170.61   57.93   4
  -1   2   5 1215.14   52.63   1
   1  -2   5 1160.40   58.12   4
   2   1   5 1151.20   58.15   4
   1  -2   5 1155.55   57.81   4
  -1   2   5 1191.85   58.00   4
   1  -2   5 1207.51   52.87   1
   2   1   5 1162.11   52.93   1
   2   1   5 1100.71   53.37   2
   0   2  -5 8.16324 2.83333   1
   2   0  -5 2.70333 1.60923   2
   0   2  -5 2.79907 1.46051   4
   0   2  -5 4.33151 2.00980   2
   0   2  -5 -0.3732  2.5481   3
  -2   0  -5 5.16564 2.08210   4
   0  -2  -5 8.56758 2.15548   1
  -2   0  -5 7.44902 2.35907   2
  -2   0  -5 3.55256 2.25664   3
  -2   0  -5 6.87644 2.13445   1
   2   0  -5 4.97926 2.56071   1
   2   0  -5 8.07765 3.05990   4
   0  -2   5 3.63974 2.54932   4
   2   0   5 4.54660 2.62558   2
  -2   0   5 4.10562 3.14406   1
   0   2   5 8.09902 2.73859   4
  -2   0   5 3.98732 2.75361   4
  -2   0   5 2.65379 3.00227   4
   2   0   5 6.48566 2.48659   4
   0   2   5 3.33345 2.15602   4
   2   0   5 7.67349 2.80028   4
   0  -2   5 10.7733  3.0938   4
   0   2   5 8.34089 3.18186   1
   0  -2   5 -0.5680  3.2133   1
   2   0   5 4.66102 2.62426   1
  -2   1  -5 1224.69   54.59   2
   1   2  -5 1160.98   59.04   4
   2  -1  -5 1247.51   53.22   2
   1   2  -5 1202.68   52.92   1
   2  -1  -5 1179.88   52.54   1
  -1  -2  -5 1156.40   58.16   4
   1   2  -5 1179.97   49.25   3
  -1  -2  -5 1219.19   52.47   1
  -2   1  -5 1167.12   52.95   1
  -2   1  -5 1183.39   48.94   3
   1   2  -5 1138.84   54.57   2
  -2   1  -5 1183.70   58.73   4
   2  -1   5 1195.87   53.59   1
  -1  -2   5 1175.23   58.74   4
   1   2   5 1156.73   53.56   2
  -1  -2   5 1187.35   53.55   1
   2  -1   5 1168.22   58.60   4
  -2   1   5 1258.18   53.59   1
   2  -1   5 1176.90   59.09   4
  -2   1   5 1144.96   58.89   4
   1   2   5 1197.05   58.56   4
   1   2   5 1176.01   53.53   1
   2  -1   5 1143.57   54.72   2
  -2   1   5 1139.76   58.55   4
   1   2   5 1172.87   58.93   4
  -2   2  -5 1.25532 1.91724   1
   2   2  -5 0.33179 2.62922   1
  -2   2  -5 -2.8796  2.4925   4
  -2  -2  -5 1.35960 2.33046   4
  -2   2  -5 0.07989 1.74969   3
  -2  -2  -5 -1.6849  2.1249   1
   2   2  -5 1.91511 2.55531   2
   2  -2  -5 -1.4209  1.6180   1
   2   2  -5 -3.5043  2.5180   3
   2   2   5 -1.8000  2.0516   4
   2   2   5 0.33783 1.72305   2
   2  -2   5 0.70707 3.06219   2
   2  -2   5 1.74175 2.91155   4
  -2   2   5 -1.7680  2.7831   1
   2   2   5 0.10426 1.75767   4
  -2   2   5 -1.1272  2.6324   4
   2  -2   5 0.66290 3.35887   1
  -2  -2   5 -1.2606  2.7733   4
   2   2   5 0.36298 3.20762   1
  -2   2   5 0.15046 1.82180   4
  -2   3  -5 42.8013  4.5817   1
  -2   3  -5 43.3022  5.0668   4
   3   2  -5 44.2387  4.7022   2
  -2   3  -5 38.4121  3.9208   3
   3   2  -5 46.8914  4.7077   1
  -3  -2  -5 52.8865  4.3553   1
  -2   3   5 39.6427  4.8063   4
   2  -3   5 44.1105  5.2661   1
  -3  -2   5 51.6442  5.9652   1
   3   2   5 40.5272  5.3052   4
   3   2   5 45.6269  5.5108   1
  -2   3   5 45.3818  4.8350   1
   3   2   5 41.5852  4.1695   2
   2  -3   5 46.1919  5.4610   2
  -2   3   5 43.2817  4.6404   4
  -3  -1  -5 4.51556 2.05751   1
   3   1  -5 6.46289 2.64609   4
   3   1  -5 -0.2974  2.2235   2
  -1   3  -5 4.82572 2.88970   3
   3   1  -5 6.78237 3.01782   1
  -1   3  -5 4.49163 2.30566   4
  -1   3  -5 7.58150 2.86587   1
   1  -3  -5 3.86368 1.44628   1
  -1   3   5 5.30342 3.00983   1
   3   1   5 10.3864  3.5737   4
  -3  -1   5 6.44469 2.62224   4
   3   1   5 9.88850 2.91699   1
  -1   3   5 6.26371 2.74299   4
   1  -3   5 5.85339 3.43842   1
  -1   3   5 4.61160 2.85192   4
   3   1   5 9.33045 2.78897   2
   1  -3   5 3.35925 2.81753   4
   0   3  -5 8.33928 3.03031   3
  -3   0  -5 1.50001 2.37525   2
   3   0  -5 0.73605 2.39981   1
   0   3  -5 -0.1318  1.9274   4
   0  -3  -5 -0.4097  1.6130   1
  -3   0  -5 -1.3161  2.7261   4
   3   0  -5 3.49422 1.73345   2
   0   3  -5 0.71660 1.96997   1
  -3   0  -5 -3.2286  2.5211   1
   3   0  -5 2.22327 2.98636   4
   3   0   5 -1.2266  2.7161   2
   0   3   5 -0.9014  2.0123   1
   0  -3   5 1.23339 2.65847   4
   0   3   5 -0.4990  2.5890   4
   3   0   5 5.01944 3.51533   1
   0  -3   5 2.02295 3.14482   1
  -3   0   5 -1.8400  2.9991   1
   0   3   5 -0.5777  1.6055   4
   3   0   5 1.29793 3.15665   4
  -3   0   5 -2.3661  2.8364   4
   1   3  -5 12.0582  3.2903   3
  -1  -3  -5 8.44415 2.18150   1
   1   3  -5 8.96390 3.03067   1
   3  -1  -5 5.53289 2.46225   1
  -3   1  -5 6.28750 3.00388   1
  -3   1  -5 8.52080 2.70660   3
   1   3   5 8.36205 2.77049   4
  -3   1   5 6.79825 2.55218   4
   1   3   5 3.87448 1.19768   2
  -3   1   5 2.71297 2.82638   4
   1   3   5 1.23660 2.87101   4
   3  -1   5 5.39434 3.67538   1
  -3   1   5 7.39885 3.35902   1
   1   3   5 7.41441 3.26342   1
   3  -1   5 3.72224 2.37194   2
   2   3  -5 42.1812  4.5926   1
   2   3  -5 50.8978  4.9509   3
  -3   2  -5 41.3513  4.9033   4
  -2  -3  -5 45.6120  3.5445   1
  -3   2  -5 47.7733  4.4328   3
  -3   2  -5 49.9698  4.7972   1
  -2  -3  -5 37.9628  3.8123   4
   2   3   5 45.4103  5.2257   1
   2   3   5 45.1603  5.2711   4
  -3   2   5 44.6764  5.1737   4
  -3   2   5 37.4115  4.6943   1
  -2  -3   5 42.7979  5.0517   1
   3  -2   5 47.2869  4.7624   1
   3  -2   5 38.8437  5.2558   2
   2   3   5 42.8275  3.6396   2
   2   3   5 47.1399  4.4463   4
  -3   2   5 43.7185  4.9307   4
   3   3  -5 -3.2211  2.7822   1
  -3   3  -5 0.38764 2.96131   1
  -3  -3  -5 -4.5801  2.0529   1
  -3   3  -5 0.15701 2.80249   3
  -3   3  -5 0.37129 3.17595   4
   3  -3   5 -0.1243  3.6185   2
   3   3   5 -1.7744  2.5258   2
   3   3   5 1.83238 3.55664   1
  -3   3   5 -1.4909  2.5924   4
  -3   3   5 -0.2614  2.8708   1
  -3  -3   5 4.34237 4.09641   1
  -3   3   5 3.18070 2.14586   4
   3  -3   5 -3.3944  3.3832   1
  -3   4  -5 55.8796  5.3145   1
  -4  -3  -5 54.1285  4.3559   1
   4   3  -5 38.9514  4.9255   1
  -3   4  -5 43.3303  4.7876   3
  -3   4   5 45.3465  4.9031   4
   3  -4   5 61.0351  5.8270   1
  -4  -3   5 46.4241  6.2291   1
   3  -4   5 47.7245  6.2070   2
   4   3   5 42.4277  5.8710   1
   4   3   5 48.1035  4.8554   2
  -3   4   5 54.4868  5.4650   4
  -3   4   5 52.3448  5.0558   1
   4   2  -5 14.4234  3.5632   1
  -2   4  -5 16.9771  3.8902   4
  -2   4  -5 13.7859  2.8378   3
  -2   4  -5 20.2560  3.7393   1
   4   2  -5 21.6325  3.7812   2
  -4  -2  -5 18.4506  3.4078   1
   2  -4   5 28.9714  4.4505   1
  -2   4   5 22.8537  3.5774   4
  -2   4   5 24.7794  3.6948   1
  -2   4   5 20.5434  3.6659   4
   4   2   5 16.5154  3.5425   2
  -4  -2   5 16.9407  4.9142   1
   4   2   5 19.3805  4.6702   1
  -1   4  -5 1655.31   71.54   1
  -1   4  -5 1550.48   79.10   4
  -4  -1  -5 1673.65   71.36   1
  -1   4  -5 1630.77   66.33   3
   4   1  -5 1452.85   73.38   2
   4   1  -5 1604.01   71.36   1
  -4  -1   5 1716.45   72.74   1
  -1   4   5 1616.70   71.57   1
   4   1   5 1597.63   72.21   1
   1  -4   5 1623.71   71.74   1
  -1   4   5 1648.58   78.66   4
  -4  -1   5 1596.13   79.73   4
  -1   4   5 1605.33   78.93   4
   4   1   5 1584.78   79.62   4
   4   1   5 1500.45   73.60   2
   4   0  -5 67.7148  5.4555   1
   0   4  -5 59.9011  5.0944   1
  -4   0  -5 63.4648  5.5700   1
   0   4  -5 69.6715  5.8603   4
   0   4  -5 67.7706  5.6264   3
   0   4   5 66.0527  5.9629   4
   0   4   5 67.8367  5.7103   1
   0   4   5 67.5870  5.2642   4
  -4   0   5 66.2089  6.2155   4
   4   0   5 65.5171  6.5559   1
  -4   0   5 59.9115  6.5794   1
   4   0   5 60.9244  5.9865   2
  -4   1  -5 1652.21   72.23   1
   1   4  -5 1661.78   67.09   3
   1   4  -5 1636.46   72.13   1
   4  -1  -5 1596.05   71.58   1
  -1  -4   5 1638.43   72.89   1
   1   4   5 1614.93   72.39   1
   4  -1   5 1663.28   72.91   1
   1   4   5 1637.89   79.80   4
  -4   1   5 1583.13   80.03   4
   1   4   5 1618.24   79.36   4
   4  -1   5 1495.83   74.60   2
   2   4  -5 15.7531  3.6694   1
   4  -2  -5 14.9804  2.3684   1
   2   4  -5 13.8079  3.0912   3
  -4   2  -5 20.8423  3.2930   1
  -4   2  -5 23.7970  3.0716   3
  -4   2   5 20.8552  3.5913   4
   4  -2   5 22.3520  4.5778   2
  -4   2   5 22.4513  3.5298   1
   2   4   5 24.0881  4.1457   4
   4  -2   5 20.4472  3.7243   1
   2   4   5 25.0135  4.2828   1
   2   4   5 18.8041  2.9983   4
  -2  -4   5 19.6498  4.7809   1
   3   4  -5 52.3209  5.0719   3
  -4   3  -5 49.8167  4.7872   1
  -4   3  -5 47.6295  4.4459   3
   3   4  -5 48.2594  5.1508   1
  -4   3   5 62.7865  6.0115   4
   4  -3   5 54.6633  5.8166   2
  -4   3   5 49.2040  5.2445   1
  -3  -4   5 41.6669  6.0281   1
   3   4   5 55.1379  5.9885   1
   4  -3   5 56.4748  5.8783   1
   4   4  -5 6.84065 3.56323   1
  -4   4  -5 -6.2138  3.2379   1
  -4   4  -5 0.17874 2.09555   3
  -4  -4  -5 0.69126 2.10576   1
   4  -4   5 -1.5953  3.7424   1
  -4   4   5 -3.1470  2.7633   1
   4   4   5 0.87380 2.96712   1
  -4  -4   5 -0.9089  3.1342   1
   4  -4   5 3.92090 3.23478   2
  -4   4   5 -0.4922  2.9549   4
   4   4   5 0.96527 2.68333   2
   5   4  -5 588.913  27.848   1
  -4   5  -5 588.930  27.777   1
  -4   5  -5 565.819  25.719   3
   5   4   5 571.507  28.527   2
   5   4   5 623.565  28.832   1
  -4   5   5 573.911  30.237   4
   4  -5   5 527.865  29.829   2
  -5  -4   5 593.830  29.073   1
  -4   5   5 563.132  27.314   1
   4  -5   5 567.496  27.244   1
   5   3  -5 56.6183  5.7579   1
  -3   5  -5 63.0239  5.7457   1
  -5  -3  -5 53.1269  4.7938   1
  -3   5  -5 59.7156  5.4039   3
  -5  -3   5 54.6170  6.9249   1
  -3   5   5 57.2913  5.2963   4
   3  -5   5 56.5153  7.1079   2
  -3   5   5 62.9248  5.7599   1
   3  -5   5 49.6282  5.1222   1
  -3   5   5 57.7122  5.6455   4
   5   3   5 57.9432  6.9249   1
   5   3   5 55.8133  5.8530   2
  -5  -2  -5 337.186  16.677   1
   5   2  -5 339.246  17.203   1
  -2   5  -5 342.072  16.233   3
  -2   5  -5 299.868  19.024   4
  -2   5  -5 327.517  17.028   1
  -5  -2   5 351.935  18.197   1
  -2   5   5 362.196  16.906   1
  -2   5   5 348.169  18.211   4
   5   2   5 314.166  17.824   2
  -2   5   5 330.347  18.462   4
   5   2   5 328.060  18.329   1
  -1   5  -5 26.0106  4.1352   3
  -1   5  -5 14.5243  3.9714   4
   5   1  -5 21.0685  3.9279   1
  -1   5  -5 23.9998  3.9776   1
  -5  -1  -5 23.4505  3.9771   1
  -1   5   5 21.7446  3.7024   4
  -1   5   5 24.6820  3.0994   4
  -5  -1   5 21.5218  4.3001   1
   5   1   5 26.1231  4.5863   2
   5   1   5 20.5880  4.8174   1
  -1   5   5 23.1746  4.0634   1
   5   0  -5 0.57853 2.80323   1
   0   5  -5 0.87893 3.22620   3
   0   5  -5 4.61841 2.42000   1
  -5   0  -5 4.63605 3.25453   1
  -5   0   5 0.18975 4.19448   1
   5   0   5 5.04375 4.21323   1
   0   5   5 3.27390 2.46324   4
   0  -5   5 10.7532  4.0498   1
   0   5   5 -1.0315  2.6324   1
   0   5   5 3.65254 2.74431   4
   5   0   5 1.58575 3.59050   2
  -5   1  -5 19.9789  4.1214   1
   1   5  -5 19.7183  4.1263   3
   1   5  -5 24.5214  4.0343   1
   1   5   5 19.4768  3.7762   1
   5  -1   5 22.2269  3.9617   2
   5  -1   5 19.4137  4.6601   1
  -5   1   5 24.3009  4.8947   1
   1   5   5 18.9784  3.7516   4
  -5   1   5 27.5874  4.1705   4
  -1  -5   5 8.64859 4.30603   1
   1   5   5 16.6627  3.3411   4
   2   5  -5 347.295  17.172   1
   5  -2  -5 344.357  16.049   1
   2   5  -5 334.282  16.318   3
  -5   2  -5 327.864  17.426   1
   2   5   5 346.457  17.550   1
   2   5   5 330.241  18.936   4
   5  -2   5 319.918  18.705   2
  -5   2   5 329.054  19.011   4
  -2  -5   5 333.177  18.014   1
  -5   2   5 319.258  18.060   1
   5  -2   5 350.392  18.089   1
   3   5  -5 64.9284  5.8813   1
   3   5  -5 58.7364  5.6484   3
  -5   3  -5 50.5721  5.7333   1
   5  -3   5 71.3566  6.7934   1
  -3  -5   5 74.9864  7.2820   1
   5  -3   5 58.4205  6.4335   2
   3   5   5 62.5149  6.5458   1
  -5   3   5 52.8144  6.1945   4
  -5   4  -5 594.356  27.862   1
   4   5  -5 589.507  27.896   1
  -5   4  -5 558.909  25.711   3
  -5   4   5 587.228  30.785   4
   5  -4   5 584.158  27.828   1
   4   5   5 572.915  28.832   1
   5  -4   5 552.293  29.661   2
  -4  -5   5 589.109  28.899   1
  -5   5  -5 0.43988 3.35301   3
   5   5  -5 -2.0803  3.8164   1
  -5   5  -5 8.14526 4.04234   1
   5   5   5 -3.7686  4.5804   1
   5  -5   5 0.50954 3.22617   1
  -5   5   5 1.58784 3.18048   4
  -5  -5   5 1.74397 5.04481   1
   6   5  -5 114.059   8.976   1
  -5   6  -5 105.093   7.729   3
  -5   6  -5 104.936   8.454   1
   6   5   5 108.770  10.403   1
  -6  -5   5 113.928   9.439   1
  -5   6   5 98.2438  8.4890   4
  -4   6  -5 0.06187 3.44055   3
  -6  -4  -5 1.55220 3.02459   1
  -4   6  -5 6.80151 3.99651   1
   6   4  -5 13.5962  4.4539   1
   6   4   5 4.30720 4.13741   2
  -4   6   5 9.69914 3.90486   1
  -6  -4   5 2.56538 5.53176   1
   6   4   5 1.26462 5.20645   1
  -4   6   5 7.17237 3.16249   4
  -3   6  -5 12.4600  3.0657   1
  -3   6  -5 9.06849 3.74298   3
  -6  -3  -5 8.97542 3.35461   1
   6   3  -5 9.46591 4.15580   1
   6   3   5 11.4572  4.3602   2
   3  -6   5 9.71155 3.36912   1
  -3   6   5 8.50738 2.91580   4
  -3   6   5 8.18594 3.08576   4
   6   3   5 12.4654  5.2472   1
  -3   6   5 11.3291  3.2254   1
  -6  -3   5 10.5705  4.2221   1
  -2   6  -5 17.8661  3.3390   3
  -6  -2  -5 18.4055  4.0427   1
   6   2  -5 31.2176  4.7933   1
  -2   6  -5 26.7420  4.3877   1
  -2   6   5 28.8357  3.8508   4
  -2   6   5 23.1592  3.6468   1
  -6  -2   5 31.7501  5.1880   1
   2  -6   5 20.7634  3.9257   1
  -2   6   5 24.1043  3.4868   4
   6   2   5 20.1697  4.7779   2
   6   2   5 19.1165  5.4182   1
   6   1  -5 196.575  11.601   1
  -1   6  -5 189.332  11.175   3
  -1   6  -5 201.772  11.598   1
  -6  -1  -5 200.983  11.709   1
   6   1   5 199.787  12.242   2
  -1   6   5 200.302  11.374   1
   6   1   5 201.927  13.087   1
  -6  -1   5 186.079  13.390   1
  -1   6   5 193.043  11.639   4
  -1   6   5 215.914  11.921   4
   0   6  -5 53.7006  5.4599   1
   6   0  -5 60.6139  5.4788   1
  -6   0  -5 56.9880  5.2984   1
   0   6  -5 60.8256  5.6748   3
  -6   0   5 40.7659  6.4124   1
   0   6   5 50.1395  5.1987   4
   6   0   5 48.0975  6.3046   2
   0   6   5 48.8845  4.5346   4
   6   0   5 52.8553  6.4984   1
   0  -6   5 38.1315  5.1333   1
   0   6   5 54.6924  5.1673   1
   1   6  -5 195.063  11.498   3
  -6   1  -5 193.976  12.213   1
   1   6  -5 192.134  11.548   1
   1   6   5 200.064  12.281   4
   6  -1   5 210.092  13.343   2
   6  -1   5 197.938  12.759   1
   1   6   5 203.448  11.429   1
   1   6   5 187.671  11.766   4
  -6   1   5 201.936  13.165   1
  -1  -6   5 207.926  12.008   1
   2   6  -5 33.0670  4.7471   1
  -6   2  -5 29.9087  4.3944   1
   2   6  -5 26.5666  4.8081   3
  -6   2   5 25.9539  4.4280   4
   6  -2   5 20.6851  5.1814   1
  -6   2   5 28.4340  5.4321   1
   6  -2   5 21.1646  4.4206   2
   2   6   5 17.8970  4.1655   1
  -2  -6   5 38.6927  6.3856   1
   3   6  -5 9.15986 3.91351   1
  -6   3  -5 7.74841 3.35876   1
  -3  -6   5 5.98832 4.46857   1
  -6   3   5 10.1409  4.5948   1
   3   6   5 15.0842  4.4127   1
  -6   3   5 3.28603 2.95047   4
   6  -3   5 14.2055  4.8368   1
   4   6  -5 6.21527 3.08702   1
  -6   4  -5 5.72968 4.33918   1
  -4  -6   5 2.81695 4.72202   1
   4   6   5 1.34975 4.54508   1
  -6   4   5 4.11040 4.29929   1
  -6   4   5 4.59413 3.07329   4
   6  -4   5 9.13713 4.87040   1
  -6   5  -5 116.283   9.150   1
   5   6  -5 102.938   8.591   1
  -5  -6   5 105.535   9.304   1
  -6   5   5 98.5504  8.6491   1
   6  -5   5 140.593   9.201   1
  -6   5   5 105.931   9.550   4
   5   6   5 115.087  10.140   1
  -6   6  -5 2.50344 4.36847   1
   6   6  -5 -2.0786  3.1105   1
  -6  -6   5 2.89058 5.39621   1
  -6   6   5 2.77473 3.94786   1
   6   6   5 2.43123 5.89476   1
   7   6  -5 135.605  10.831   1
  -6   7  -5 149.560  10.898   1
   7   6   5 159.146  13.310   1
  -7  -6   5 130.764  11.608   1
   7   5  -5 72.6917  7.6932   1
  -5   7  -5 77.6806  7.3195   1
  -5   7  -5 73.5033  6.6537   3
  -7  -5   5 66.5119  8.6164   1
   7   5   5 84.8635  8.6260   1
  -4   7  -5 828.273  36.186   3
  -7  -4  -5 866.519  38.327   1
  -4   7  -5 846.357  39.139   1
   7   4  -5 840.501  39.556   1
   7   4   5 807.361  40.991   1
  -7  -4   5 810.320  40.309   1
  -3   7  -5 80.6378  6.9386   1
  -3   7  -5 73.0707  6.4493   3
   7   3  -5 72.8844  7.2226   1
  -7  -3  -5 79.9865  6.5326   1
  -3   7   5 71.7417  6.2221   4
  -7  -3   5 64.9341  8.3234   1
   7   3   5 73.5287  7.8395   2
   7   3   5 79.1266  8.6810   1
  -2   7  -5 576.255  26.532   3
  -7  -2  -5 592.644  28.371   1
   7   2  -5 595.195  28.594   1
  -2   7  -5 601.609  28.289   1
   7   2   5 548.331  30.114   2
  -2   7   5 592.268  30.190   4
  -7  -2   5 603.014  29.788   1
   7   2   5 618.745  30.110   1
  -2   7   5 585.050  30.473   4
  -7  -1  -5 17.4150  4.7330   1
  -1   7  -5 7.18243 2.97959   1
   7   1  -5 5.34863 4.01127   1
  -1   7  -5 5.71153 2.89905   3
  -7  -1   5 6.55350 5.51053   1
   7   1   5 3.25403 4.97969   1
  -1   7   5 5.78476 2.55571   4
  -1   7   5 11.3056  3.1064   4
   7   1   5 8.13475 4.77837   2
   0   7  -5 1.38742 2.62913   3
   0   7  -5 -3.9824  3.2833   1
  -7   0  -5 0.98751 4.15971   1
   7   0  -5 -2.6089  3.3126   1
   0   7   5 1.01998 2.53776   4
  -7   0   5 -2.1153  3.4079   1
   0   7   5 -1.0680  2.2022   4
   7   0   5 9.22310 5.00707   1
   0   7   5 2.01433 3.36352   1
   7   0   5 -1.6697  4.3588   2
   1   7  -5 4.72511 4.02417   3
  -7   1  -5 9.55588 3.73162   1
   1   7  -5 12.0906  4.0166   1
   7  -1  -5 3.09979 3.00739   1
   1   7   5 11.3894  3.4682   1
   1   7   5 6.92191 3.15130   4
   7  -1   5 10.4801  5.1297   1
  -7   1   5 4.08230 5.05595   1
  -7   2  -5 625.584  30.261   1
   2   7  -5 601.759  27.640   3
   2   7  -5 608.775  29.166   1
   2   7   5 635.275  29.450   1
   7  -2   5 625.494  30.046   1
  -7   2   5 586.289  30.049   1
  -2  -7   5 580.043  29.195   1
  -7   3  -5 72.1248  7.7327   1
   3   7  -5 79.5597  7.0158   1
   7  -3   5 89.3783  7.6427   1
  -3  -7   5 56.5996  6.3437   1
  -7   3   5 71.3337  7.8561   1
   3   7   5 66.7599  7.1613   1
   4   7  -5 838.431  38.902   1
  -7   4  -5 842.359  39.421   1
  -7   4   5 833.391  43.278   4
  -7   4   5 814.022  39.628   1
   7  -4   5 823.642  38.655   1
   4   7   5 801.330  39.836   1
  -7   5  -5 96.2030  8.5419   1
   5   7  -5 73.0046  7.3783   1
  -5  -7   5 57.5453  7.0305   1
   5   7   5 76.2603  8.8229   1
  -7   5   5 69.5614  7.6516   1
   6   7  -5 154.320  10.402   1
  -7   6  -5 147.627  11.803   1
   6   7   5 132.941  12.328   1
  -6  -7   5 149.694  11.871   1
  -7   6   5 161.869  11.487   1
   7   7  -5 0.85813 5.30927   1
  -7   7  -5 1.31234 4.80869   1
  -7  -7   5 -4.7422  5.3885   1
   7   7   5 -2.7175  6.3045   1
   8   7  -5 73.9807  8.7531   1
  -7   8  -5 79.8739  7.3714   1
   8   7   5 59.3994 10.0570   1
  -6   8  -5 28.3533  5.7062   1
   8   6  -5 18.8778  6.4291   1
   8   6   5 21.6813  8.0870   1
  -8  -6   5 32.4766  7.4025   1
   8   5  -5 60.2973  7.5857   1
  -5   8  -5 60.2550  6.0390   1
  -5   8  -5 61.8255  6.2821   3
  -8  -5   5 37.8226  8.0393   1
   8   5   5 51.1775  9.0189   1
  -8  -4  -5 46.7096  5.6819   1
   8   4  -5 29.2588  6.0984   1
  -4   8  -5 30.1952  5.2367   1
  -4   8  -5 30.2337  5.0794   3
   8   4   5 41.3322  8.0611   1
  -8  -4   5 34.4089  7.4433   1
   8   3  -5 2.80006 4.89061   1
  -3   8  -5 6.01801 3.99308   3
  -3   8  -5 6.76496 4.04083   1
  -8  -3  -5 3.70656 4.13959   1
   8   3   5 -2.7270  5.9195   1
  -8  -3   5 5.77271 5.94649   1
  -3   8   5 3.73890 2.50179   4
   8   2  -5 -1.9947  4.2767   1
  -2   8  -5 -4.7672  3.5390   1
  -2   8  -5 -0.0364  2.6353   3
  -8  -2  -5 1.45501 4.41839   1
   8   2   5 -0.9308  5.2424   1
  -8  -2   5 -1.0676  5.7819   1
  -2   8   5 -2.4819  2.6572   4
  -1   8  -5 209.344  12.395   1
   8   1  -5 205.851  12.700   1
  -1   8  -5 200.566  11.438   3
  -8  -1  -5 232.464  13.745   1
  -8  -1   5 187.514  14.648   1
   8   1   5 211.278  14.412   1
   0   8  -5 24.1383  4.0769   3
  -8   0  -5 32.7581  6.2280   1
   0   8  -5 26.1731  4.8830   1
   8   0  -5 34.5843  4.9606   1
   0   8   5 29.3006  3.8664   4
   8   0   5 26.6365  6.2454   1
  -8   0   5 26.4703  6.6967   1
   1   8  -5 208.658  12.749   1
  -8   1  -5 226.982  13.700   1
   1   8  -5 235.745  13.041   3
  -8   1   5 207.133  14.940   1
   8  -1   5 204.603  14.353   1
   2   8  -5 7.10619 4.56225   3
  -8   2  -5 -4.1808  5.1011   1
   2   8  -5 6.49234 4.08300   1
  -8   2   5 8.31661 5.55769   1
   8  -2   5 -4.3962  4.6958   1
   3   8  -5 4.37842 4.26497   1
  -8   3  -5 0.00722 5.50653   1
   8  -3   5 2.08401 4.75928   1
   3   8   5 2.29681 5.11649   1
  -8   3   5 1.93416 5.28722   1
  -8   4  -5 39.8313  6.1222   1
   4   8  -5 27.7740  5.5462   1
   8  -4   5 24.8479  5.1133   1
  -8   4   5 27.2095  6.3482   1
   4   8   5 41.0228  6.6330   1
   5   8  -5 68.9980  6.6747   1
  -8   5  -5 65.1202  8.3952   1
   5   8   5 50.3504  7.9741   1
  -8   5   5 69.1885  8.0066   1
   6   8  -5 20.1047  5.9339   1
  -8   6  -5 28.0753  6.7470   1
  -8   6   5 14.8796  5.7000   1
   6   8   5 20.4658  7.0581   1
   7   8  -5 76.0648  8.4407   1
  -8   7  -5 76.9034  8.3744   1
   7   8   5 31.8930  8.4891   1
   8   8  -5 -3.0712  5.6534   1
  -8   8  -5 2.33571 3.95594   1
   8   8   5 -12.461   6.479   1
   9   8  -5 38.1847  7.6943   1
  -8   9  -5 30.1884  6.7564   1
   9   8   5 24.9358  7.1785   1
   9   7  -5 49.6777  7.9051   1
  -7   9  -5 36.3462  6.5735   1
   9   7   5 21.1069  8.8873   1
  -6   9  -5 13.7074  5.2690   1
   9   6  -5 3.79640 6.25264   1
  -9  -6   5 -0.5888  6.6439   1
   9   6   5 1.27098 7.91784   1
  -5   9  -5 56.1976  6.3303   3
   9   5  -5 57.6248  7.8747   1
  -5   9  -5 48.3925  6.4213   1
   9   5   5 61.3238 10.1669   1
  -9  -5   5 54.6923  8.9351   1
  -4   9  -5 179.031  11.550   1
   9   4  -5 162.760  12.696   1
  -4   9  -5 151.023  10.870   3
  -9  -4   5 161.931  12.938   1
   9   4   5 197.794  15.030   1
  -3   9  -5 17.2929  4.6750   3
  -9  -3  -5 19.9839  5.2984   1
   9   3  -5 23.8159  4.7579   1
  -3   9  -5 15.7321  4.6461   1
  -9  -3   5 23.7181  7.3354   1
   9   3   5 20.1618  7.2767   1
  -2   9  -5 210.946  12.863   1
  -9  -2  -5 235.176  14.233   1
  -2   9  -5 206.356  12.431   3
   9   2  -5 195.623  13.462   1
   9   2   5 216.914  15.618   1
  -9  -2   5 206.450  15.867   1
  -9  -1  -5 -1.4090  5.3539   1
   9   1  -5 -2.4628  4.3230   1
  -1   9  -5 3.11976 2.93313   3
  -1   9  -5 -1.2619  3.8473   1
  -9  -1   5 11.3613  6.6779   1
   9   1   5 3.27547 5.91045   1
  -9   0  -5 5.06697 5.82270   1
   0   9  -5 -0.7245  4.0269   3
   0   9  -5 4.16573 3.94670   1
   9   0  -5 -0.2621  3.9383   1
  -9   0   5 3.86121 6.20495   1
   9   0   5 -4.7155  5.4954   1
  -9   1  -5 0.38746 5.90523   1
   1   9  -5 -1.5429  4.0522   1
   1   9  -5 -4.6483  4.1643   3
   9  -1   5 5.52776 5.66454   1
  -9   1   5 -1.6934  5.8836   1
  -9   2  -5 191.244  15.034   1
   2   9  -5 246.091  13.985   3
   2   9  -5 215.652  13.093   1
  -9   2   5 200.807  15.291   1
   9  -2   5 205.343  14.322   1
  -9   3  -5 14.1085  6.6306   1
   3   9  -5 17.1034  5.0119   1
   9  -3   5 16.6996  5.3091   1
  -9   3   5 21.3914  6.5613   1
   4   9  -5 198.827  12.847   1
  -9   4  -5 187.941  14.462   1
  -9   4   5 169.609  13.969   1
   5   9  -5 44.7790  6.9257   1
  -9   5  -5 68.2512  7.8845   1
  -9   5   5 67.8304  8.2911   1
   5   9   5 45.5707  8.0103   1
   6   9  -5 13.7118  5.8913   1
  -9   6  -5 8.16533 6.44925   1
   6   9   5 -0.0367  6.1607   1
  -9   6   5 8.60637 6.44649   1
  -9   7  -5 43.2474  7.6914   1
   7   9  -5 36.8024  7.1965   1
   7   9   5 13.6873  7.7379   1
  -9   8  -5 28.7101  7.2389   1
   8   9  -5 32.9925  7.4720   1
   8   9   5 28.8863  9.1763   1
  10   7  -5 321.771  20.132   1
  -7  10  -5 328.657  18.719   1
  10   7   5 295.525  22.622   1
  -6  10  -5 66.5243  7.5760   1
  10   6  -5 69.8566  9.0459   1
 -10  -6   5 61.7272  9.0914   1
  10   6   5 68.5529 11.3715   1
  10   5  -5 155.508  11.695   1
  -5  10  -5 170.038  11.674   1
 -10  -5   5 135.850  13.085   1
  10   5   5 145.913  13.125   1
  10   4  -5 33.5310  6.9840   1
  -4  10  -5 38.6183  6.0375   1
  10   4   5 34.9207  7.1814   1
 -10  -4   5 29.9396  8.2849   1
  10   3  -5 32.3491  6.6898   1
  -3  10  -5 19.5176  5.1640   1
  -3  10  -5 22.3630  5.0809   3
 -10  -3  -5 32.4733  6.3191   1
 -10  -3   5 29.9214  8.1112   1
  10   3   5 32.3255  8.1894   1
  10   2  -5 39.1884  6.5505   1
 -10  -2  -5 33.2317  6.9550   1
  -2  10  -5 38.8947  5.9049   1
  -2  10  -5 27.8613  5.4257   3
 -10  -2   5 56.2368  8.9086   1
  10   2   5 46.4202  8.4018   1
  -1  10  -5 420.070  21.936   1
 -10  -1  -5 410.986  23.741   1
  -1  10  -5 427.763  21.091   3
  10   1  -5 430.340  22.809   1
  10   1   5 463.130  24.692   1
 -10  -1   5 420.257  23.851   1
   0  10  -5 200.306  12.388   1
 -10   0  -5 195.380  14.593   1
  10   0   5 184.071  13.893   1
 -10   0   5 179.475  13.860   1
   1  10  -5 441.663  21.653   1
   1  10  -5 414.059  20.811   3
 -10   1  -5 381.806  22.770   1
  10  -1   5 427.161  23.223   1
 -10   1   5 388.451  23.973   1
 -10   2  -5 15.7199  7.1722   1
   2  10  -5 40.1550  6.1548   1
  10  -2   5 38.8465  6.8383   1
 -10   2   5 33.6841  7.9669   1
 -10   3  -5 15.5420  7.2601   1
   3  10  -5 41.4009  6.2407   1
 -10   3   5 11.9085  7.0538   1
 -10   4  -5 19.2950  7.7727   1
   4  10  -5 30.1007  6.2144   1
 -10   4   5 30.0701  7.4357   1
 -10   5  -5 133.021  12.875   1
   5  10  -5 160.130  12.488   1
 -10   5   5 176.085  13.688   1
   6  10  -5 87.6460  9.4341   1
 -10   6  -5 89.4352 10.6774   1
 -10   7  -5 337.141  20.551   1
   7  10  -5 314.448  19.692   1
 -11  -6   5 18.7439  7.7595   1
  11   5  -5 -0.3607  4.6724   1
 -11  -5   5 8.68713 7.97813   1
  11   5   5 5.85055 8.38771   1
  11   4  -5 25.5818  7.2307   1
  -4  11  -5 28.8872  5.8466   1
  11   4   5 24.4596  8.7159   1
 -11  -4   5 26.3882  8.4793   1
  -3  11  -5 -0.5560  4.5951   1
  11   3  -5 -4.6325  5.6582   1
 -11  -3  -5 -2.6829  6.6106   1
  11   3   5 6.86988 5.60371   1
 -11  -3   5 2.50699 7.37488   1
  11   2  -5 -1.0906  6.5751   1
  -2  11  -5 5.01656 4.66391   1
 -11  -2  -5 3.46457 6.44429   1
 -11  -2   5 0.99669 7.26172   1
  11   2   5 11.2610  7.3597   1
 -11  -1  -5 -10.503   6.597   1
  -1  11  -5 5.65491 4.70514   1
  11   1   5 3.70065 6.97946   1
 -11  -1   5 1.86291 7.02935   1
 -11   0  -5 -4.8160  6.9079   1
   0  11  -5 6.36657 3.45898   1
  11   0   5 0.03236 6.54880   1
 -11   0   5 2.00121 6.94057   1
   1  11  -5 -0.7384  4.5932   1
 -11   1  -5 -5.3319  4.7879   1
  11  -1   5 -0.8663  6.2979   1
 -11   1   5 -1.3390  6.7363   1
 -11   2  -5 -0.4437  6.7331   1
   2  11  -5 10.8966  5.0606   1
  11  -2   5 -0.9633  5.6657   1
 -11   2   5 7.87015 7.28751   1
 -11   3  -5 4.67847 7.04725   1
   3  11  -5 -2.8178  4.8619   1
 -11   3   5 1.09711 6.84207   1
   4  11  -5 20.1159  5.9417   1
 -11   4  -5 17.0010  8.1334   1
 -11   4   5 21.1294  7.8820   1
   5  11  -5 -3.1854  5.6016   1
 -11   5  -5 -5.4136  7.3027   1
 -11   5   5 4.28751 7.03814   1
  12   3  -5 11.6473  6.6933   1
 -12  -2  -5 20.0579  7.6429   1
 -12  -2   5 34.6805  9.1180   1
  12   2   5 45.0903  9.1983   1
 -12  -1  -5 114.050  11.780   1
 -12  -1   5 106.974  12.173   1
  12   1   5 101.377  11.515   1
 -12   0  -5 48.3126  9.5155   1
  12   0   5 50.9663  9.0322   1
 -12   0   5 61.1351  9.9805   1
   1  12  -5 91.8336  8.4315   1
 -12   1  -5 82.0690 11.5741   1
 -12   1   5 96.8706 10.2228   1
  12  -1   5 83.5679  9.6242   1
   2  12  -5 35.4757  6.5393   1
 -12   2  -5 22.5775  6.7001   1
 -12   2   5 38.1104  8.8498   1
   3  12  -5 14.8989  5.9161   1
 -12   3   5 12.9944  7.8841   1
   0   0  -6 660.537  31.022   1
   0   0   6 691.228  32.328   1
  -1   0  -6 1.83632 3.06095   1
   1   0  -6 -0.4036  2.0946   1
   0  -1  -6 0.66843 2.72843   1
   0   1  -6 2.39571 3.27637   1
   1   0   6 2.46013 3.97017   1
   0   1   6 -4.5258  3.5328   1
  -1   0   6 -2.7978  3.5841   1
   0   1   6 0.75278 2.51849   4
   0  -1   6 -1.0780  3.6737   1
   1   1  -6 540.769  25.949   1
   1  -1  -6 576.967  25.621   1
  -1   1  -6 575.201  26.091   1
  -1  -1  -6 536.712  25.615   1
   1   1   6 513.595  26.802   1
  -1   1   6 556.920  26.869   1
  -1   1   6 517.327  29.288   4
  -1  -1   6 541.317  26.854   1
   1  -1   6 567.532  27.109   1
   2   1  -6 108.898   7.740   1
   1  -2  -6 104.796   6.494   1
  -1   2  -6 100.807   7.096   1
  -2  -1  -6 100.697   7.255   1
  -2  -1   6 92.4033  8.0483   1
  -1   2   6 103.550   8.210   1
  -1   2   6 97.0281  7.9658   4
   2   1   6 125.967   8.273   1
   1  -2   6 106.464   7.898   1
   0  -2  -6 1510.21   67.28   1
   2   0  -6 1510.82   67.73   1
  -2   0  -6 1605.08   67.96   1
   0   2  -6 1577.10   68.10   1
   2   0   6 1476.04   68.86   1
   0   2   6 1575.98   68.81   1
   0  -2   6 1543.05   68.82   1
  -2   0   6 1526.27   68.76   1
   2   0   6 1456.41   69.73   2
   0   2   6 1419.19   75.52   4
   1   2  -6 116.109   7.311   1
  -1  -2  -6 118.160   7.119   1
   2  -1  -6 98.8494  7.1017   1
  -2   1  -6 123.824   8.191   1
   2  -1   6 107.764   7.466   2
   1   2   6 108.093   8.579   1
   1   2   6 103.627   9.044   4
  -2   1   6 114.458   8.851   1
  -2   1   6 88.2830  8.0740   4
  -1  -2   6 106.107   8.517   1
   2  -1   6 119.493   8.990   1
  -2   2  -6 13.3109  3.8687   1
   2  -2  -6 16.4310  3.1085   1
  -2  -2  -6 20.8662  3.4102   1
   2   2  -6 13.9879  3.8688   1
   2   2   6 13.8947  4.4829   1
  -2   2   6 19.6516  3.6134   1
  -2   2   6 11.3121  4.0956   4
   2  -2   6 17.0255  4.7421   1
   3   2  -6 4.96489 3.79039   1
  -3  -2  -6 2.78947 3.17323   1
  -2   3  -6 7.33310 3.71341   1
  -3  -2   6 1.71739 4.56252   1
   2  -3   6 9.74814 4.51745   1
  -2   3   6 7.26123 2.89912   4
   3   2   6 11.4235  4.6694   1
  -2   3   6 -0.4667  3.6474   1
  -1   3  -6 -1.2371  3.2323   1
  -3  -1  -6 5.06497 3.16497   1
   3   1  -6 5.46418 3.48571   1
  -1   3   6 -0.8588  2.3303   1
   3   1   6 -1.0069  4.2154   1
   3   1   6 0.58331 2.75051   2
   1  -3   6 3.12514 3.05288   1
  -1   3   6 -1.4161  2.3207   4
  -3   0  -6 -1.3809  3.1927   1
   3   0  -6 2.25319 2.98031   1
   0   3  -6 0.09861 3.48852   1
   0   3   6 -1.0184  3.4253   1
   0   3   6 -2.6041  3.2600   4
   3   0   6 5.03545 4.17494   1
  -3   0   6 -0.8148  2.5980   1
   0  -3   6 2.98048 4.01869   1
   3   0   6 0.19494 3.00634   2
  -3   1  -6 -2.3349  3.2814   1
   1   3  -6 5.45468 3.65521   1
   3  -1  -6 4.73553 2.86100   1
  -1  -3  -6 -0.5529  2.1080   1
   3  -1   6 4.14160 3.53768   2
   3  -1   6 -2.2052  4.0673   1
  -3   1   6 -0.5634  3.7937   1
   1   3   6 3.85790 3.84806   1
   1   3   6 2.34782 3.58785   4
  -3   2  -6 4.20880 2.69710   1
   2   3  -6 1.79281 3.64537   1
  -2  -3  -6 3.79781 2.97742   1
   3  -2  -6 1.96031 2.12819   1
  -3   2   6 3.73122 3.80525   1
   2   3   6 0.29458 3.80349   4
   2   3   6 5.47767 4.09571   1
  -2  -3   6 6.81780 4.81597   1
   3  -2   6 0.41125 4.46197   1
  -3   2   6 1.31897 3.70110   4
   3  -2   6 5.52102 2.97511   2
   3   3  -6 2788.18  124.72   1
  -3   3  -6 2875.90  124.87   1
  -3   3   6 2887.64  125.22   1
   3  -3   6 2711.18  128.90   2
  -3  -3   6 2698.56  125.77   1
   3  -3   6 2979.77  125.50   1
   3   3   6 2838.19  125.59   1
  -3   3   6 2799.64  138.06   4
  -3   4  -6 24.2166  4.7275   1
   4   3  -6 25.7470  4.1531   1
  -4  -3  -6 26.8166  3.8483   1
   3  -4   6 35.4461  5.5893   1
  -3   4   6 31.1707  5.0384   1
  -4  -3   6 26.2238  6.3759   1
   4   3   6 27.3770  5.7935   1
  -3   4   6 23.7959  4.8211   4
  -2   4  -6 96.7831  7.9253   1
  -4  -2  -6 107.407   7.809   1
   4   2  -6 115.279   8.511   1
   2  -4   6 104.651   8.691   1
   4   2   6 105.207   9.219   1
  -2   4   6 118.975   8.607   1
  -2   4   6 111.033   9.107   4
  -4  -2   6 119.277   9.776   1
   4   1  -6 11.1510  3.8681   1
  -4  -1  -6 12.1317  3.8282   1
  -1   4  -6 10.7256  3.9142   1
   4   1   6 7.03663 4.86760   1
  -4  -1   6 10.0838  5.1776   1
   1  -4   6 11.6775  4.5186   1
  -1   4   6 13.2466  4.1592   1
  -1   4   6 17.4865  4.3180   4
   4   1   6 9.26445 3.68636   2
  -4   0  -6 861.719  37.997   1
   0   4  -6 808.633  38.181   1
   4   0  -6 827.002  37.770   1
   0   4   6 815.774  42.412   4
   4   0   6 813.375  39.222   1
   0   4   6 866.804  38.718   1
   4   0   6 762.627  39.470   2
   1   4  -6 13.6009  4.0563   1
  -4   1  -6 14.7409  3.4135   1
   4  -1  -6 10.9177  3.0304   1
   1   4   6 9.86796 4.14544   4
  -1  -4   6 12.2799  5.1294   1
   4  -1   6 11.7895  4.3575   2
   4  -1   6 14.2272  3.8793   1
   1   4   6 7.99157 4.08017   1
   2   4  -6 99.1107  7.8368   1
  -4   2  -6 112.578   8.729   1
   2   4   6 95.9011  8.6899   4
   2   4   6 96.9877  8.3064   1
   4  -2   6 89.3259  8.5147   2
   4  -2   6 114.056   9.143   1
  -4   2   6 96.1242  8.2019   1
  -2  -4   6 124.803   9.734   1
   3   4  -6 26.0655  4.9520   1
  -4   3  -6 22.8317  4.8178   1
   4  -3   6 37.9909  5.3822   2
   3   4   6 29.4706  5.5309   1
   4  -3   6 29.0795  4.7277   1
  -4   3   6 21.4463  4.8661   1
  -3  -4   6 31.3888  6.3152   1
  -4   3   6 18.2214  4.8593   4
  -4   4  -6 64.9408  6.9063   1
   4   4  -6 82.1789  7.5331   1
  -4   4   6 70.7974  7.1212   1
   4  -4   6 68.2893  7.1506   1
  -4  -4   6 87.6123  8.0619   1
  -4   4   6 82.9342  7.7903   4
   4   4   6 92.8436  7.9187   1
  -4   5  -6 27.2594  5.2096   1
   5   4  -6 18.3784  5.1208   1
   5   4   6 13.9714  6.2344   1
  -4   5   6 20.9475  4.7796   4
  -4   5   6 23.9113  4.8307   1
   4  -5   6 20.1954  4.8599   1
  -5  -4   6 29.4671  6.9124   1
   5   3  -6 295.380  15.792   1
  -3   5  -6 269.560  15.015   1
  -5  -3  -6 287.465  14.651   1
  -3   5   6 284.838  15.516   1
   3  -5   6 305.729  15.784   1
   5   3   6 264.923  17.073   1
  -5  -3   6 251.579  17.248   1
  -3   5   6 279.991  16.975   4
  -2   5  -6 1.32570 3.76380   1
   5   2  -6 9.79289 4.33302   1
  -5  -2  -6 2.40578 3.68082   1
  -2   5   6 1.52483 3.52092   1
  -5  -2   6 1.34128 5.16022   1
  -2   5   6 1.63572 3.47441   4
   5   2   6 1.85550 3.63953   1
  -1   5  -6 968.822  42.549   1
  -5  -1  -6 959.017  42.093   1
   5   1  -6 911.470  42.155   1
  -1   5   6 914.523  42.527   1
   5   1   6 882.597  43.486   1
   5   1   6 820.215  43.800   2
  -1   5   6 903.358  46.658   4
  -5  -1   6 968.937  44.062   1
   5   0  -6 2.77431 3.53643   1
   0   5  -6 0.99441 3.78688   1
  -5   0  -6 4.71136 4.10534   1
   0   5   6 3.13058 3.61671   1
   0  -5   6 3.03352 4.58830   1
   0   5   6 2.63123 3.57554   4
   5   0   6 1.90391 4.01218   2
   5   0   6 -1.4029  3.3486   1
  -5   0   6 2.31638 4.82715   1
   1   5  -6 938.576  41.940   1
   5  -1  -6 878.633  40.955   1
  -5   1  -6 940.922  42.056   1
   5  -1   6 844.971  43.722   2
  -5   1   6 934.572  43.246   1
  -1  -5   6 912.072  42.708   1
   1   5   6 896.701  42.184   1
   1   5   6 854.067  46.050   4
   5  -1   6 929.917  42.892   1
   2   5  -6 0.71285 2.89504   1
  -5   2  -6 0.07788 4.02643   1
   2   5   6 0.09231 4.02635   1
  -2  -5   6 3.89159 3.63632   1
   2   5   6 6.58549 2.98771   4
   5  -2   6 1.51809 3.36935   2
   5  -2   6 6.53830 5.01448   1
  -5   2   6 1.65488 4.72153   1
   3   5  -6 295.383  15.965   1
  -5   3  -6 291.260  16.256   1
  -3  -5   6 270.971  17.116   1
   3   5   6 285.946  16.852   1
  -5   4  -6 19.4017  5.3845   1
   4   5  -6 26.1094  5.3151   1
   4   5   6 13.8123  5.7603   1
  -5   4   6 23.5315  5.8876   4
   5  -4   6 21.4766  5.5877   1
  -4  -5   6 31.6797  6.8751   1
   5   5  -6 948.545  43.741   1
  -5   5  -6 952.310  44.152   1
   5   5   6 909.856  45.344   1
  -5  -5   6 913.839  45.013   1
   5  -5   6 950.452  43.466   1
   6   5  -6 46.8005  6.7031   1
  -5   6  -6 42.5273  6.5678   1
  -6  -5   6 26.2703  7.0303   1
   6   5   6 42.2943  6.9747   1
  -4   6  -6 321.136  17.724   1
   6   4  -6 320.959  17.288   1
  -4   6   6 328.325  17.816   1
  -6  -4   6 293.990  19.214   1
   6   4   6 337.886  19.033   1
  -3   6  -6 10.6262  4.5104   1
  -6  -3  -6 8.59046 3.87648   1
   6   3  -6 18.1698  5.1577   1
   6   3   6 7.95090 6.07663   1
  -3   6   6 9.97916 4.09055   1
  -6  -3   6 14.6747  5.0644   1
   6   2  -6 797.684  37.191   1
  -6  -2  -6 817.317  36.861   1
  -2   6  -6 803.298  37.245   1
   2  -6   6 762.161  37.125   1
  -6  -2   6 781.894  38.416   1
   6   2   6 773.131  38.263   1
  -2   6   6 801.645  37.126   1
  -2   6   6 775.051  40.762   4
  -1   6  -6 56.4208  6.1169   1
  -6  -1  -6 53.6517  5.3711   1
   6   1  -6 57.4397  6.0784   1
   6   1   6 57.5969  6.7287   1
   6   1   6 55.1777  6.8662   2
  -1   6   6 53.4532  5.7983   1
   1  -6   6 38.2028  5.8571   1
  -1   6   6 44.4002  5.2255   4
  -6  -1   6 61.1994  8.0721   1
  -6   0  -6 166.223  11.137   1
   0   6  -6 155.375  10.733   1
   0   6   6 149.119  11.074   4
   0  -6   6 160.466  11.246   1
  -6   0   6 156.536  12.512   1
   6   0   6 171.587  12.286   1
   0   6   6 142.449  10.367   1
   1   6  -6 53.4552  5.4805   1
   6  -1  -6 38.9053  4.5297   1
  -6   1  -6 66.4821  6.8459   1
  -1  -6   6 49.8296  6.5461   1
   6  -1   6 53.0360  7.0739   1
   1   6   6 43.3520  5.7991   4
   1   6   6 59.4025  6.3271   1
  -6   1   6 56.4045  7.7090   1
   2   6  -6 803.176  38.108   1
  -6   2  -6 851.215  38.737   1
   2   6   6 754.467  41.947   4
   2   6   6 811.551  38.558   1
  -2  -6   6 833.298  38.801   1
   6  -2   6 821.385  38.996   1
  -6   2   6 792.865  39.297   1
  -6   3  -6 12.0699  5.0347   1
   3   6  -6 10.6749  4.6989   1
  -6   3   6 9.76891 4.12888   1
  -3  -6   6 13.7240  5.8067   1
   3   6   6 14.6963  5.3894   1
   6  -3   6 10.9026  5.3189   1
   4   6  -6 314.384  17.552   1
  -6   4  -6 344.701  18.339   1
   4   6   6 315.465  18.061   1
   6  -4   6 309.172  17.505   1
  -6   4   6 299.869  18.249   1
  -4  -6   6 304.983  18.376   1
   5   6  -6 62.3022  7.0872   1
  -6   5  -6 30.6340  6.4969   1
   5   6   6 32.3272  7.3192   1
  -6   5   6 40.9919  6.6492   1
  -5  -6   6 36.3431  7.1565   1
   6   6  -6 47.6604  5.9885   1
  -6   6  -6 44.4491  6.9582   1
  -6  -6   6 34.4992  7.3997   1
  -6   6   6 32.9826  6.3328   1
   6   6   6 29.2524  7.8231   1
  -6   7  -6 4.02637 5.31823   1
   7   6  -6 -0.3622  5.6141   1
   7   6   6 -3.9997  6.9183   1
  -7  -6   6 1.28465 6.19878   1
  -5   7  -6 205.934  13.151   1
   7   5  -6 197.295  13.727   1
  -7  -5   6 185.980  13.517   1
   7   5   6 169.922  14.962   1
  -4   7  -6 -0.9001  4.4799   1
   7   4  -6 3.12072 5.21316   1
   7   4   6 1.04510 6.27217   1
  -7  -4   6 4.96462 6.61885   1
  -7  -3  -6 173.113  11.520   1
   7   3  -6 164.412  11.781   1
  -3   7  -6 162.664  11.442   1
   7   3   6 160.865  12.445   1
  -7  -3   6 161.768  13.147   1
   7   2  -6 0.00680 4.61812   1
  -7  -2  -6 -0.0271  4.2237   1
  -2   7  -6 2.88226 3.11118   1
   7   2   6 -4.5534  5.9285   1
  -7  -2   6 6.44925 6.40290   1
  -1   7  -6 117.571   9.020   1
   7   1  -6 117.964   9.390   1
  -7  -1  -6 119.831   9.354   1
   7   1   6 112.443  10.525   1
  -7  -1   6 127.968  11.394   1
   7   0  -6 1.16804 3.59801   1
  -7   0  -6 1.36975 4.94600   1
   0   7  -6 -0.4092  4.1168   1
   0   7   6 6.82766 4.56850   1
   7   0   6 -2.1300  5.3682   1
  -7   0   6 -1.6955  3.9059   1
  -7   1  -6 115.778   9.629   1
   1   7  -6 130.243   9.474   1
   7  -1   6 125.517  10.385   1
   1   7   6 93.9277  8.4258   1
  -7   1   6 117.330   9.909   1
   2   7  -6 5.76215 4.67133   1
  -7   2  -6 6.96435 5.47258   1
   7  -2   6 11.0834  5.7644   1
  -7   2   6 -1.5566  5.5657   1
   2   7   6 1.53962 4.29267   1
  -7   3  -6 180.478  13.105   1
   3   7  -6 173.545  11.847   1
  -7   3   6 168.090  12.944   1
   7  -3   6 147.131  12.148   1
   3   7   6 173.311  12.421   1
  -7   4  -6 9.70835 6.00778   1
   4   7  -6 4.59887 4.99378   1
  -4  -7   6 -1.7854  5.0992   1
  -7   4   6 1.27515 5.39278   1
   4   7   6 5.31168 5.49065   1
   7  -4   6 1.14872 4.91924   1
   5   7  -6 206.946  12.877   1
  -7   5  -6 225.316  13.668   1
  -7   5   6 181.865  14.216   1
  -5  -7   6 208.672  14.240   1
   5   7   6 184.046  15.263   1
   6   7  -6 4.07968 4.07301   1
  -7   6  -6 2.23732 5.72205   1
  -6  -7   6 7.36661 5.99420   1
  -7   6   6 7.65039 5.95042   1
   6   7   6 4.51051 6.76366   1
  -7   7  -6 54.0199  7.9379   1
   7   7  -6 49.4086  6.6375   1
   7   7   6 55.6520 10.0082   1
  -7   8  -6 38.1187  7.2574   1
   8   7  -6 39.9140  6.4207   1
   8   7   6 38.1557  9.7912   1
  -6   8  -6 659.756  29.960   1
   8   6  -6 589.587  30.178   1
  -8  -6   6 526.551  30.539   1
   8   6   6 540.310  32.603   1
  -5   8  -6 8.19867 5.23739   1
   8   5  -6 -1.3526  5.8310   1
   8   5   6 -0.9999  7.4245   1
  -8  -5   6 4.10588 6.95705   1
  -4   8  -6 83.0519  8.1870   1
   8   4  -6 65.7956  8.1041   1
  -8  -4   6 66.5875  9.5905   1
   8   4   6 76.7100 10.4043   1
  -8  -3  -6 9.10316 4.61512   1
  -3   8  -6 12.3202  5.0549   1
   8   3  -6 7.24691 5.40990   1
   8   3   6 8.15057 7.02547   1
  -8  -3   6 0.27660 6.49238   1
  -8  -2  -6 -0.6488  4.6127   1
  -2   8  -6 -0.8242  3.1629   1
   8   2  -6 5.33835 4.76148   1
   8   2   6 4.93319 6.15821   1
  -8  -2   6 -2.9598  6.1325   1
  -8  -1  -6 65.6115  7.6987   1
   8   1  -6 62.6146  6.9255   1
  -1   8  -6 69.8932  7.3080   1
   8   1   6 70.0597  8.0509   1
  -8  -1   6 76.8899  9.6262   1
   0   8  -6 831.068  39.753   1
  -8   0  -6 857.597  40.607   1
  -8   0   6 813.870  41.174   1
   8   0   6 862.622  41.393   1
  -8   1  -6 72.0839  8.5833   1
   1   8  -6 67.7114  7.4314   1
  -8   1   6 70.5734  9.3821   1
   8  -1   6 73.1947  8.6344   1
  -8   2  -6 4.45018 5.91580   1
   2   8  -6 -4.6857  4.4290   1
  -8   2   6 -0.2486  5.9355   1
   8  -2   6 0.83292 5.56148   1
   3   8  -6 9.63014 5.16088   1
  -8   3  -6 13.7591  6.5910   1
   8  -3   6 7.70974 5.58782   1
   3   8   6 18.8555  5.6490   1
  -8   3   6 10.3869  4.8958   1
   4   8  -6 52.3936  7.2676   1
  -8   4  -6 63.0273  8.9700   1
   4   8   6 69.7102  8.4243   1
  -8   4   6 57.5077  8.3892   1
  -8   5  -6 2.62461 4.56208   1
   5   8  -6 8.46992 5.67493   1
   5   8   6 -1.5861  5.9160   1
  -8   5   6 1.59140 5.90691   1
  -8   6  -6 636.256  31.828   1
   6   8  -6 602.962  30.968   1
   6   8   6 580.268  32.905   1
  -8   7  -6 52.5626  8.2161   1
   7   8  -6 45.4852  7.8716   1
   7   8   6 21.0488  8.6480   1
  -8   8  -6 18.7081  6.8196   1
   8   8   6 6.54142 8.19498   1
  -7   9  -6 65.1455  8.4279   1
  -6   9  -6 2.30340 5.60806   1
   9   6  -6 5.02351 6.30646   1
   9   6   6 -0.6880  5.9156   1
  -9  -6   6 -2.5352  7.0422   1
   9   5  -6 22.9189  6.9506   1
  -5   9  -6 16.1495  5.8565   1
   9   5   6 5.47774 8.55586   1
  -9  -5   6 22.0379  8.1687   1
   9   4  -6 85.4368  8.9950   1
  -4   9  -6 84.6660  8.3669   1
  -9  -4   6 71.2978 10.2517   1
   9   4   6 78.8525 10.9818   1
  -3   9  -6 937.318  43.934   1
   9   3  -6 933.748  44.493   1
  -9  -3   6 867.277  46.151   1
   9   3   6 1015.94   47.15   1
  -9  -2  -6 39.2105  6.5798   1
  -2   9  -6 53.3521  6.7513   1
   9   2  -6 48.7754  6.8627   1
   9   2   6 49.0474  8.8707   1
  -9  -2   6 52.2215  9.1758   1
   9   1  -6 -12.052   4.256   1
  -1   9  -6 -0.0907  4.6748   1
  -9  -1  -6 5.40450 5.94165   1
  -9  -1   6 0.21306 4.84505   1
   9   1   6 4.48781 6.65853   1
   0   9  -6 -2.4812  4.7934   1
  -9   0  -6 1.07883 6.11979   1
   9   0   6 -5.3711  6.2477   1
  -9   0   6 -2.6239  4.4396   1
  -9   1  -6 0.74234 4.66222   1
   1   9  -6 5.07921 4.91534   1
   9  -1   6 1.92806 6.13642   1
  -9   1   6 -3.9579  6.4082   1
  -9   2  -6 53.2184  8.6565   1
   2   9  -6 55.7334  7.1954   1
   9  -2   6 45.7627  7.7243   1
  -9   2   6 46.1668  8.5714   1
   3   9  -6 939.228  44.997   1
  -9   3  -6 972.857  46.864   1
  -9   3   6 940.742  46.672   1
   9  -3   6 949.522  45.136   1
   4   9  -6 83.6450  8.0811   1
  -9   4  -6 84.2850 10.3634   1
  -9   4   6 98.9882 10.7341   1
   5   9  -6 17.1169  6.5421   1
  -9   5  -6 17.2375  7.4608   1
  -9   5   6 21.4731  7.2151   1
  -9   6  -6 0.44448 5.02087   1
   6   9  -6 -0.5258  6.1425   1
   6   9   6 7.84036 7.21103   1
  -9   7  -6 89.0326  8.9686   1
   7   9   6 48.6814 10.1614   1
 -10  -6   6 22.2937  8.2494   1
  -5  10  -6 3.17120 5.51662   1
  10   5  -6 -0.8698  6.3121   1
  10   5   6 5.39030 8.67560   1
 -10  -5   6 1.93965 7.45321   1
  -4  10  -6 148.012  10.936   1
 -10  -4   6 95.0335 12.0137   1
  10   4   6 113.473  11.676   1
  10   3  -6 27.1364  6.7914   1
  -3  10  -6 27.1576  6.2448   1
  10   3   6 38.7437  9.2455   1
 -10  -3   6 24.2468  8.5953   1
  -2  10  -6 145.601  11.079   1
 -10  -2  -6 107.688  10.028   1
  10   2   6 118.054  11.979   1
 -10  -2   6 110.819  11.128   1
  -1  10  -6 12.2921  5.4523   1
 -10  -1  -6 8.12062 6.61364   1
  10   1   6 15.1622  7.5122   1
 -10  -1   6 3.98329 7.58601   1
 -10   0  -6 48.9116  8.8391   1
   0  10  -6 52.6791  6.9923   1
  10   0   6 51.3973  8.7877   1
 -10   0   6 48.8033  9.4634   1
 -10   1  -6 2.89842 7.19260   1
   1  10  -6 2.42685 5.23907   1
  10  -1   6 -1.8680  6.4521   1
 -10   1   6 5.23191 7.40388   1
 -10   2  -6 100.524  12.007   1
   2  10  -6 129.632  10.282   1
 -10   2   6 114.866  11.917   1
  10  -2   6 113.229  10.606   1
 -10   3  -6 16.2743  7.9308   1
   3  10  -6 25.2121  6.4378   1
 -10   3   6 43.0681  8.9340   1
   4  10  -6 121.165  10.654   1
 -10   4  -6 111.711  12.507   1
 -10   4   6 138.254  13.184   1
   5  10  -6 5.07586 6.21613   1
 -10   5  -6 -0.7537  5.2098   1
 -10   5   6 -0.1376  6.7506   1
  11   3  -6 91.6794  9.7606   1
  -3  11  -6 100.168   9.507   1
 -11  -2  -6 67.3242  8.7995   1
  -2  11  -6 74.7420  8.2849   1
  11   2   6 62.9623 10.4742   1
 -11  -2   6 58.1524 10.2132   1
  -1  11  -6 361.628  19.762   1
 -11  -1  -6 367.823  21.485   1
  11   1   6 323.924  21.967   1
 -11  -1   6 314.392  22.496   1
   0  11  -6 -3.9971  5.1124   1
 -11   0  -6 3.96400 5.42611   1
  11   0   6 -1.6554  6.9143   1
 -11   0   6 -9.8418  7.3040   1
   1  11  -6 312.322  17.641   1
 -11   1  -6 341.134  21.604   1
  11  -1   6 316.159  19.998   1
 -11   1   6 296.465  19.774   1
 -11   2  -6 58.8134 10.4441   1
   2  11  -6 68.0790  8.0773   1
 -11   2   6 60.4861 10.0938   1
   3  11  -6 108.701  10.460   1
 -11   3   6 122.810  13.205   1
   0   0  -7 0.96202 3.78080   1
   0   0   7 1.32528 4.75620   1
   1   0  -7 1.08172 3.69291   1
   0   1  -7 -2.5165  3.7536   1
   0  -1  -7 2.54971 3.62486   1
  -1   0  -7 -3.1358  3.7771   1
   1   0   7 5.58819 4.80292   1
  -1   0   7 0.84235 4.81317   1
   0   1   7 1.93401 4.80980   1
   0  -1   7 0.38931 5.00684   1
  -1   1  -7 1.03852 2.85648   1
  -1  -1  -7 2.64314 3.66556   1
   1   1  -7 -1.6847  3.7575   1
   1  -1  -7 1.11026 3.31412   1
   1  -1   7 3.89269 4.95948   1
  -1   1   7 -1.8520  4.4338   1
  -1  -1   7 0.74555 4.65711   1
   1   1   7 -0.9335  4.7756   1
  -2  -1  -7 561.852  27.732   1
  -1   2  -7 606.641  28.093   1
   2   1  -7 584.482  28.099   1
  -2  -1   7 572.089  28.872   1
   1  -2   7 605.946  29.484   1
   2   1   7 580.034  29.473   1
  -1   2   7 584.571  28.824   1
   2   0  -7 -1.0305  3.6263   1
   0   2  -7 2.46804 2.99821   1
  -2   0  -7 -0.0133  3.8608   1
   0  -2  -7 -1.5864  3.6094   1
   2   0   7 4.45507 5.04934   1
   0  -2   7 3.61617 3.42456   1
  -2   0   7 4.77938 3.58240   1
   0   2   7 -4.5532  4.3431   1
  -2   1  -7 594.400  28.512   1
   2  -1  -7 569.145  27.748   1
   1   2  -7 614.761  28.660   1
  -2   1   7 613.960  29.668   1
  -1  -2   7 592.303  29.623   1
   1   2   7 559.065  29.502   1
   2  -1   7 605.587  29.866   1
   2   2  -7 0.92873 4.13413   1
  -2  -2  -7 2.92817 3.46404   1
  -2   2  -7 1.75658 4.15432   1
  -2   2   7 1.61475 3.35209   1
   2  -2   7 -0.6200  5.1043   1
   2   2   7 6.25102 5.16745   1
  -3  -2  -7 29.3576  4.4853   1
  -2   3  -7 26.8540  5.3392   1
   3   2  -7 31.5285  5.5140   1
  -2   3   7 31.3057  5.9465   1
   2  -3   7 18.4165  5.8225   1
   3   2   7 19.5511  6.0592   1
  -3  -2   7 27.1776  6.7615   1
   3   1  -7 3.24031 4.08239   1
  -1   3  -7 1.76380 4.38477   1
  -3  -1  -7 4.78189 3.86084   1
   3   1   7 -5.9701  4.8639   1
  -1   3   7 0.08520 4.59803   1
   1  -3   7 6.36263 5.40015   1
  -3   0  -7 0.13058 4.05794   1
   3   0  -7 2.38004 3.80288   1
   0   3  -7 1.07543 4.17370   1
   3   0   7 4.66323 5.42238   1
   0  -3   7 1.88273 5.02705   1
   0   3   7 -5.8782  4.3561   1
   1   3  -7 0.95053 4.24828   1
   3  -1  -7 -0.9783  3.1249   1
  -3   1  -7 5.52095 4.37754   1
   1   3   7 6.44981 4.85755   1
  -3   1   7 5.12486 4.88567   1
   3  -1   7 -3.0451  4.9029   1
   2   3  -7 22.2009  5.2223   1
  -3   2  -7 27.9219  5.4939   1
  -3   2   7 24.8885  5.6039   1
   3  -2   7 31.6908  5.3286   1
  -2  -3   7 24.2114  6.5885   1
   2   3   7 23.6112  4.9189   1
  -3   3  -7 -2.2252  4.5226   1
   3   3  -7 2.60138 4.65343   1
  -3  -3   7 -3.2411  3.8051   1
   3  -3   7 -6.0888  5.2289   1
   3   3   7 -1.8880  4.8926   1
  -3   3   7 3.81177 4.65155   1
  -3   4  -7 28.1068  5.7082   1
   4   3  -7 32.9886  4.8365   1
   4   3   7 27.3832  6.5818   1
  -3   4   7 24.9694  5.6238   1
  -4  -3   7 28.6099  7.6611   1
   3  -4   7 43.5167  6.7216   1
  -4  -2  -7 6.87675 3.96374   1
   4   2  -7 10.2624  4.7441   1
  -2   4  -7 10.4095  4.7933   1
   2  -4   7 9.22608 5.16590   1
   4   2   7 6.73830 5.66525   1
  -2   4   7 8.84678 4.91646   1
  -4  -2   7 6.00453 5.81544   1
  -4  -1  -7 784.396  37.002   1
   4   1  -7 800.668  37.179   1
  -1   4  -7 831.945  37.702   1
   4   1   7 806.718  38.871   1
  -1   4   7 758.178  37.982   1
  -4  -1   7 760.711  39.061   1
   1  -4   7 805.353  38.201   1
   4   0  -7 23.7158  4.5307   1
  -4   0  -7 38.2756  5.5002   1
   0   4  -7 19.1541  4.2369   1
   0   4   7 37.9568  6.0062   1
   4   0   7 30.2434  6.6006   1
  -4   0   7 28.7460  5.5840   1
   1   4  -7 830.590  38.884   1
  -4   1  -7 860.962  39.112   1
   1   4   7 827.840  39.837   1
   4  -1   7 837.838  39.909   1
  -1  -4   7 783.573  40.209   1
  -4   2  -7 3.21164 4.77311   1
   2   4  -7 9.48747 3.74828   1
   2   4   7 3.17810 5.14829   1
   4  -2   7 7.15132 5.75901   1
  -2  -4   7 15.5928  4.8243   1
  -4   3  -7 24.9635  5.7285   1
   3   4  -7 33.7668  6.0315   1
  -4   3   7 25.1762  5.9007   1
  -3  -4   7 21.0946  6.7935   1
   4  -3   7 29.0987  6.7530   1
   3   4   7 29.9523  5.3571   1
  -4   4  -7 -2.2903  4.8235   1
   4   4  -7 7.00531 5.15578   1
  -4  -4   7 6.13837 6.58172   1
   4   4   7 -0.4963  5.6294   1
   4  -4   7 5.37835 5.47162   1
  -4   4   7 -7.6235  4.5390   1
   5   4  -7 282.451  17.066   1
  -4   5  -7 297.297  17.329   1
  -5  -4   7 278.869  18.965   1
  -4   5   7 300.349  17.192   1
   5   4   7 309.558  19.250   1
   4  -5   7 288.499  16.905   1
   5   3  -7 32.8193  6.0681   1
  -3   5  -7 42.3974  6.3365   1
  -5  -3   7 32.2058  6.4289   1
   5   3   7 38.1109  7.5984   1
  -3   5   7 30.0979  5.8354   1
   5   2  -7 166.801  11.429   1
  -2   5  -7 149.679  11.814   1
  -5  -2   7 167.540  13.225   1
  -2   5   7 179.464  12.180   1
   5   2   7 176.052  12.466   1
   5   1  -7 11.8679  4.6881   1
  -5  -1  -7 9.87742 4.55475   1
  -1   5  -7 13.9682  5.1008   1
  -5  -1   7 16.0343  6.4549   1
   1  -5   7 12.0111  5.9109   1
  -1   5   7 11.4500  5.0098   1
   5   1   7 5.70965 6.03428   1
   0   5  -7 -2.8428  2.9695   1
   5   0  -7 -2.7882  3.5473   1
  -5   0  -7 -5.4076  4.3069   1
   0   5   7 1.58132 4.54963   1
   0  -5   7 -1.5744  5.4540   1
   5   0   7 -5.1083  5.4857   1
  -5   0   7 2.17476 4.27880   1
   1   5  -7 15.1304  5.2812   1
  -5   1  -7 11.6882  5.2989   1
  -1  -5   7 8.56369 5.93865   1
   1   5   7 11.0715  5.2076   1
   5  -1   7 12.2154  6.2096   1
  -5   1   7 16.8214  6.4706   1
   2   5  -7 170.261  11.740   1
  -5   2  -7 165.389  12.022   1
  -2  -5   7 178.978  12.890   1
   2   5   7 154.472  12.051   1
  -5   2   7 162.908  12.845   1
   5  -2   7 147.238  12.160   1
   3   5  -7 32.7041  6.2273   1
  -5   3  -7 43.2426  6.7615   1
   5  -3   7 36.6811  7.3157   1
  -3  -5   7 39.2618  7.4836   1
   3   5   7 27.2953  5.5652   1
  -5   3   7 45.7574  7.5501   1
  -5   4  -7 303.281  17.875   1
   4   5  -7 286.222  17.467   1
  -4  -5   7 292.635  18.900   1
   5  -4   7 314.568  17.875   1
   4   5   7 303.437  18.894   1
   5   5  -7 -1.0301  3.8167   1
  -5   5  -7 -3.3473  5.2868   1
   5  -5   7 -5.4662  4.7977   1
  -5  -5   7 0.32728 6.50153   1
   5   5   7 3.99939 6.48512   1
   6   5  -7 58.6839  6.7655   1
  -5   6  -7 53.7787  7.7057   1
  -6  -5   7 42.9351  8.5528   1
   6   5   7 64.2899  9.8559   1
  -4   6  -7 -1.4595  3.6914   1
   6   4  -7 -2.4444  5.3857   1
   6   4   7 3.35269 7.04986   1
  -6  -4   7 3.59457 6.66224   1
  -4   6   7 -2.6320  4.6432   1
   6   3  -7 5.18409 5.20231   1
  -3   6  -7 7.07194 4.04290   1
   6   3   7 4.92221 6.75790   1
  -6  -3   7 1.97411 6.89581   1
  -3   6   7 10.2662  4.8209   1
  -6  -2  -7 13.2705  4.6314   1
   6   2  -7 8.17796 5.20835   1
  -2   6  -7 12.2862  5.5177   1
  -6  -2   7 17.3888  7.2484   1
   6   2   7 18.5732  5.5310   1
  -2   6   7 11.2985  4.9916   1
  -6  -1  -7 101.641   8.126   1
   6   1  -7 90.1489  7.7956   1
  -1   6  -7 98.8094  8.5899   1
   6   1   7 87.8823  9.6930   1
   1  -6   7 67.0535  8.0816   1
  -6  -1   7 105.562  10.592   1
  -1   6   7 115.238   9.287   1
   0   6  -7 24.5935  5.6155   1
  -6   0  -7 16.6145  5.5978   1
   6   0  -7 12.2182  4.3910   1
   0   6   7 18.1544  5.3642   1
   0  -6   7 12.8323  5.7165   1
   6   0   7 31.3862  7.0924   1
  -6   0   7 34.0306  7.4167   1
  -6   1  -7 107.170   9.286   1
   1   6  -7 98.3629  8.1656   1
   1   6   7 103.507   9.112   1
  -6   1   7 82.4304  9.8895   1
   6  -1   7 93.8329  9.7819   1
   2   6  -7 17.7010  5.6196   1
  -6   2  -7 18.4692  4.8674   1
   2   6   7 13.3539  5.6154   1
  -6   2   7 12.1916  6.4908   1
  -2  -6   7 11.1472  6.0706   1
   6  -2   7 12.8621  6.3351   1
   3   6  -7 11.6741  5.6306   1
  -6   3  -7 4.10807 5.88186   1
  -6   3   7 2.15440 5.78377   1
   3   6   7 -4.3715  5.2947   1
  -3  -6   7 13.3578  6.5289   1
   6  -3   7 3.30339 5.71844   1
  -6   4  -7 4.40266 4.38751   1
   4   6  -7 7.27710 5.55243   1
   6  -4   7 1.37399 5.59226   1
  -6   4   7 1.36964 5.85679   1
   4   6   7 6.71258 6.27272   1
  -4  -6   7 -5.9179  5.9500   1
   5   6  -7 45.7130  7.3744   1
  -6   5  -7 63.0287  8.1606   1
   5   6   7 50.0219  8.7032   1
  -6   5   7 42.8023  7.7406   1
  -5  -6   7 48.3914  8.1682   1
   6   6  -7 6.90228 6.11511   1
  -6   6  -7 -4.2863  5.9356   1
  -6   6   7 0.25222 5.95888   1
   6   6   7 -6.0113  7.1864   1
  -6  -6   7 9.47949 6.75929   1
   7   6  -7 60.9221  8.5013   1
  -6   7  -7 78.9131  9.0500   1
  -7  -6   7 71.4753  9.6027   1
   7   6   7 66.6210 11.2531   1
   7   5  -7 57.3656  6.8585   1
  -5   7  -7 45.6284  6.4191   1
  -7  -5   7 33.8264  8.5185   1
   7   5   7 39.7938  8.0222   1
   7   4  -7 458.061  23.903   1
  -4   7  -7 443.599  23.866   1
   7   4   7 456.611  25.525   1
  -7  -4   7 424.113  25.726   1
  -3   7  -7 49.2637  7.0740   1
   7   3  -7 37.2643  6.6959   1
  -7  -3   7 53.4938  9.1282   1
   7   3   7 48.0960  7.5089   1
  -2   7  -7 333.619  18.125   1
   7   2  -7 300.676  17.383   1
  -7  -2  -7 297.523  17.045   1
   7   2   7 323.545  20.152   1
  -7  -2   7 298.214  20.216   1
   7   1  -7 -2.8403  4.5912   1
  -1   7  -7 12.0948  5.4096   1
  -7  -1  -7 3.60329 5.24501   1
   7   1   7 8.76447 6.75842   1
  -7  -1   7 2.81192 5.00243   1
   0   7  -7 7.61034 5.18574   1
  -7   0  -7 3.62585 4.06692   1
   7   0   7 13.7618  5.1733   1
   0   7   7 0.96605 4.55531   1
  -7   0   7 -0.5827  6.6605   1
   1   7  -7 5.93979 5.19745   1
  -7   1  -7 5.63873 6.04726   1
  -7   1   7 0.44603 6.43949   1
   1   7   7 9.92999 5.06466   1
   7  -1   7 16.2799  6.7836   1
   2   7  -7 328.082  18.580   1
  -7   2  -7 329.709  19.573   1
   2   7   7 326.155  19.057   1
   7  -2   7 311.113  19.576   1
  -7   2   7 320.109  19.302   1
  -7   3  -7 44.8468  8.0058   1
   3   7  -7 52.0439  6.2695   1
   3   7   7 40.2608  7.3651   1
  -7   3   7 61.6832  9.1500   1
  -7   4  -7 487.158  25.834   1
   4   7  -7 482.166  24.186   1
  -7   4   7 474.476  26.113   1
   7  -4   7 432.372  24.844   1
   4   7   7 440.890  25.808   1
  -7   5  -7 41.5943  6.6125   1
   5   7  -7 46.3457  7.5606   1
   5   7   7 48.2020  9.1182   1
  -7   5   7 45.1563  8.1405   1
   6   7  -7 80.0300  9.3276   1
  -7   6  -7 87.2709  9.9026   1
   6   7   7 103.817  12.304   1
  -7   7  -7 -5.5720  6.2468   1
   7   7  -7 5.64211 6.70064   1
   7   7   7 -9.0519  5.3893   1
  -6   8  -7 13.4472  6.6140   1
   8   6  -7 11.1225  6.7515   1
  -8  -6   7 3.52261 7.50829   1
   8   6   7 15.7016  9.3694   1
  -5   8  -7 38.2513  7.2594   1
   8   5  -7 40.6689  7.8555   1
  -8  -5   7 38.0151  8.8633   1
   8   5   7 35.7307 10.0230   1
  -4   8  -7 12.0865  6.1430   1
   8   4  -7 20.4971  6.5569   1
  -8  -4   7 12.9258  7.6921   1
   8   4   7 2.26966 8.21160   1
   8   3  -7 2.45082 5.98973   1
  -3   8  -7 1.29688 5.68021   1
  -8  -3   7 1.73149 7.30183   1
   8   3   7 -6.4054  7.4392   1
   8   2  -7 3.43361 5.29953   1
  -8  -2  -7 -0.3551  5.0512   1
  -2   8  -7 1.34111 5.33301   1
   8   2   7 -3.7306  6.9425   1
  -8  -2   7 0.65515 7.13977   1
  -8  -1  -7 140.751  10.863   1
  -1   8  -7 134.975  10.067   1
   8   1   7 139.884  12.565   1
  -8  -1   7 110.236  12.105   1
  -8   0  -7 17.2465  6.6525   1
   0   8  -7 19.9585  6.0333   1
   8   0   7 16.9735  7.2310   1
  -8   0   7 5.55397 7.57717   1
  -8   1  -7 130.278  11.496   1
   1   8  -7 125.661   9.803   1
  -8   1   7 117.433  12.224   1
   8  -1   7 128.047  11.613   1
   2   8  -7 1.73683 5.49112   1
  -8   2  -7 -9.5638  6.4664   1
   8  -2   7 -9.7089  5.7552   1
  -8   2   7 2.01086 6.78618   1
  -8   3  -7 3.46416 7.01258   1
   3   8  -7 2.94663 5.77008   1
   8  -3   7 8.73333 6.26520   1
  -8   3   7 2.36235 6.84408   1
   3   8   7 1.98959 5.76162   1
   4   8  -7 14.4549  6.6474   1
  -8   4  -7 9.63221 7.47841   1
   4   8   7 23.1982  7.2989   1
  -8   4   7 24.3033  7.6891   1
  -8   5  -7 38.4829  8.4401   1
   5   8  -7 41.4229  7.6694   1
   5   8   7 41.7887  8.8959   1
  -8   5   7 28.5581  8.0029   1
   6   8  -7 12.2634  5.0925   1
  -8   6  -7 20.8389  7.5962   1
   6   8   7 6.33565 7.84640   1
   9   4  -7 76.9324  9.1589   1
  -4   9  -7 115.895   9.136   1
   9   4   7 80.3213 11.9940   1
  -9  -4   7 86.1650  9.9594   1
   9   3  -7 10.2789  6.0519   1
  -3   9  -7 9.11162 5.92866   1
  -9  -3   7 1.92769 7.37521   1
   9   3   7 0.23572 8.33632   1
  -9  -2  -7 164.403  12.546   1
  -2   9  -7 123.102  10.654   1
   9   2   7 115.814  12.983   1
  -9  -2   7 126.847  12.575   1
  -1   9  -7 2.52402 5.55696   1
  -9  -1  -7 -1.1671  6.1605   1
   9   1   7 3.34270 7.72080   1
  -9  -1   7 8.02634 7.68213   1
   0   9  -7 -1.6471  5.4432   1
  -9   0  -7 -9.8250  6.0542   1
   9   0   7 4.80927 7.04765   1
  -9   0   7 -14.306   7.047   1
   1   9  -7 5.98494 4.22165   1
  -9   1  -7 -1.3319  6.8183   1
   9  -1   7 -3.0415  6.8368   1
  -9   1   7 -4.0911  7.2371   1
  -9   2  -7 122.473  11.055   1
   2   9  -7 138.415  11.069   1
   9  -2   7 119.770  11.314   1
  -9   2   7 117.710  12.643   1
   3   9  -7 5.35361 6.03555   1
  -9   3  -7 23.1936  6.4731   1
  -9   3   7 4.73856 7.45799   1
  -9   4  -7 109.671  10.961   1
   4   9  -7 103.133   9.269   1
  -9   4   7 95.6486 11.3372   1
 -10  -1  -7 251.102  16.667   1
  -1  10  -7 224.489  15.720   1
 -10   0  -7 67.7728  9.6704   1
   0  10  -7 87.1239  9.1135   1
  10   0   7 99.8204 10.8174   1
 -10   1  -7 259.670  16.924   1
  10  -1   7 238.851  17.962   1
  10  -2   7 15.0415  7.2091   1
   0   0   8 2429.57  109.44   1
   0  -1  -8 -1.6440  4.7448   1
   1   0  -8 3.75631 4.34206   1
  -1   0  -8 -4.4771  4.4487   1
   0   1  -8 2.42996 3.37852   1
  -1   0   8 10.0215  5.9376   1
   0  -1   8 0.58080 5.81856   1
   0   1   8 -2.2689  5.5262   1
   1   0   8 -1.5735  4.1399   1
   1   1  -8 107.163   8.526   1
  -1  -1  -8 85.9268  7.3101   1
  -1   1  -8 96.7567  8.4432   1
  -1  -1   8 83.9737  8.3743   1
  -1   1   8 93.3365  9.4582   1
   1  -1   8 88.5129  9.6154   1
   1   1   8 85.1266  9.4789   1
   2   1  -8 11.1208  4.7771   1
  -2  -1  -8 0.11121 4.41351   1
  -1   2  -8 5.04699 5.00143   1
   2   1   8 6.44205 6.29200   1
   1  -2   8 0.01740 4.33718   1
  -1   2   8 6.95240 5.87468   1
   0   2  -8 59.7759  7.0937   1
   2   0  -8 63.3132  7.1346   1
  -2   0  -8 71.0873  7.6912   1
   2   0   8 65.5557  7.6123   1
   0  -2   8 72.2882  8.9367   1
  -2   0   8 62.5137  8.3488   1
   0   2   8 61.7627  7.3508   1
  -2   1  -8 1.15936 4.62606   1
   1   2  -8 4.65429 4.84822   1
   1   2   8 6.85312 5.87070   1
  -2   1   8 4.83216 5.86459   1
   2  -1   8 8.10340 4.57211   1
   2   2  -8 545.462  27.551   1
  -2   2  -8 542.175  27.694   1
   2   2   8 569.576  29.446   1
  -2   2   8 545.893  28.330   1
   2  -2   8 588.113  29.500   1
   3   2  -8 3.11559 5.11108   1
  -2   3  -8 -0.4145  5.2627   1
  -2   3   8 -0.4420  5.2746   1
   3   2   8 4.57524 6.26048   1
  -3  -2   8 -8.5404  6.3819   1
   2  -3   8 8.13288 6.51205   1
  -1   3  -8 413.210  21.437   1
  -3  -1  -8 389.419  20.318   1
   3   1  -8 382.745  20.649   1
  -3  -1   8 404.498  23.620   1
   1  -3   8 404.060  22.654   1
   3   1   8 374.721  22.663   1
  -1   3   8 419.021  22.478   1
   3   0  -8 -0.2867  4.0687   1
   0   3  -8 2.42102 5.10729   1
  -3   0  -8 1.64113 4.55807   1
   3   0   8 -1.9515  6.0249   1
   0   3   8 -2.5615  5.4441   1
  -3   1  -8 384.644  21.196   1
   1   3  -8 410.438  21.664   1
   1   3   8 406.231  22.865   1
   3  -1   8 422.789  23.408   1
   2   3  -8 1.59436 5.32003   1
  -3   2  -8 -2.2092  5.1745   1
  -3   2   8 9.10067 5.94036   1
   3  -2   8 -3.4362  6.1800   1
   2   3   8 3.11613 6.02892   1
  -2  -3   8 3.20030 6.74476   1
   3   3  -8 84.7849  8.2561   1
  -3   3  -8 86.0042  7.7007   1
   3  -3   8 73.9894  9.2769   1
  -3   3   8 94.2212  9.4075   1
  -3  -3   8 66.1159  9.7851   1
   3   3   8 68.9097  8.2013   1
   4   3  -8 1.16719 5.51698   1
  -3   4  -8 8.02971 5.84764   1
   4   3   8 -5.8124  6.5453   1
  -4  -3   8 0.48188 5.17061   1
  -3   4   8 -1.9521  5.5372   1
   3  -4   8 4.40222 4.41990   1
  -2   4  -8 241.736  14.715   1
   4   2  -8 234.726  15.065   1
  -2   4   8 254.517  16.420   1
   4   2   8 276.835  17.913   1
   2  -4   8 259.944  16.580   1
  -4  -2   8 249.798  17.994   1
  -4  -1  -8 9.26828 5.88427   1
   4   1  -8 16.8032  5.1869   1
  -1   4  -8 15.8619  5.7962   1
  -1   4   8 14.0255  6.0779   1
  -4  -1   8 16.2133  7.1864   1
   4   1   8 20.4213  7.1602   1
  -4   0  -8 1.13018 4.74421   1
   0   4  -8 -8.5236  4.9255   1
   4   0   8 3.87206 4.68311   1
   0   4   8 -1.9747  3.7639   1
  -4   0   8 4.27196 4.68942   1
   0  -4   8 11.2315  7.0360   1
   1   4  -8 18.4730  5.9883   1
  -4   1  -8 14.8718  5.7302   1
  -1  -4   8 17.5499  7.2862   1
   1   4   8 19.3452  6.4581   1
  -4   1   8 9.00488 6.90961   1
   4  -1   8 19.5005  5.6081   1
   2   4  -8 227.257  15.291   1
  -4   2  -8 255.040  15.401   1
   4  -2   8 240.250  17.041   1
  -2  -4   8 240.112  17.412   1
   2   4   8 238.401  16.456   1
  -4   3  -8 2.67495 4.14651   1
   3   4  -8 7.14852 4.20135   1
  -3  -4   8 2.95245 4.99278   1
   4  -3   8 3.88998 6.55691   1
   3   4   8 8.54178 4.92811   1
  -4   4  -8 222.971  13.736   1
   4   4  -8 197.250  14.409   1
  -4  -4   8 224.380  17.009   1
   4   4   8 216.376  16.653   1
   4  -4   8 206.257  15.208   1
   5   4  -8 40.9309  7.4204   1
  -4   5  -8 54.3432  7.8780   1
   5   4   8 42.2604  9.1353   1
  -5  -4   8 34.6821  9.0696   1
  -3   5  -8 770.872  35.414   1
   5   3  -8 734.662  35.254   1
  -5  -3   8 716.252  37.478   1
   5   3   8 688.894  37.395   1
  -3   5   8 688.873  35.861   1
  -2   5  -8 1.68339 3.94047   1
   5   2  -8 0.71462 5.24255   1
  -5  -2   8 1.51253 7.31813   1
   5   2   8 9.31218 7.31007   1
  -2   5   8 -4.2293  5.5438   1
   2  -5   8 2.68935 6.54562   1
  -1   5  -8 6.64766 5.80371   1
   5   1  -8 6.38632 4.98789   1
  -5  -1  -8 5.65369 4.93146   1
  -5  -1   8 5.55997 5.36218   1
   1  -5   8 0.78173 6.47423   1
  -1   5   8 8.81556 5.89922   1
   5   1   8 9.85330 6.88152   1
   0   5  -8 1.25223 5.52710   1
  -5   0  -8 0.72360 5.09655   1
   5   0   8 -2.9704  4.5366   1
  -5   0   8 1.32850 6.91147   1
   0   5   8 -2.4528  5.3870   1
   0  -5   8 3.46009 6.52453   1
   1   5  -8 7.81595 5.52177   1
  -5   1  -8 12.3570  5.7915   1
  -1  -5   8 -4.8817  6.5324   1
   5  -1   8 4.95384 4.92206   1
   1   5   8 9.32035 4.54694   1
  -5   1   8 6.29439 7.18248   1
  -5   2  -8 -3.3017  5.5477   1
   2   5  -8 6.91663 6.15810   1
  -5   2   8 -5.5065  6.5736   1
   2   5   8 11.6933  6.5682   1
   5  -2   8 1.25418 6.81865   1
  -2  -5   8 2.02503 6.74111   1
  -5   3  -8 771.363  36.181   1
   3   5  -8 765.910  35.930   1
  -5   3   8 680.886  37.239   1
  -3  -5   8 744.635  37.222   1
   3   5   8 699.127  37.032   1
   5  -3   8 688.638  36.258   1
   4   5  -8 44.4853  7.6383   1
  -5   4  -8 37.8187  7.7108   1
  -4  -5   8 34.6106  8.7260   1
  -5   4   8 48.0750  8.9964   1
   5  -4   8 41.2553  7.6758   1
   4   5   8 47.4676  8.9045   1
  -5   5  -8 -4.9640  6.1344   1
   5   5  -8 5.88526 6.32142   1
  -5   5   8 16.0997  7.2929   1
   5   5   8 0.85257 7.29190   1
  -5  -5   8 -0.7716  7.1637   1
  -5   6  -8 53.0447  7.1410   1
   6   5  -8 40.5532  7.8118   1
   6   5   8 52.1098 10.0657   1
  -5   6   8 53.1449  9.3614   1
  -6  -5   8 53.9815  9.7224   1
  -4   6  -8 20.8920  7.0267   1
   6   4  -8 39.0014  7.3312   1
   6   4   8 18.2046  8.4803   1
  -6  -4   8 23.7688  8.4647   1
  -3   6  -8 -1.3180  6.0218   1
   6   3  -8 5.09232 5.78330   1
   6   3   8 2.27839 7.54718   1
  -3   6   8 3.54605 5.47690   1
  -6  -3   8 -11.393   7.460   1
   6   2  -8 12.6516  5.6430   1
  -2   6  -8 20.8171  6.5978   1
   6   2   8 27.2601  8.3070   1
  -6  -2   8 18.0219  8.2442   1
  -2   6   8 12.7293  6.0165   1
  -1   6  -8 85.6465  8.8236   1
  -6  -1  -8 59.5130  7.4393   1
   6   1   8 72.3445 10.2502   1
  -6  -1   8 65.1406 10.0413   1
  -1   6   8 60.2680  8.2907   1
   0   6  -8 1158.14   53.08   1
  -6   0  -8 1111.87   52.49   1
   6   0   8 1158.66   54.42   1
  -6   0   8 1145.18   55.01   1
   0   6   8 1073.25   53.31   1
  -6   1  -8 72.0422  8.4034   1
   1   6  -8 64.7909  8.1878   1
   1   6   8 72.6686  8.8847   1
  -6   1   8 78.1782 10.4969   1
   6  -1   8 50.6529  9.1490   1
  -1  -6   8 67.1867  8.9654   1
   2   6  -8 13.8506  6.2304   1
  -6   2  -8 13.3896  6.8206   1
   2   6   8 18.9284  7.0743   1
  -6   2   8 12.7462  7.5616   1
  -2  -6   8 16.8354  7.2023   1
   6  -2   8 10.7876  7.4881   1
  -6   3  -8 3.04190 4.71306   1
   3   6  -8 1.10175 5.88953   1
  -3  -6   8 -5.0070  6.7737   1
   6  -3   8 4.98344 6.71698   1
   3   6   8 11.6767  6.8504   1
  -6   3   8 3.81329 5.13195   1
   4   6  -8 27.0083  7.0488   1
  -6   4  -8 56.1112  8.5134   1
   4   6   8 41.5794  8.7890   1
   6  -4   8 27.1176  7.2410   1
  -4  -6   8 32.6748  7.9469   1
  -6   4   8 31.7722  8.1853   1
   5   6  -8 39.8650  6.4853   1
  -6   5  -8 51.4915  8.8466   1
   5   6   8 70.8243  9.0872   1
  -5  -6   8 41.1522  8.7209   1
  -6   5   8 60.5316  9.4668   1
   7   4  -8 18.4687  6.5989   1
  -4   7  -8 15.1259  6.7658   1
  -7  -4   8 5.79984 7.81202   1
   7   4   8 11.2299  6.5366   1
   7   3  -8 96.6202  9.0608   1
  -3   7  -8 88.5818  9.6205   1
  -7  -3   8 91.4317 11.6226   1
   7   3   8 83.7140 10.1692   1
  -2   7  -8 10.1035  6.2079   1
  -7  -2   8 1.69724 8.00422   1
   7   2   8 7.14795 7.92496   1
  -1   7  -8 130.297  10.762   1
  -7  -1  -8 114.258   9.583   1
  -7  -1   8 121.703  12.839   1
   7   1   8 102.518  11.792   1
  -7   0  -8 3.81384 6.04509   1
   0   7  -8 1.32210 5.87902   1
  -7   0   8 -2.7620  7.8189   1
   0   7   8 -10.829   5.406   1
   7   0   8 3.73276 7.25138   1
   1   7  -8 110.176  10.401   1
  -7   1  -8 104.326  10.492   1
   7  -1   8 106.797  11.432   1
  -7   1   8 132.444  13.033   1
   1   7   8 132.898  11.542   1
   2   7  -8 7.82811 6.06711   1
  -7   2  -8 10.4924  5.3387   1
   7  -2   8 3.23758 7.16368   1
  -7   2   8 6.54152 7.81721   1
   2   7   8 2.74601 6.10954   1
   3   7  -8 70.2442  8.9759   1
  -7   3  -8 99.9746 10.4788   1
   3   7   8 106.407  11.076   1
   7  -3   8 68.0651  9.2204   1
  -7   3   8 88.9601  9.8642   1
   4   7  -8 7.60936 6.46297   1
  -7   4  -8 25.4279  8.0233   1
  -7   4   8 9.03187 7.79073   1
   4   7   8 11.3348  7.6477   1
  -7   5   8 26.0415  8.3766   1
   8   2   8 442.154  25.676   1
  -1   8  -8 9.57809 6.43883   1
  -8  -1   8 19.8412  6.7544   1
   8   1   8 30.3077  8.7077   1
   0   8  -8 77.9549  8.7553   1
  -8   0  -8 67.0530  8.8011   1
   8   0   8 65.2370  9.9941   1
  -8   0   8 54.8447 10.1323   1
   1   8  -8 23.7928  6.9506   1
  -8   1  -8 27.1453  7.8785   1
  -8   1   8 21.6112  6.7079   1
   8  -1   8 10.7298  7.5626   1
  -8   2  -8 454.801  25.113   1
  -8   2   8 401.993  26.095   1
   0   0   9 -4.3422  6.4770   1
   0   1  -9 -1.4461  5.3037   1
   0  -1   9 0.89948 6.56429   1
   1   0   9 2.11269 6.79528   1
   0   1   9 1.80500 4.70049   1
  -1   0   9 12.7580  7.1768   1
  -1   1  -9 -1.9746  4.9690   1
   1   1  -9 3.76887 5.20402   1
   1  -1   9 5.14620 6.86107   1
  -1   1   9 -2.8451  6.5888   1
   1   1   9 9.21319 7.44176   1
  -1   2  -9 257.560  15.979   1
   2   1  -9 254.642  15.426   1
   1  -2   9 280.173  18.486   1
  -1   2   9 245.794  16.371   1
   2   1   9 257.245  18.249   1
  -2   0  -9 0.70156 4.79729   1
   0   2  -9 -3.8450  5.5094   1
   0   2   9 2.72619 6.95658   1
   2   0   9 1.03679 4.92459   1
   1   2  -9 257.775  16.014   1
  -2   1  -9 256.288  15.675   1
   1   2   9 251.447  18.139   1
   2  -1   9 277.943  18.478   1
  -2   1   9 246.964  17.913   1
   2   2  -9 -0.9964  5.2556   1
  -2   2  -9 -6.8384  5.5193   1
   2  -2   9 0.37752 7.01255   1
   2   2   9 2.05172 6.79640   1
  -2   2   9 -0.1702  6.7292   1
  -2  -2   9 -2.9045  5.2319   1
  -2   3  -9 9.70877 6.31615   1
   3   2  -9 5.85513 5.76789   1
  -3  -2   9 4.43034 7.71006   1
  -2   3   9 17.7718  7.1899   1
   3   2   9 11.6890  7.5230   1
   2  -3   9 15.1593  7.9003   1
  -1   3  -9 12.1130  6.1555   1
   3   1   9 3.45260 4.96846   1
  -3  -1   9 8.37375 7.81201   1
  -1   3   9 0.06288 4.65547   1
   0   3  -9 -4.8122  5.3721   1
  -3   0  -9 1.88924 5.14376   1
  -3   0   9 -1.5769  5.2487   1
   3   0   9 0.84710 7.07105   1
   0   3   9 0.84023 6.62001   1
   1   3  -9 -3.3315  5.7839   1
  -3   1  -9 -0.2825  5.2932   1
   3  -1   9 2.70491 7.26667   1
  -1  -3   9 1.20290 5.38965   1
   1   3   9 -3.7290  6.6642   1
  -3   2  -9 10.4350  6.0439   1
   2   3  -9 10.3382  6.0471   1
   3  -2   9 10.8778  7.3168   1
   2   3   9 7.60093 5.41616   1
  -2  -3   9 10.7834  8.1995   1
  -3   3  -9 -0.5940  6.1975   1
   3   3  -9 -1.3147  5.9538   1
   3   3   9 -6.6648  7.0304   1
   3  -3   9 6.41428 7.21650   1
  -3  -3   9 -10.249   5.173   1
   4   3  -9 15.9928  6.3827   1
  -3   4  -9 21.3440  7.1062   1
  -4  -3   9 12.9629  8.5723   1
   4   3   9 9.34906 7.90825   1
  -3   4   9 11.1822  7.0145   1
  -2   4  -9 -4.6991  5.9866   1
   4   2  -9 12.3295  7.3075   1
  -4  -2   9 -4.4748  7.8773   1
   4   2   9 6.45096 7.63604   1
  -2   4   9 4.69771 6.58130   1
  -1   4  -9 362.022  20.984   1
   4   1   9 362.902  22.892   1
  -4  -1   9 339.182  23.134   1
  -1   4   9 369.052  22.177   1
   1  -4   9 392.223  22.000   1
  -4   0  -9 12.9075  5.7012   1
   0   4  -9 15.6469  6.3253   1
  -4   0   9 19.2506  8.4374   1
   0   4   9 14.9145  7.3243   1
   4   0   9 21.4216  8.2912   1
   0  -4   9 19.2317  8.4489   1
  -4   1  -9 360.143  20.190   1
   1   4  -9 369.917  20.078   1
   4  -1   9 363.570  22.763   1
   1   4   9 350.709  21.136   1
  -4   1   9 379.565  23.686   1
  -1  -4   9 361.798  23.357   1
  -4   2  -9 -1.8068  5.9331   1
   2   4  -9 10.4359  6.4639   1
  -2  -4   9 3.11830 7.95652   1
   2   4   9 0.79450 6.96176   1
  -4   2   9 -3.3950  7.6992   1
   4  -2   9 7.08783 7.25509   1
   3   4  -9 18.4624  6.8064   1
  -4   3  -9 21.8439  6.9964   1
   4  -3   9 17.8913  7.5426   1
  -3  -4   9 6.96472 8.37392   1
  -4   3   9 2.50163 7.71031   1
   3   4   9 11.5666  7.8340   1
  -4   4  -9 5.45375 6.71764   1
   4   4  -9 5.75426 6.79271   1
  -4  -4   9 -8.1275  7.9796   1
   4  -4   9 -10.202   6.379   1
   5   3  -9 16.2275  6.3675   1
  -3   5   9 19.6003  7.4456   1
  -2   5  -9 79.6724  9.4424   1
   5   2   9 77.2318 11.2341   1
  -5  -2   9 64.2199 10.9645   1
  -2   5   9 80.3714 10.1889   1
  -1   5  -9 6.88377 6.53313   1
  -5  -1   9 10.4161  8.0973   1
  -1   5   9 9.27012 7.06537   1
   5   1   9 -1.6694  7.4151   1
   1  -5   9 2.86625 7.60498   1
   0   5  -9 15.2362  6.4437   1
  -5   0  -9 11.8745  5.9822   1
   5   0   9 5.00275 7.57175   1
  -5   0   9 -6.0082  7.6602   1
   0  -5   9 4.21449 7.65725   1
   0   5   9 2.38591 6.68296   1
  -5   1  -9 6.78380 6.26675   1
   1   5  -9 -0.1595  6.2567   1
   1   5   9 6.21298 7.19296   1
   5  -1   9 12.9358  7.7256   1
  -5   1   9 8.70795 7.98982   1
  -1  -5   9 -0.7620  7.5968   1
  -5   2  -9 75.6524  9.0781   1
   2   5  -9 78.7612  9.4459   1
   5  -2   9 78.7580 10.4047   1
  -2  -5   9 72.3650 10.6149   1
  -5   2   9 76.8775  9.6356   1
   2   5   9 80.7676 10.2486   1
   3   5  -9 16.9450  7.0979   1
  -3  -5   9 9.50965 8.45985   1
   5  -3   9 21.9106  8.1889   1
  -1   6   9 55.6110  8.7800   1
   0   6   9 9.32156 7.17740   1
  -6   1  -9 44.2893  8.1012   1
   0   0   0    0.00    0.00   0
;
_shelx_hkl_checksum              43714
#END Tags that were not found in dictionaries
loop_
_space_group_symop_operation_xyz
'x, y, z'
'-x, -y, z'
'-y, x, z+1/2'
'y, -x, z+1/2'
'-x+1/2, y+1/2, -z'
'x+1/2, -y+1/2, -z'
'y+1/2, x+1/2, -z+1/2'
'-y+1/2, -x+1/2, -z+1/2'
'-x, -y, -z'
'x, y, -z'
'y, -x, -z-1/2'
'-y, x, -z-1/2'
'x-1/2, -y-1/2, z'
'-x-1/2, y-1/2, z'
'-y-1/2, -x-1/2, z-1/2'
'y-1/2, x-1/2, z-1/2'
loop_
_atom_site_label
_atom_site_type_symbol
_atom_site_fract_x
_atom_site_fract_y
_atom_site_fract_z
_atom_site_U_iso_or_equiv
_atom_site_adp_type
_atom_site_occupancy
_atom_site_site_symmetry_order
_atom_site_calc_flag
_atom_site_refinement_flags_posn
_atom_site_refinement_flags_adp
_atom_site_refinement_flags_occupancy
Ni Ni 0.0000 0.5000 0.2500 0.00663(7) Uani 1 4 d S T P
As As 0.18479(2) 0.17105(2) 0.0000 0.00775(6) Uani 1 2 d S T P
O1 O 0.18239(10) 0.31761(10) 0.2500 0.0117(2) Uani 1 2 d S T P
O2 O 0.10801(14) 0.63717(15) 0.0000 0.0087(2) Uani 1 2 d S T P
loop_
_atom_site_aniso_label
_atom_site_aniso_U_11
_atom_site_aniso_U_22
_atom_site_aniso_U_33
_atom_site_aniso_U_23
_atom_site_aniso_U_13
_atom_site_aniso_U_12
Ni 0.00733(10) 0.00733(10) 0.00522(13) 0.000 0.000 -0.00077(9)
As 0.00797(9) 0.00769(9) 0.00760(9) 0.000 0.000 0.00089(5)
O1 0.0137(4) 0.0137(4) 0.0076(5) -0.0019(3) -0.0019(3) 0.0069(4)
O2 0.0090(5) 0.0104(5) 0.0068(5) 0.000 0.000 -0.0034(4)
loop_
_atom_type_symbol
_atom_type_description
_atom_type_scat_dispersion_real
_atom_type_scat_dispersion_imag
_atom_type_scat_source
O O 0.0106 0.0060 'International Tables Vol C Tables 4.2.6.8 and 6.1.1.4'
Ni Ni 0.3393 1.1124 'International Tables Vol C Tables 4.2.6.8 and 6.1.1.4'
As As 0.0499 2.0058 'International Tables Vol C Tables 4.2.6.8 and 6.1.1.4'
loop_
_geom_angle_atom_site_label_1
_geom_angle_atom_site_label_2
_geom_angle_atom_site_label_3
_geom_angle
_geom_angle_site_symmetry_1
_geom_angle_site_symmetry_3
O2 Ni O2 170.31(7) 7_455 9_565
O2 Ni O2 91.35(5) 7_455 15_666
O2 Ni O2 89.47(5) 9_565 15_666
O2 Ni O2 89.47(5) 7_455 .
O2 Ni O2 91.35(5) 9_565 .
O2 Ni O2 170.31(7) 15_666 .
O2 Ni O1 85.15(4) 7_455 .
O2 Ni O1 85.15(4) 9_565 .
O2 Ni O1 94.85(4) 15_666 .
O2 Ni O1 94.85(4) . .
O2 Ni O1 94.85(4) 7_455 2_565
O2 Ni O1 94.85(4) 9_565 2_565
O2 Ni O1 85.15(4) 15_666 2_565
O2 Ni O1 85.15(4) . 2_565
O1 Ni O1 180.0 . 2_565
O2 Ni Ni 134.32(2) 7_455 9_565
O2 Ni Ni 45.68(2) 9_565 9_565
O2 Ni Ni 134.32(2) 15_666 9_565
O2 Ni Ni 45.68(2) . 9_565
O1 Ni Ni 90.0 . 9_565
O1 Ni Ni 90.0 2_565 9_565
O2 Ni Ni 45.68(2) 7_455 9_566
O2 Ni Ni 134.32(2) 9_565 9_566
O2 Ni Ni 45.68(2) 15_666 9_566
O2 Ni Ni 134.32(2) . 9_566
O1 Ni Ni 90.0 . 9_566
O1 Ni Ni 90.0 2_565 9_566
Ni Ni Ni 180.0 9_565 9_566
O2 Ni O1 59.58(3) 7_455 9_566
O2 Ni O1 127.46(3) 9_565 9_566
O2 Ni O1 52.54(3) 15_666 9_566
O2 Ni O1 120.42(3) . 9_566
O1 Ni O1 127.101(17) . 9_566
O1 Ni O1 52.899(17) 2_565 9_566
Ni Ni O1 142.899(17) 9_565 9_566
Ni Ni O1 37.101(17) 9_566 9_566
O2 Ni O1 52.54(3) 7_455 10_556
O2 Ni O1 120.42(3) 9_565 10_556
O2 Ni O1 59.58(3) 15_666 10_556
O2 Ni O1 127.46(3) . 10_556
O1 Ni O1 52.899(17) . 10_556
O1 Ni O1 127.101(17) 2_565 10_556
Ni Ni O1 142.899(17) 9_565 10_556
Ni Ni O1 37.101(17) 9_566 10_556
O1 Ni O1 74.20(3) 9_566 10_556
O2 Ni O1 127.46(3) 7_455 9_565
O2 Ni O1 59.58(3) 9_565 9_565
O2 Ni O1 120.42(3) 15_666 9_565
O2 Ni O1 52.54(3) . 9_565
O1 Ni O1 127.101(17) . 9_565
O1 Ni O1 52.899(17) 2_565 9_565
Ni Ni O1 37.101(17) 9_565 9_565
Ni Ni O1 142.899(17) 9_566 9_565
O1 Ni O1 105.80(3) 9_566 9_565
O1 Ni O1 180.0 10_556 9_565
O2 Ni O1 120.42(3) 7_455 10
O2 Ni O1 52.54(3) 9_565 10
O2 Ni O1 127.46(3) 15_666 10
O2 Ni O1 59.58(3) . 10
O1 Ni O1 52.899(17) . 10
O1 Ni O1 127.101(17) 2_565 10
Ni Ni O1 37.101(17) 9_565 10
Ni Ni O1 142.899(17) 9_566 10
O1 Ni O1 180.0 9_566 10
O1 Ni O1 105.80(3) 10_556 10
O1 Ni O1 74.20(3) 9_565 10
O2 As O1 96.64(4) 5_545 10
O2 As O1 96.64(4) 5_545 .
O1 As O1 98.63(4) 10 .
O2 As O2 156.06(3) 5_545 9_565
O1 As O2 68.53(3) 10 9_565
O1 As O2 68.53(3) . 9_565
O2 As O2 61.52(2) 5_545 3_655
O1 As O2 140.68(2) 10 3_655
O1 As O2 56.42(4) . 3_655
O2 As O2 118.076(17) 9_565 3_655
O2 As O2 61.52(2) 5_545 3_654
O1 As O2 56.42(4) 10 3_654
O1 As O2 140.68(2) . 3_654
O2 As O2 118.076(17) 9_565 3_654
O2 As O2 122.04(4) 3_655 3_654
O2 As O1 63.00(4) 5_545 4_554
O1 As O1 104.32(2) 10 4_554
O1 As O1 150.64(3) . 4_554
O2 As O1 137.36(2) 9_565 4_554
O2 As O1 94.34(2) 3_655 4_554
O2 As O1 49.88(2) 3_654 4_554
O2 As O1 63.00(4) 5_545 11_556
O1 As O1 150.64(3) 10 11_556
O1 As O1 104.32(2) . 11_556
O2 As O1 137.36(2) 9_565 11_556
O2 As O1 49.88(2) 3_655 11_556
O2 As O1 94.34(2) 3_654 11_556
O1 As O1 48.611(13) 4_554 11_556
O2 As O2 108.64(4) 5_545 .
O1 As O2 49.84(3) 10 .
O1 As O2 49.84(3) . .
O2 As O2 47.42(4) 9_565 .
O2 As O2 103.52(3) 3_655 .
O2 As O2 103.52(3) 3_654 .
O1 As O2 153.364(15) 4_554 .
O1 As O2 153.364(15) 11_556 .
O2 As O2 132.971(10) 5_545 15_665
O1 As O2 38.44(3) 10 15_665
O1 As O2 102.38(4) . 15_665
O2 As O2 41.149(13) 9_565 15_665
O2 As O2 158.123(18) 3_655 15_665
O2 As O2 77.12(2) 3_654 15_665
O1 As O2 106.972(17) 4_554 15_665
O1 As O2 146.45(2) 11_556 15_665
O2 As O2 58.57(3) . 15_665
O2 As O2 132.971(10) 5_545 15_666
O1 As O2 102.38(4) 10 15_666
O1 As O2 38.44(3) . 15_666
O2 As O2 41.149(13) 9_565 15_666
O2 As O2 77.12(2) 3_655 15_666
O2 As O2 158.123(18) 3_654 15_666
O1 As O2 146.45(2) 4_554 15_666
O1 As O2 106.972(17) 11_556 15_666
O2 As O2 58.57(3) . 15_666
O2 As O2 82.27(3) 15_665 15_666
O2 As O2 26.78(6) 5_545 13_665
O1 As O2 113.10(3) 10 13_665
O1 As O2 113.10(3) . 13_665
O2 As O2 177.16(3) 9_565 13_665
O2 As O2 62.33(2) 3_655 13_665
O2 As O2 62.33(2) 3_654 13_665
O1 As O2 40.414(19) 4_554 13_665
O1 As O2 40.414(19) 11_556 13_665
O2 As O2 135.42(3) . 13_665
O2 As O2 138.840(13) 15_665 13_665
O2 As O2 138.840(13) 15_666 13_665
As O1 As 124.13(7) . 15_666
As O1 Ni 117.93(3) . .
As O1 Ni 117.93(3) 15_666 .
As O1 O2 39.93(3) . 5_545
As O1 O2 88.37(5) 15_666 5_545
Ni O1 O2 148.09(2) . 5_545
As O1 O2 88.37(5) . 3_655
As O1 O2 39.93(3) 15_666 3_655
Ni O1 O2 148.09(2) . 3_655
O2 O1 O2 63.83(4) 5_545 3_655
As O1 O2 159.89(4) . 7_455
As O1 O2 73.46(3) 15_666 7_455
Ni O1 O2 45.70(3) . 7_455
O2 O1 O2 145.47(5) 5_545 7_455
O2 O1 O2 111.214(19) 3_655 7_455
As O1 O2 73.46(3) . 9_565
As O1 O2 159.89(4) 15_666 9_565
Ni O1 O2 45.70(3) . 9_565
O2 O1 O2 111.214(19) 5_545 9_565
O2 O1 O2 145.47(5) 3_655 9_565
O2 O1 O2 91.40(6) 7_455 9_565
As O1 O1 139.32(2) . 10_556
As O1 O1 40.68(2) 15_666 10_556
Ni O1 O1 90.0 . 10_556
O2 O1 O1 121.655(19) 5_545 10_556
O2 O1 O1 58.344(19) 3_655 10_556
O2 O1 O1 59.878(17) 7_455 10_556
O2 O1 O1 120.123(17) 9_565 10_556
As O1 O1 40.68(2) . 10
As O1 O1 139.32(2) 15_666 10
Ni O1 O1 90.0 . 10
O2 O1 O1 58.344(19) 5_545 10
O2 O1 O1 121.655(19) 3_655 10
O2 O1 O1 120.123(17) 7_455 10
O2 O1 O1 59.878(17) 9_565 10
O1 O1 O1 180.0 10_556 10
As O1 O2 102.46(3) . .
As O1 O2 119.34(3) 15_666 .
Ni O1 O2 41.12(2) . .
O2 O1 O2 111.57(2) 5_545 .
O2 O1 O2 155.68(4) 3_655 .
O2 O1 O2 57.73(3) 7_455 .
O2 O1 O2 58.78(5) 9_565 .
O1 O1 O2 117.463(15) 10_556 .
O1 O1 O2 62.538(15) 10 .
As O1 O2 119.34(3) . 15_666
As O1 O2 102.46(3) 15_666 15_666
Ni O1 O2 41.12(2) . 15_666
O2 O1 O2 155.68(4) 5_545 15_666
O2 O1 O2 111.57(2) 3_655 15_666
O2 O1 O2 58.78(5) 7_455 15_666
O2 O1 O2 57.73(3) 9_565 15_666
O1 O1 O2 62.538(15) 10_556 15_666
O1 O1 O2 117.463(15) 10 15_666
O2 O1 O2 82.24(5) . 15_666
As O1 As 96.445(11) . 3
As O1 As 103.917(12) 15_666 3
Ni O1 As 67.882(19) . 3
O2 O1 As 126.04(3) 5_545 3
O2 O1 As 92.92(3) 3_655 3
O2 O1 As 87.36(3) 7_455 3
O2 O1 As 61.32(2) 9_565 3
O1 O1 As 65.695(7) 10_556 3
O1 O1 As 114.306(6) 10 3
O2 O1 As 107.18(4) . 3
O2 O1 As 30.39(2) 15_666 3
As O1 As 103.916(12) . 5
As O1 As 96.444(11) 15_666 5
Ni O1 As 67.882(19) . 5
O2 O1 As 92.92(3) 5_545 5
O2 O1 As 126.04(3) 3_655 5
O2 O1 As 61.32(2) 7_455 5
O2 O1 As 87.36(3) 9_565 5
O1 O1 As 114.306(6) 10_556 5
O1 O1 As 65.695(7) 10 5
O2 O1 As 30.39(2) . 5
O2 O1 As 107.18(4) 15_666 5
As O1 As 135.76(4) 3 5
As O1 Ni 71.20(2) . 9_565
As O1 Ni 152.546(19) 15_666 9_565
Ni O1 Ni 52.900(17) . 9_565
O2 O1 Ni 95.363(18) 5_545 9_565
O2 O1 Ni 158.53(3) 3_655 9_565
O2 O1 Ni 88.79(3) 7_455 9_565
O2 O1 Ni 34.76(2) 9_565 9_565
O1 O1 Ni 142.900(17) 10_556 9_565
O1 O1 Ni 37.101(17) 10 9_565
O2 O1 Ni 34.691(17) . 9_565
O2 O1 Ni 85.03(3) 15_666 9_565
As O1 Ni 95.81(2) 3 9_565
As O1 Ni 56.261(12) 5 9_565
As O1 Ni 152.547(19) . 9_566
As O1 Ni 71.20(2) 15_666 9_566
Ni O1 Ni 52.900(17) . 9_566
O2 O1 Ni 158.53(3) 5_545 9_566
O2 O1 Ni 95.363(18) 3_655 9_566
O2 O1 Ni 34.76(2) 7_455 9_566
O2 O1 Ni 88.79(3) 9_565 9_566
O1 O1 Ni 37.101(17) 10_556 9_566
O1 O1 Ni 142.900(17) 10 9_566
O2 O1 Ni 85.03(3) . 9_566
O2 O1 Ni 34.691(17) 15_666 9_566
As O1 Ni 56.261(12) 3 9_566
As O1 Ni 95.81(2) 5 9_566
Ni O1 Ni 105.80(3) 9_565 9_566
As O2 Ni 121.83(5) 5 9_565
As O2 Ni 121.83(5) 5 .
Ni O2 Ni 88.65(5) 9_565 .
As O2 O1 43.43(2) 5 11_566
Ni O2 O1 164.66(5) 9_565 11_566
Ni O2 O1 103.35(2) . 11_566
As O2 O1 43.43(2) 5 4_564
Ni O2 O1 103.35(2) 9_565 4_564
Ni O2 O1 164.66(5) . 4_564
O1 O2 O1 63.31(4) 11_566 4_564
As O2 O1 145.28(3) 5 9_565
Ni O2 O1 49.15(3) 9_565 9_565
Ni O2 O1 92.71(4) . 9_565
O1 O2 O1 137.80(5) 11_566 9_565
O1 O2 O1 102.36(3) 4_564 9_565
As O2 O1 145.28(3) 5 2_565
Ni O2 O1 92.71(4) 9_565 2_565
Ni O2 O1 49.15(3) . 2_565
O1 O2 O1 102.36(3) 11_566 2_565
O1 O2 O1 137.80(5) 4_564 2_565
O1 O2 O1 60.24(3) 9_565 2_565
As O2 O2 85.98(3) 5 7_455
Ni O2 O2 133.12(3) 9_565 7_455
Ni O2 O2 45.27(2) . 7_455
O1 O2 O2 58.09(2) 11_566 7_455
O1 O2 O2 120.89(2) 4_564 7_455
O1 O2 O2 125.60(5) 9_565 7_455
O1 O2 O2 65.52(3) 2_565 7_455
As O2 O2 85.98(3) 5 7_454
Ni O2 O2 45.27(2) 9_565 7_454
Ni O2 O2 133.12(3) . 7_454
O1 O2 O2 120.89(2) 11_566 7_454
O1 O2 O2 58.09(2) 4_564 7_454
O1 O2 O2 65.52(3) 9_565 7_454
O1 O2 O2 125.60(5) 2_565 7_454
O2 O2 O2 166.21(10) 7_455 7_454
As O2 O2 137.50(8) 5 9_565
Ni O2 O2 44.32(2) 9_565 9_565
Ni O2 O2 44.32(2) . 9_565
O1 O2 O2 146.66(3) 11_566 9_565
O1 O2 O2 146.66(3) 4_564 9_565
O1 O2 O2 64.90(4) 9_565 9_565
O1 O2 O2 64.90(4) 2_565 9_565
O2 O2 O2 89.188(12) 7_455 9_565
O2 O2 O2 89.188(12) 7_454 9_565
As O2 As 137.49(6) 5 9_565
Ni O2 As 86.43(4) 9_565 9_565
Ni O2 As 86.43(4) . 9_565
O1 O2 As 103.61(4) 11_566 9_565
O1 O2 As 103.61(4) 4_564 9_565
O1 O2 As 38.01(2) 9_565 9_565
O1 O2 As 38.01(2) 2_565 9_565
O2 O2 As 96.75(5) 7_455 9_565
O2 O2 As 96.75(5) 7_454 9_565
O2 O2 As 85.01(5) 9_565 9_565
As O2 O1 86.61(4) 5 .
Ni O2 O1 85.73(4) 9_565 .
Ni O2 O1 44.03(3) . .
O1 O2 O1 96.21(3) 11_566 .
O1 O2 O1 126.31(5) 4_564 .
O1 O2 O1 121.22(5) 9_565 .
O1 O2 O1 93.18(4) 2_565 .
O2 O2 O1 56.75(3) 7_455 .
O2 O2 O1 111.56(5) 7_454 .
O2 O2 O1 56.32(4) 9_565 .
As O2 O1 129.93(4) 9_565 .
As O2 O1 86.61(4) 5 10
Ni O2 O1 44.03(3) 9_565 10
Ni O2 O1 85.73(4) . 10
O1 O2 O1 126.31(5) 11_566 10
O1 O2 O1 96.21(3) 4_564 10
O1 O2 O1 93.18(4) 9_565 10
O1 O2 O1 121.22(5) 2_565 10
O2 O2 O1 111.56(5) 7_455 10
O2 O2 O1 56.75(3) 7_454 10
O2 O2 O1 56.32(4) 9_565 10
As O2 O1 129.93(4) 9_565 10
O1 O2 O1 54.92(3) . 10
As O2 As 76.51(3) 5 11_566
Ni O2 As 159.97(4) 9_565 11_566
Ni O2 As 73.561(14) . 11_566
O1 O2 As 35.210(14) 11_566 11_566
O1 O2 As 95.81(4) 4_564 11_566
O1 O2 As 121.09(4) 9_565 11_566
O1 O2 As 68.801(16) 2_565 11_566
O2 O2 As 32.50(2) 7_455 11_566
O2 O2 As 153.32(2) 7_454 11_566
O2 O2 As 117.31(2) 9_565 11_566
As O2 As 83.40(3) 9_565 11_566
O1 O2 As 87.635(17) . 11_566
O1 O2 As 139.96(4) 10 11_566
As O2 As 76.51(3) 5 11_565
Ni O2 As 73.561(14) 9_565 11_565
Ni O2 As 159.97(4) . 11_565
O1 O2 As 95.81(4) 11_566 11_565
O1 O2 As 35.210(14) 4_564 11_565
O1 O2 As 68.801(16) 9_565 11_565
O1 O2 As 121.09(4) 2_565 11_565
O2 O2 As 153.32(2) 7_455 11_565
O2 O2 As 32.50(2) 7_454 11_565
O2 O2 As 117.31(2) 9_565 11_565
As O2 As 83.40(3) 9_565 11_565
O1 O2 As 139.96(4) . 11_565
O1 O2 As 87.636(17) 10 11_565
As O2 As 122.04(4) 11_566 11_565
loop_
_geom_bond_atom_site_label_1
_geom_bond_atom_site_label_2
_geom_bond_distance
_geom_bond_site_symmetry_2
Ni O2 2.0079(9) 7_455
Ni O2 2.0079(9) 9_565
Ni O2 2.0079(9) 15_666
Ni O2 2.0079(9) .
Ni O1 2.1222(13) .
Ni O1 2.1222(13) 2_565
Ni Ni 2.8060(5) 9_565
Ni Ni 2.8060(5) 9_566
Ni O1 3.5182(9) 9_566
Ni O1 3.5182(9) 10_556
Ni O1 3.5182(9) 9_565
Ni O1 3.5182(9) 10
As O2 1.7275(12) 5_545
As O1 1.8501(6) 10
As O1 1.8501(6) .
As O2 2.8798(13) 9_565
As O2 3.2076(8) 3_655
As O2 3.2076(8) 3_654
As O1 3.4087(6) 4_554
As O1 3.4087(6) 11_556
As O2 3.8868(13) .
As O2 4.2656(11) 15_665
As O2 4.2656(11) 15_666
As O2 4.3077(13) 13_665
O1 As 1.8502(6) 15_666
O1 O2 2.6733(14) 5_545
O1 O2 2.6733(14) 3_655
O1 O2 2.7956(14) 7_455
O1 O2 2.7956(14) 9_565
O1 O1 2.8060(5) 10_556
O1 O1 2.8060(5) 10
O1 O2 3.0423(14) .
O1 O2 3.0423(14) 15_666
O1 As 3.4086(6) 3
O1 As 3.4086(6) 5
O1 Ni 3.5181(9) 9_565
O1 Ni 3.5181(9) 9_566
O2 As 1.7275(12) 5
O2 Ni 2.0079(9) 9_565
O2 O1 2.6733(14) 11_566
O2 O1 2.6733(14) 4_564
O2 O1 2.7957(14) 9_565
O2 O1 2.7957(14) 2_565
O2 O2 2.8264(6) 7_455
O2 O2 2.8264(6) 7_454
O2 O2 2.873(2) 9_565
O2 As 2.8798(13) 9_565
O2 O1 3.0423(14) 10
O2 As 3.2076(8) 11_566
O2 As 3.2076(8) 11_565
