#------------------------------------------------------------------------------
#$Date: 2016-03-26 22:53:30 +0200 (Sat, 26 Mar 2016) $
#$Revision: 180522 $
#$URL: svn://www.crystallography.net/cod/cif/7/21/91/7219134.cif $
#------------------------------------------------------------------------------
#
# This file is available in the Crystallography Open Database (COD),
# http://www.crystallography.net/
#
# All data on this site have been placed in the public domain by the
# contributors.
#
data_7219134
loop_
_publ_author_name
'Tenorio Clavijo, Juan Carlos'
'Guimar\~aes, Freddy Fernandes'
'Ellena, Javier'
'Martins, Felipe Terra'
_publ_section_title
;
 Isostructurality and the conformational role of the
 2&#x2032;,3&#x2032;-moieties in the diversity of lamivudine crystal forms
 probed in halide salts
;
_journal_issue                   28
_journal_name_full               CrystEngComm
_journal_page_first              5187
_journal_paper_doi               10.1039/C4CE02373K
_journal_volume                  17
_journal_year                    2015
_chemical_absolute_configuration rm
_chemical_compound_source        'synthesis as described'
_chemical_formula_moiety         'C8 H12 Br1 N3 O3 S1'
_chemical_formula_sum            'C8 H12 Br N3 O3 S'
_chemical_formula_weight         310.18
_chemical_name_common            Lamivudine_Hydrobromide
_space_group_IT_number           4
_symmetry_cell_setting           monoclinic
_symmetry_Int_Tables_number      4
_symmetry_space_group_name_Hall  'P 2yb'
_symmetry_space_group_name_H-M   'P 1 21 1'
_atom_sites_solution_hydrogens   geom
_audit_conform_dict_location     ftp://ftp.iucr.org/pub/cif_core.dic
_audit_conform_dict_name         cif_core.dic
_audit_conform_dict_version      2.4.3
_audit_creation_date             2014-10-09T17:03:00-00:00
_audit_creation_method           'WinGX routine CIF_UPDATE'
_audit_update_record
;
2014-10-29 deposited with the CCDC.
2014-12-18 downloaded from the CCDC.
;
_cell_angle_alpha                90
_cell_angle_beta                 103.897(5)
_cell_angle_gamma                90
_cell_formula_units_Z            2
_cell_length_a                   5.689(5)
_cell_length_b                   12.288(5)
_cell_length_c                   8.419(5)
_cell_measurement_reflns_used    1094
_cell_measurement_temperature    293(2)
_cell_measurement_theta_max      25.35
_cell_measurement_theta_min      2.91
_cell_measurement_wavelength     0.71073
_cell_volume                     571.3(6)
_computing_cell_refinement       'HKL Scalepack (Otwinowski & Minor 1997)'
_computing_data_collection       'Collect (Bruker AXS BV, 1997-2004)'
_computing_data_reduction
'HKL Denzo and Scalepack (Otwinowski & Minor 1997)'
_computing_molecular_graphics    'Ortep-3 for Windows (Farrugia, 1997)'
_computing_publication_material  'WinGX publication routines (Farrugia, 1999)'
_computing_structure_refinement  'SHELXL-2012 (Sheldrick, 2012)'
_diffrn_ambient_temperature      293(2)
_diffrn_detector                 'CCD plate'
_diffrn_detector_area_resol_mean 9
_diffrn_measured_fraction_theta_full 0.993
_diffrn_measured_fraction_theta_max 0.993
_diffrn_measurement_device       '95mm CCD camera on \k-goniostat'
_diffrn_measurement_device_type  KappaCCD
_diffrn_measurement_method       'CCD rotation images, thick slices'
_diffrn_orient_matrix_UB_11      -0.154806
_diffrn_orient_matrix_UB_12      0.005061
_diffrn_orient_matrix_UB_13      -0.08631
_diffrn_orient_matrix_UB_21      0.026339
_diffrn_orient_matrix_UB_22      0.079897
_diffrn_orient_matrix_UB_23      -0.010319
_diffrn_orient_matrix_UB_31      0.090198
_diffrn_orient_matrix_UB_32      -0.014644
_diffrn_orient_matrix_UB_33      -0.086126
_diffrn_radiation_monochromator  'horizonally mounted graphite crystal'
_diffrn_radiation_probe          x-ray
_diffrn_radiation_type           MoK\a
_diffrn_radiation_wavelength     0.71073
_diffrn_reflns_av_R_equivalents  0.0444
_diffrn_reflns_Laue_measured_fraction_full 0.993
_diffrn_reflns_Laue_measured_fraction_max 0.993
_diffrn_reflns_limit_h_max       6
_diffrn_reflns_limit_h_min       -6
_diffrn_reflns_limit_k_max       14
_diffrn_reflns_limit_k_min       -14
_diffrn_reflns_limit_l_max       10
_diffrn_reflns_limit_l_min       -10
_diffrn_reflns_number            3700
_diffrn_reflns_point_group_measured_fraction_full 0.975
_diffrn_reflns_point_group_measured_fraction_max 0.975
_diffrn_reflns_reduction_process
;
        Scaled and merged with Sortav
        R.H. Blessing, (1987) Cryst. Rev. 1, 3-58
        R.H. Blessing, (1989) J. Appl. Cryst. 22, 396-397
;
_diffrn_reflns_theta_full        25.242
_diffrn_reflns_theta_max         25.346
_diffrn_reflns_theta_min         2.993
_diffrn_source                   'Enraf Nonius FR590'
_exptl_absorpt_coefficient_mu    3.776
_exptl_absorpt_correction_T_max  0.906
_exptl_absorpt_correction_T_min  0.692
_exptl_absorpt_correction_type   gaussian
_exptl_absorpt_process_details
;
        P. Coppens, L. Leiserowitz, D Rabinovich, Acta Cryst.
        (1965), 18, 1035-1038
;
_exptl_crystal_colour            colourless
_exptl_crystal_density_diffrn    1.803
_exptl_crystal_density_method    'not measured'
_exptl_crystal_description       prism
_exptl_crystal_F_000             312
_exptl_crystal_size_max          0.19
_exptl_crystal_size_mid          0.05
_exptl_crystal_size_min          0.03
_refine_diff_density_max         0.33
_refine_diff_density_min         -0.409
_refine_diff_density_rms         0.068
_refine_ls_abs_structure_details
;
 Flack x determined using 652 quotients [(I+)-(I-)]/[(I+)+(I-)]
 (Parsons and Flack (2004), Acta Cryst. A60, s61).
;
_refine_ls_abs_structure_Flack   0.000(7)
_refine_ls_extinction_method     none
_refine_ls_goodness_of_fit_ref   0.936
_refine_ls_hydrogen_treatment    constr
_refine_ls_matrix_type           full
_refine_ls_number_constraints    0
_refine_ls_number_parameters     146
_refine_ls_number_reflns         2033
_refine_ls_number_restraints     1
_refine_ls_restrained_S_all      0.936
_refine_ls_R_factor_all          0.046
_refine_ls_R_factor_gt           0.0368
_refine_ls_shift/su_max          0
_refine_ls_shift/su_mean         0
_refine_ls_structure_factor_coef Fsqd
_refine_ls_weighting_details
;
 w=1/[\s^2^(Fo^2^)]
 where P=(Fo^2^+2Fc^2^)/3
;
_refine_ls_weighting_scheme      calc
_refine_ls_wR_factor_gt          0.0611
_refine_ls_wR_factor_ref         0.0654
_reflns_number_gt                1783
_reflns_number_total             2033
_reflns_threshold_expression     'I > 2\s(I)'
_iucr_refine_instructions_details
;
TITL import_cif in P 2
CELL  0.71073   5.6890  12.2880   8.4190   90.000  103.897   90.000
ZERR     2.00   0.0050   0.0050   0.0050    0.000    0.005    0.000
LATT  -1
SYMM  - X, 1/2 + Y, - Z
SFAC  C    H    N    O    S    BR
UNIT  16   24   6    6    2    2
MERG   2
MPLA N1 C2 O2 N3 C4 N4 C5 C6
MPLA N1 C2 N3 C4 C5 C6
MPLA C2' C1' O1' C4'
FMAP   2
PLAN   35
SIZE     0.03   0.05   0.19
ACTA
BOND   $H
CONF
LIST   4
L.S.  20
TEMP    20.00
WGHT    0.000000
FVAR       0.37987
C1'   1    0.744538    0.257486    0.851655    11.00000    0.04095    0.03444 =
         0.04080    0.00381    0.01211    0.00278
AFIX  13
H1'   2    0.664869    0.323423    0.799268    11.00000   -1.20000
AFIX   0
C2    1    1.015160    0.274601    0.670347    11.00000    0.03741    0.03442 =
         0.03639    0.00532    0.00481    0.00058
C2'   1    0.910243    0.286841    1.015379    11.00000    0.05460    0.04753 =
         0.03793   -0.00496    0.01511   -0.00507
AFIX  23
H22'  2    0.839884    0.343896    1.068843    11.00000   -1.20000
H21'  2    1.067034    0.310824    1.002462    11.00000   -1.20000
AFIX   0
C4    1    1.168170    0.117030    0.554977    11.00000    0.04021    0.03851 =
         0.02865   -0.00215    0.00646    0.00352
C4'   1    0.615923    0.144745    1.046304    11.00000    0.04124    0.04957 =
         0.03186    0.00134    0.00982    0.00135
AFIX  13
H4'   2    0.528280    0.191057    1.107415    11.00000   -1.20000
AFIX   0
C5    1    1.027137    0.048105    0.629989    11.00000    0.04288    0.02842 =
         0.04953   -0.00083    0.00902   -0.00081
AFIX  43
H5    2    1.030302   -0.027048    0.617616    11.00000   -1.20000
AFIX   0
C5'   1    0.527357    0.028969    1.050059    11.00000    0.05379    0.04793 =
         0.04565   -0.00209    0.01869    0.00256
AFIX  23
H52'  2    0.358558    0.024423    0.991508    11.00000   -1.20000
H51'  2    0.620269   -0.018766    0.996538    11.00000   -1.20000
AFIX   0
C6    1    0.887305    0.095125    0.720438    11.00000    0.04468    0.03387 =
         0.03871    0.00234    0.00639   -0.00582
AFIX  43
H6    2    0.791949    0.050999    0.769321    11.00000   -1.20000
AFIX   0
N1    3    0.881822    0.205314    0.742184    11.00000    0.03783    0.03013 =
         0.03560    0.00196    0.00939    0.00170
N3    3    1.144882    0.225464    0.573194    11.00000    0.04114    0.03280 =
         0.03788    0.00490    0.01274   -0.00185
AFIX  43
H3    2    1.218225    0.267283    0.518806    11.00000   -1.20000
AFIX   0
N4    3    1.315181    0.081298    0.469784    11.00000    0.05512    0.04259 =
         0.04498    0.00174    0.01682    0.00356
AFIX  93
H4X   2    1.396118    0.126540    0.425864    11.00000   -1.20000
H4Y   2    1.331359    0.012451    0.457428    11.00000   -1.20000
AFIX   0
O1'   4    0.566047    0.182773    0.877486    11.00000    0.03587    0.04747 =
         0.03806    0.00696    0.00817   -0.00201
O2    4    1.019569    0.372788    0.691976    11.00000    0.05455    0.03217 =
         0.05299   -0.00179    0.01628   -0.00245
O5'   4    0.553124   -0.004280    1.213428    11.00000    0.05400    0.06044 =
         0.05914    0.01988    0.02457    0.00916
AFIX 147
H5'   2    0.695166   -0.019648    1.253866    11.00000   -1.50000
AFIX   0
S3'   5    0.936656    0.162173    1.129740    11.00000    0.04542    0.06864 =
         0.03816    0.00585    0.00116   -0.00116
BR    6    1.484123    0.336140    0.358727    11.00000    0.05279    0.04303 =
         0.05122   -0.00428    0.01954   -0.00821
HKLF    4
REM  import_cif in P 2
REM R1 =  0.0368 for    1783 Fo > 4sig(Fo)  and  0.0460 for all    2033 data
REM    146 parameters refined using      1 restraints
END
;
_cod_data_source_file            c4ce02373k1.cif
_cod_data_source_block           shelx
_cod_depositor_comments
'Adding full bibliography for 7219133--7219137.cif.'
_cod_original_sg_symbol_H-M      'P 21'
_cod_database_code               7219134
#BEGIN Tags that were not found in dictionaries:
_shelx_estimated_absorpt_t_min   0.534
_shelx_estimated_absorpt_t_max   0.895
_iucr_refine_reflections_details
;
  -6  -7   2 16.3817  4.8894   1
  -6  -7   3   8.373  2.3877   1
  -6  -6   0  2.1796  1.6836   1
  -6  -6   1 12.1757  3.2762   1
  -6  -6   2  2.2056  1.6563   1
  -6  -6   3  2.4429  1.4751   1
  -6  -6   4  5.5995  2.7383   1
  -6  -5  -1  2.0162  1.6237   1
  -6  -5   0   6.124  3.2201   1
  -6  -5   1  3.1113  1.6921   1
  -6  -5   2 28.8716  4.6873   1
  -6  -5   3  7.4428  2.8691   1
  -6  -5   4  2.2211  1.5188   1
  -6  -5   5  4.2075  2.3951   1
  -6  -4  -1  2.2655  1.8618   1
  -6  -4   0 11.4654  4.2661   1
  -6  -4   1 12.5924  5.1237   1
  -6  -4   2 10.3906  2.5095   1
  -6  -4   3  2.7259  1.6304   1
  -6  -4   4  14.376  5.5383   1
  -6  -4   5  2.7559  1.8591   1
  -6  -4   6  2.7675  2.1742   1
  -6  -3  -2  1.5529  1.3057   1
  -6  -3  -1 15.2811  5.8273   1
  -6  -3   0  2.4356  1.9137   1
  -6  -3   1  1.8753  1.2909   1
  -6  -3   2 10.5792  3.6425   1
  -6  -3   3 15.4028  7.4274   1
  -6  -3   4  1.3149  0.9522   1
  -6  -3   5  9.1802  3.0894   1
  -6  -3   6  5.3589  2.8796   1
  -6  -2  -2  8.9741  4.9828   1
  -6  -2  -1  2.2552  1.6875   1
  -6  -2   0  8.4182  3.4759   1
  -6  -2   1  17.714  5.4003   1
  -6  -2   2  5.4281  1.5392   1
  -6  -2   3 12.3427  3.4146   1
  -6  -2   4 19.7194  7.8588   1
  -6  -2   5  7.7385  2.4713   1
  -6  -2   6  3.1926  2.4726   1
  -6  -1  -2  5.0913  3.5648   1
  -6  -1  -1  5.6683  2.8573   1
  -6  -1   0   6.392  3.0759   1
  -6  -1   1  1.5029  1.2015   1
  -6  -1   2   5.974  2.2102   1
  -6  -1   3  9.4027  2.3956   1
  -6  -1   4  3.3773  1.7811   1
  -6  -1   5  3.3697  1.7777   1
  -6  -1   6 11.6585  4.2746   1
  -6   0  -2  3.2422  2.2828   1
  -6   0  -1  4.0209  3.1361   1
  -6   0   0   3.608  2.4869   1
  -6   0   1 117.221 14.9908   1
  -6   0   2  3.9387  1.3106   1
  -6   0   3 10.5855  2.0682   1
  -6   0   4 22.0979  3.0802   1
  -6   0   5 21.3012  3.2332   1
  -6   0   6  3.4896  2.1832   1
  -6   1  -2  3.0211  2.3329   1
  -6   1  -1  6.6732  3.5902   1
  -6   1   0  7.0515  4.3989   1
  -6   1   1  3.1969  2.2753   1
  -6   1   2 15.4346  3.4528   1
  -6   1   3 15.1607  1.9137   1
  -6   1   4  3.7357  1.5664   1
  -6   1   5  3.3216   1.698   1
  -6   1   6  9.6238  5.3706   1
  -6   2  -2 13.9705  4.7807   1
  -6   2  -1  2.7599  1.8453   1
  -6   2   0  17.284  5.5982   1
  -6   2   1 17.5786   5.219   1
  -6   2   2  8.9541  2.8344   1
  -6   2   3 11.0845  2.6999   1
  -6   2   4 36.0814  3.8508   1
  -6   2   5  5.2396  2.1737   1
  -6   2   6  1.6329  1.2779   1
  -6   3  -2  3.9857  2.7594   1
  -6   3  -1 12.1126  4.1134   1
  -6   3   0   3.008  2.3813   1
  -6   3   1  1.2297  1.0191   1
  -6   3   2  9.9863  5.0365   1
  -6   3   3 27.8746  4.5516   1
  -6   3   4  1.4157  0.9501   1
  -6   3   5   7.454  2.4155   1
  -6   3   6  7.1912  2.4333   1
  -6   4  -1  2.0127  1.6536   1
  -6   4   0 22.1999  6.1134   1
  -6   4   1 13.0491  4.0142   1
  -6   4   2  9.4548  3.3759   1
  -6   4   3  1.6937  1.0269   1
  -6   4   4 16.0763  2.5534   1
  -6   4   5  6.4879  3.4734   1
  -6   4   6  2.2469  1.7838   1
  -6   5   1  3.1505  2.3377   1
  -6   5   2 19.7493  5.5605   1
  -6   5   3  5.0803  2.9308   1
  -6   5   4  1.8579  1.1616   1
  -6   5   5  4.3068   1.923   1
  -6   6   3  4.0936  2.2626   1
  -6   6   4  3.7004  2.3953   1
  -5 -10   1 11.5985  4.2295   1
  -5 -10   2  4.0025  2.6878   1
  -5  -9  -1  2.6263  1.8328   1
  -5  -9   0  3.0655  2.0193   1
  -5  -9   1   3.527  2.1521   1
  -5  -9   2 15.0241  3.9057   1
  -5  -9   3  8.1901  3.8983   1
  -5  -9   4  5.4598   2.844   1
  -5  -8  -2  5.1993  1.7321   1
  -5  -8  -1  2.8874   1.631   1
  -5  -8   0 14.9503   4.616   1
  -5  -8   1  23.305  6.7593   1
  -5  -8   2  1.6748  1.3581   1
  -5  -8   3  6.6261  3.4794   1
  -5  -8   4 13.8029  4.2642   1
  -5  -8   5  6.3717  3.3882   1
  -5  -7  -3  1.9939  1.6207   1
  -5  -7  -2  3.2539  1.5248   1
  -5  -7  -1 24.6953  5.7788   1
  -5  -7   0  9.2215  1.9834   1
  -5  -7   1  1.2335  0.8191   1
  -5  -7   2 15.5368  2.8725   1
  -5  -7   3 15.1405  5.1344   1
  -5  -7   4  2.0572  1.6517   1
  -5  -7   5   5.814  3.0049   1
  -5  -7   6 12.8867   4.896   1
  -5  -6  -3  4.7445  1.6595   1
  -5  -6  -2 18.1598  2.9007   1
  -5  -6  -1  3.4961  1.4058   1
  -5  -6   0 15.7389  1.7184   1
  -5  -6   1  9.0497  1.7036   1
  -5  -6   2  7.6044  4.6617   1
  -5  -6   3   11.97  3.1175   1
  -5  -6   4 51.5488 10.1564   1
  -5  -6   5  9.2203   2.146   1
  -5  -6   6  2.6198  1.9619   1
  -5  -6   7  9.2251  5.3127   1
  -5  -5  -4  3.5242  2.3043   1
  -5  -5  -3  3.3688  1.5336   1
  -5  -5  -2  9.3691  1.7716   1
  -5  -5  -1  25.135  2.1358   1
  -5  -5   0  6.8582   1.508   1
  -5  -5   1  7.2979  2.2659   1
  -5  -5   2  30.431  2.9639   1
  -5  -5   3 23.8711  3.8826   1
  -5  -5   4  3.7315  1.2978   1
  -5  -5   5  7.8252  4.0248   1
  -5  -5   6  8.6542  5.4061   1
  -5  -5   7  5.6203  3.3562   1
  -5  -4  -4  2.4203  1.8266   1
  -5  -4  -3  7.7084  1.7325   1
  -5  -4  -2 12.1952   1.535   1
  -5  -4  -1  1.0354  0.6584   1
  -5  -4   0 20.6415  1.6814   1
  -5  -4   1 27.7484  3.2847   1
  -5  -4   2  3.6368  0.8548   1
  -5  -4   3 19.9334  1.9077   1
  -5  -4   4 26.4794  5.7656   1
  -5  -4   5 16.8053  5.1531   1
  -5  -4   6  8.7973  2.9691   1
  -5  -4   7  9.4314  3.1797   1
  -5  -3  -4 27.5068  4.5364   1
  -5  -3  -3  1.6087  1.2842   1
  -5  -3  -2 28.1418  1.9854   1
  -5  -3  -1 27.3057  1.9221   1
  -5  -3   0 34.7733  1.9854   1
  -5  -3   1  8.8367  0.9728   1
  -5  -3   2 57.1038  4.5435   1
  -5  -3   3  8.4525  1.1471   1
  -5  -3   4 15.2594  1.8939   1
  -5  -3   5 24.4853  5.2396   1
  -5  -3   6  38.953 11.1054   1
  -5  -3   7  3.0449  2.1146   1
  -5  -3   8  2.9054  2.3627   1
  -5  -2  -4  5.5629  2.5727   1
  -5  -2  -3 20.6831  4.5551   1
  -5  -2  -2  4.2684  1.7097   1
  -5  -2  -1  1.7302  1.0697   1
  -5  -2   0 21.4625  1.3836   1
  -5  -2   1 45.0706  2.2867   1
  -5  -2   2  3.5838  0.8302   1
  -5  -2   3  10.665  1.3834   1
  -5  -2   4  33.714   3.598   1
  -5  -2   5 57.6775 11.0131   1
  -5  -2   6   2.736  1.4929   1
  -5  -2   7 14.3692  4.0061   1
  -5  -2   8 15.3904  5.9602   1
  -5  -1  -4  2.9581  1.6867   1
  -5  -1  -3  2.4201   1.363   1
  -5  -1  -2  8.1621  3.0725   1
  -5  -1  -1 54.9413  4.8231   1
  -5  -1   0 20.3436  2.2482   1
  -5  -1   1  8.0655  0.6639   1
  -5  -1   2 74.4354  3.7019   1
  -5  -1   3 123.356 10.2792   1
  -5  -1   4  8.6791  1.1206   1
  -5  -1   5 37.7166  3.6087   1
  -5  -1   6 18.5972  2.8187   1
  -5  -1   7 21.1184  5.9266   1
  -5  -1   8  8.7199  3.8264   1
  -5   0  -4   4.528  2.4819   1
  -5   0  -3 10.6186  2.2168   1
  -5   0  -2 18.6748   3.251   1
  -5   0  -1   7.256  3.1351   1
  -5   0   0 43.8074  3.4661   1
  -5   0   1   4.054   1.871   1
  -5   0   2 11.3334  1.0274   1
  -5   0   3  1.2554  0.7353   1
  -5   0   4  13.906  1.6719   1
  -5   0   5  12.812  1.6582   1
  -5   0   6  2.6432  1.9537   1
  -5   0   7 12.2982  3.9909   1
  -5   0   8 21.6692  5.9627   1
  -5   1  -4  6.9245  2.2893   1
  -5   1  -3   3.079  1.3969   1
  -5   1  -2  8.9596  1.6023   1
  -5   1  -1 54.7783  5.2743   1
  -5   1   0 27.8798  3.9243   1
  -5   1   1 10.5463  2.6737   1
  -5   1   2 68.5926  4.9109   1
  -5   1   3 118.335  9.6586   1
  -5   1   4 11.3042  1.1714   1
  -5   1   5 35.2043  3.4626   1
  -5   1   6 28.8455  4.8689   1
  -5   1   7 14.6931  3.7498   1
  -5   1   8  6.2332  3.9387   1
  -5   2  -3 15.7968  3.9187   1
  -5   2  -2   2.507    1.85   1
  -5   2  -1  1.4313  1.1049   1
  -5   2   0 15.6029  4.2549   1
  -5   2   1 34.6893  4.0883   1
  -5   2   2  3.6054  1.1295   1
  -5   2   3 14.2063  2.9668   1
  -5   2   4 42.0082  3.1078   1
  -5   2   5 58.8208   3.721   1
  -5   2   6  1.9764  1.1435   1
  -5   2   7 12.0285  2.9885   1
  -5   2   8 14.8254  3.6824   1
  -5   3  -2 29.2077   5.826   1
  -5   3  -1  25.901  4.4025   1
  -5   3   0 38.8449  5.2689   1
  -5   3   1 12.6671  2.6153   1
  -5   3   2 62.8337  4.1621   1
  -5   3   3  8.9264  1.5705   1
  -5   3   4 17.0989  4.0227   1
  -5   3   5 19.2021  3.3415   1
  -5   3   6 50.6927  5.3654   1
  -5   3   7   2.286  1.4784   1
  -5   3   8  3.1918   2.322   1
  -5   4  -1    2.58  1.8882   1
  -5   4   0 21.0636  3.7484   1
  -5   4   1 28.2019  4.7033   1
  -5   4   2  4.1615  1.0518   1
  -5   4   3 21.5228  2.0936   1
  -5   4   4 32.9759   3.239   1
  -5   4   5 14.3694  2.2915   1
  -5   4   6  9.0106  3.4815   1
  -5   4   7  9.9582  3.8112   1
  -5   5   1  9.2803  2.6699   1
  -5   5   2 22.6611  2.1207   1
  -5   5   3 32.2042  2.9391   1
  -5   5   4  3.4252   1.535   1
  -5   5   5 15.4309  2.5448   1
  -5   5   6  6.0799   2.222   1
  -5   5   7  8.3737  4.6912   1
  -5   6   2 10.2433   1.692   1
  -5   6   3 13.6944    2.49   1
  -5   6   4 58.3778  5.3854   1
  -5   6   5  9.1815  3.2902   1
  -5   6   6   2.274  1.7526   1
  -5   6   7 14.3303   4.533   1
  -5   7   2 24.4683  3.1348   1
  -5   7   3  22.322  3.5141   1
  -5   7   4  3.0535   1.525   1
  -5   7   5  8.9174  3.7124   1
  -5   7   6 16.6323  4.2973   1
  -5   8   2  1.5003  1.1283   1
  -5   8   3  4.8835   1.647   1
  -5   8   4  9.8198  3.4044   1
  -5   8   5  8.8302  2.9069   1
  -5   9   2 13.7984  3.0058   1
  -5   9   3  3.1688  1.8119   1
  -5   9   4  2.5673  1.7166   1
  -5  10   2  1.2432  0.9788   1
  -4 -12   1  4.8458  2.9232   1
  -4 -11  -1  3.3737  2.3292   1
  -4 -11   0  6.0476  3.4441   1
  -4 -11   1  4.2694  2.4606   1
  -4 -11   2 26.6974  4.6516   1
  -4 -11   3  5.7207  2.9257   1
  -4 -11   4  2.7043  2.3066   1
  -4 -10  -3  4.5894  2.1445   1
  -4 -10  -2  8.8149  3.3492   1
  -4 -10  -1  4.7406  3.6533   1
  -4 -10   0 13.0243  5.8905   1
  -4 -10   1 18.8771  3.7202   1
  -4 -10   2  6.9585  2.2731   1
  -4 -10   3 15.2391  4.0567   1
  -4 -10   4 13.2031  3.6615   1
  -4 -10   5  5.1139  3.0565   1
  -4  -9  -3  4.6784  2.1116   1
  -4  -9  -2 25.3018  3.6142   1
  -4  -9  -1 56.0741 12.6255   1
  -4  -9   0   4.757  1.5828   1
  -4  -9   1 13.4708  2.8496   1
  -4  -9   2 28.8229 13.6334   1
  -4  -9   3 24.6305  7.9581   1
  -4  -9   4  5.1024  2.7038   1
  -4  -9   5  9.0194  3.2083   1
  -4  -9   6  4.6067  3.3811   1
  -4  -8  -4  6.0413  2.3555   1
  -4  -8  -3  9.3959  1.7893   1
  -4  -8  -2  8.7338  1.9995   1
  -4  -8  -1  2.6933  1.1698   1
  -4  -8   0  7.1065  1.6059   1
  -4  -8   1 20.2726  2.1847   1
  -4  -8   2  11.811  1.9629   1
  -4  -8   3 17.2502  2.0485   1
  -4  -8   4   33.71  5.3541   1
  -4  -8   5 21.1575  3.9572   1
  -4  -8   6  3.9539  2.8707   1
  -4  -8   7 19.6427  5.2356   1
  -4  -7  -5  5.9286  2.2631   1
  -4  -7  -4  8.6692  2.7491   1
  -4  -7  -3  2.3136  1.3477   1
  -4  -7  -2  3.9353  1.9179   1
  -4  -7  -1 41.5855  4.3917   1
  -4  -7   0  2.5776  1.0819   1
  -4  -7   1 21.3235   2.469   1
  -4  -7   2 52.1847  5.2157   1
  -4  -7   3 25.8608  2.3461   1
  -4  -7   4   2.242  1.2731   1
  -4  -7   5 29.8664  4.5331   1
  -4  -7   6 30.5456  5.0851   1
  -4  -7   7  3.5061  2.6469   1
  -4  -6  -5   2.813  1.8215   1
  -4  -6  -4   6.582  1.6592   1
  -4  -6  -3   55.98  6.4738   1
  -4  -6  -2  1.0335  0.6671   1
  -4  -6  -1  4.8009  1.1358   1
  -4  -6   0 39.7417  2.6137   1
  -4  -6   1 94.9673  5.8801   1
  -4  -6   2  8.0226    1.29   1
  -4  -6   3  4.2403   1.042   1
  -4  -6   4 25.0689  2.0053   1
  -4  -6   5 32.1397  6.3294   1
  -4  -6   6 17.9812  3.8656   1
  -4  -6   7   8.038  2.7832   1
  -4  -6   8  5.4906   3.321   1
  -4  -5  -5 12.0951  3.1774   1
  -4  -5  -4 14.4516  1.7576   1
  -4  -5  -3  2.9599  1.1968   1
  -4  -5  -2  31.227  2.1074   1
  -4  -5  -1  36.952   3.861   1
  -4  -5   0 38.1396  2.6353   1
  -4  -5   1 18.4731  1.6358   1
  -4  -5   2 72.4878  4.3027   1
  -4  -5   3  21.224  1.5927   1
  -4  -5   4  13.298  1.5288   1
  -4  -5   5 67.9409 18.5076   1
  -4  -5   6 26.6473  4.0805   1
  -4  -5   7  6.5122  2.8745   1
  -4  -5   8  2.5944  1.8101   1
  -4  -4  -6 11.8508  3.6589   1
  -4  -4  -5  4.9803  1.5689   1
  -4  -4  -4  8.4272  1.8783   1
  -4  -4  -3 19.7826  1.5077   1
  -4  -4  -2 54.3351  3.2747   1
  -4  -4  -1 23.1012  1.6663   1
  -4  -4   0 97.7991  5.5124   1
  -4  -4   1 86.4521  8.0256   1
  -4  -4   2 33.5729  2.1535   1
  -4  -4   3 83.6265  4.0953   1
  -4  -4   4 81.6458  4.5046   1
  -4  -4   5 22.6294  3.0221   1
  -4  -4   6   5.352   1.594   1
  -4  -4   7 32.9372  4.2969   1
  -4  -4   8 11.9175  4.9894   1
  -4  -3  -6  5.3227  1.8697   1
  -4  -3  -5 16.8097  2.0321   1
  -4  -3  -4  5.5762  1.3744   1
  -4  -3  -3  0.8725  0.6115   1
  -4  -3  -2 32.1848  1.7133   1
  -4  -3  -1 33.6983  1.6877   1
  -4  -3   0  4.5344  0.6257   1
  -4  -3   1  2.1434  0.6995   1
  -4  -3   2 27.2399  1.8362   1
  -4  -3   3 104.647  5.2786   1
  -4  -3   4   2.241  0.7557   1
  -4  -3   5 33.0409  2.6019   1
  -4  -3   6 67.4991 16.9152   1
  -4  -3   7  7.6939  2.3635   1
  -4  -3   8  3.0559  2.3646   1
  -4  -3   9  4.4451  2.9572   1
  -4  -2  -6 10.3605  2.2505   1
  -4  -2  -5  6.5044  1.1886   1
  -4  -2  -4 10.5096  1.3683   1
  -4  -2  -3 29.7323  2.0003   1
  -4  -2  -2  101.02  4.7237   1
  -4  -2  -1 19.9207  1.1423   1
  -4  -2   0 143.463  7.6682   1
  -4  -2   1 94.8792   7.546   1
  -4  -2   2 52.1589  2.3243   1
  -4  -2   3 67.2897  3.3019   1
  -4  -2   4 87.8122  4.8035   1
  -4  -2   5  6.1984  1.2641   1
  -4  -2   6 17.8435  3.7205   1
  -4  -2   7 44.3364 12.2713   1
  -4  -2   8 11.5785  7.3943   1
  -4  -2   9  4.3931  2.7806   1
  -4  -1  -6  4.0715  2.8282   1
  -4  -1  -5 14.3892  1.8023   1
  -4  -1  -4  7.4857  1.1422   1
  -4  -1  -3  2.9393  0.9129   1
  -4  -1  -2 58.1319  3.0529   1
  -4  -1  -1 37.1123  2.4329   1
  -4  -1   0 38.8472  1.7361   1
  -4  -1   1 25.3277  1.3681   1
  -4  -1   2 109.685   4.846   1
  -4  -1   3 39.2931  2.3744   1
  -4  -1   4 10.4327  1.1728   1
  -4  -1   5   9.199   1.623   1
  -4  -1   6 52.0745  3.5031   1
  -4  -1   7 22.3871  2.5228   1
  -4  -1   8  2.3597  1.7963   1
  -4  -1   9 14.5873  5.9339   1
  -4   0  -6  3.4881  2.4843   1
  -4   0  -5  24.317  5.3616   1
  -4   0  -4 19.2009  1.3156   1
  -4   0  -3 72.2174  8.9784   1
  -4   0  -2  2.2881  1.2458   1
  -4   0  -1  0.9723  0.7625   1
  -4   0   0 60.0119  3.5126   1
  -4   0   1 146.976  5.5166   1
  -4   0   2 23.2195  1.7742   1
  -4   0   3 21.7343  1.3401   1
  -4   0   4 287.693 16.1245   1
  -4   0   5 124.777  7.4995   1
  -4   0   6 66.4976  4.4262   1
  -4   0   7 19.8649  1.9073   1
  -4   0   8  7.0187  2.1273   1
  -4   0   9  5.8442   3.461   1
  -4   1  -6  2.3301  1.7718   1
  -4   1  -5 16.5208  2.3356   1
  -4   1  -4  6.2484  0.8934   1
  -4   1  -3  2.7004  1.4976   1
  -4   1  -2 55.7699  3.5391   1
  -4   1  -1 36.1224  3.1143   1
  -4   1   0 39.7482  2.6889   1
  -4   1   1 21.8967   1.213   1
  -4   1   2 99.6806  4.8387   1
  -4   1   3 50.3615  2.2353   1
  -4   1   4 13.4375  1.1766   1
  -4   1   5 14.9972  1.3878   1
  -4   1   6 60.4682  4.1065   1
  -4   1   7 29.6198  2.6519   1
  -4   1   8  3.4968  1.7639   1
  -4   1   9 13.1102  5.7106   1
  -4   2  -6  7.2626  3.3538   1
  -4   2  -5  3.0319   1.795   1
  -4   2  -4  9.8786  1.1651   1
  -4   2  -3 29.0728  3.7467   1
  -4   2  -2 92.7713  6.4672   1
  -4   2  -1   23.34  2.1373   1
  -4   2   0 159.322 14.6475   1
  -4   2   1 105.504  5.8734   1
  -4   2   2 69.2073  6.1775   1
  -4   2   3 79.4029  4.5622   1
  -4   2   4  86.994   4.498   1
  -4   2   5  2.9272  0.8162   1
  -4   2   6 15.4303   1.765   1
  -4   2   7 45.5608  3.6424   1
  -4   2   8 12.8317  2.6205   1
  -4   2   9  4.9982  3.8005   1
  -4   3  -6  4.5077  2.9452   1
  -4   3  -5 12.6316  3.4307   1
  -4   3  -4  6.5166  1.0472   1
  -4   3  -3  1.1376  0.9052   1
  -4   3  -2 25.8192  2.3122   1
  -4   3  -1 31.5453  3.3598   1
  -4   3   0  5.4067  1.6243   1
  -4   3   1  4.3171  1.2623   1
  -4   3   2 26.6798  3.9549   1
  -4   3   3 118.238  6.7039   1
  -4   3   4  3.9616   0.836   1
  -4   3   5 38.7267  3.4303   1
  -4   3   6  81.039  4.9062   1
  -4   3   7   4.492  1.3535   1
  -4   3   8  4.5793  2.1803   1
  -4   3   9  7.5455  4.9677   1
  -4   4  -6  5.4795  3.2813   1
  -4   4  -5  1.8592  1.3037   1
  -4   4  -4  8.6147  1.5163   1
  -4   4  -3 21.3413  3.2965   1
  -4   4  -1 21.6093  2.7891   1
  -4   4   0 87.3435  7.5744   1
  -4   4   1 106.812  6.3963   1
  -4   4   2 30.2626  5.3133   1
  -4   4   3 90.9812  7.3441   1
  -4   4   4 81.2946  5.5714   1
  -4   4   5 31.6376  3.3781   1
  -4   4   6  8.7696  1.3427   1
  -4   4   7 24.6196  2.4872   1
  -4   4   8 11.1927  2.7808   1
  -4   5  -5  7.5064  3.6492   1
  -4   5  -4 13.3762  5.2742   1
  -4   5   1 21.6519  1.8187   1
  -4   5   2 69.6017   4.512   1
  -4   5   3 20.8771  1.7434   1
  -4   5   4 12.4322  3.3772   1
  -4   5   5 91.9037  6.6013   1
  -4   5   6 33.3832  3.2718   1
  -4   5   7  9.3192   3.494   1
  -4   5   8  2.3155  1.6396   1
  -4   6   1 103.495  8.9823   1
  -4   6   2  9.9345  1.6946   1
  -4   6   3 10.3541  2.0285   1
  -4   6   4 30.0647  3.4607   1
  -4   6   5 43.0133  5.3483   1
  -4   6   6 21.3235  4.3652   1
  -4   6   7 10.0892  3.7463   1
  -4   6   8 10.1272  5.0181   1
  -4   7   1 22.0865   2.476   1
  -4   7   2 65.7335  6.2796   1
  -4   7   3 36.8642  3.1662   1
  -4   7   4  4.3321  2.0522   1
  -4   7   5 25.3972  4.0924   1
  -4   7   6 22.4421  5.2306   1
  -4   7   7 10.6988  4.4697   1
  -4   8   1 11.8722   2.414   1
  -4   8   2 13.8267  1.8583   1
  -4   8   3 30.6569  4.4922   1
  -4   8   4 47.5446  5.6721   1
  -4   8   5  8.9222  2.5779   1
  -4   8   6  2.2161  1.6319   1
  -4   8   7 17.3912  5.0476   1
  -4   9   1 15.5229  3.3288   1
  -4   9   2  39.764  4.9973   1
  -4   9   3 24.9205  4.6496   1
  -4   9   4  6.7109  2.8118   1
  -4   9   5 14.8052  3.9851   1
  -4   9   6 11.0916  5.1666   1
  -4  10   1 35.0989  5.0824   1
  -4  10   2  4.5897  2.3303   1
  -4  10   3 17.7453  3.6973   1
  -4  10   4  8.0937  3.4369   1
  -4  10   5  4.8927   2.786   1
  -4  11   1  7.2634  3.2332   1
  -4  11   2 27.0074  4.5664   1
  -4  11   3  9.2906  2.8086   1
  -4  11   4  4.0998  2.8989   1
  -4  12   1  5.6749  3.1505   1
  -3 -13   0  2.5354  2.1373   1
  -3 -13   1  2.8791  2.0399   1
  -3 -13   2   5.779  3.3804   1
  -3 -12  -2 19.4337  5.5796   1
  -3 -12  -1  12.603  4.9478   1
  -3 -12   0 10.9655  5.4676   1
  -3 -12   1  8.6658  2.4771   1
  -3 -12   2  1.9196  1.5031   1
  -3 -12   3 18.7729  4.7355   1
  -3 -12   4 26.4575  7.3257   1
  -3 -11  -3  3.3533  2.1057   1
  -3 -11  -2  14.284  3.3499   1
  -3 -11  -1 20.7129  3.2038   1
  -3 -11   0  4.4113  2.0581   1
  -3 -11   1  6.6967  3.3599   1
  -3 -11   2 41.0047  5.6791   1
  -3 -11   3 11.8682  3.2966   1
  -3 -11   4  0.9322  0.8254   1
  -3 -11   5  7.3746  3.9766   1
  -3 -11   6  9.2981  4.0305   1
  -3 -10  -4  9.2182   3.035   1
  -3 -10  -3 15.0217  3.1468   1
  -3 -10  -2  6.1224  1.8931   1
  -3 -10  -1 15.6321  5.2591   1
  -3 -10   0 64.2821 10.9337   1
  -3 -10   1 43.7953 13.9138   1
  -3 -10   2 10.4216  2.6688   1
  -3 -10   3 26.4669  3.9858   1
  -3 -10   4 20.9332   4.303   1
  -3 -10   5  6.3636  3.6698   1
  -3 -10   6  6.9845  3.8281   1
  -3  -9  -5  8.9066  2.3144   1
  -3  -9  -4  18.094  2.6433   1
  -3  -9  -3  5.9129  2.1461   1
  -3  -9  -2 17.6311  1.8831   1
  -3  -9  -1 11.8313  2.2048   1
  -3  -9   0 19.7188  1.9409   1
  -3  -9   1  18.906  3.4585   1
  -3  -9   2  7.8403  1.8162   1
  -3  -9   3  5.6857  1.9395   1
  -3  -9   4  4.5051  2.0108   1
  -3  -9   5  36.011  6.3916   1
  -3  -9   6 32.8356  6.5724   1
  -3  -9   7  3.5151  2.5085   1
  -3  -8  -6  1.7722  1.3461   1
  -3  -8  -5  2.0852  1.2587   1
  -3  -8  -4   8.652  1.6288   1
  -3  -8  -3 43.4531  7.4594   1
  -3  -8  -2  5.1526  1.2728   1
  -3  -8  -1   2.486  1.2517   1
  -3  -8   0 105.719  6.1556   1
  -3  -8   1 127.137  6.8232   1
  -3  -8   2 19.6551  2.7059   1
  -3  -8   3 48.2216  4.2315   1
  -3  -8   4 100.983  9.8304   1
  -3  -8   5  9.7858  3.9604   1
  -3  -8   6  8.1861  3.8353   1
  -3  -8   7 10.2374  4.4163   1
  -3  -8   8  5.3762  3.4744   1
  -3  -7  -6  6.6465  2.2707   1
  -3  -7  -5 20.8344  2.6335   1
  -3  -7  -4 17.6184  2.6069   1
  -3  -7  -3  1.1554  0.8373   1
  -3  -7  -2 68.1189  4.4056   1
  -3  -7  -1 80.5909  4.3568   1
  -3  -7   0 29.7596  1.7854   1
  -3  -7   1 13.0509  1.5302   1
  -3  -7   2 104.379  7.5822   1
  -3  -7   3 122.595  9.2245   1
  -3  -7   4 10.0083  1.3779   1
  -3  -7   5 10.3374  3.8709   1
  -3  -7   6 36.6168 10.6944   1
  -3  -7   7  9.6804  4.6518   1
  -3  -7   8  4.0745  2.6459   1
  -3  -6  -6 16.6193  2.9931   1
  -3  -6  -5  2.3167  1.2845   1
  -3  -6  -4 17.2146  1.5431   1
  -3  -6  -3 51.7965  3.0175   1
  -3  -6  -2 43.3346  3.4641   1
  -3  -6  -1 54.6493  3.4832   1
  -3  -6   0 96.6421   4.549   1
  -3  -6   1 53.0518   4.957   1
  -3  -6   2 11.5747  1.5156   1
  -3  -6   3 38.5228  2.5148   1
  -3  -6   4 56.2907  5.9301   1
  -3  -6   5 20.7969  5.8231   1
  -3  -6   6  9.9451  2.2193   1
  -3  -6   7 57.2873  6.9641   1
  -3  -6   8 12.4747  5.5913   1
  -3  -5  -7  3.8048  2.6607   1
  -3  -5  -6  5.0716  2.0587   1
  -3  -5  -5 23.6797  2.7486   1
  -3  -5  -4 18.1537  1.4562   1
  -3  -5  -3 37.5565  2.7991   1
  -3  -5  -2 71.3117  5.6205   1
  -3  -5  -1 114.017  5.3055   1
  -3  -5   0 25.4459  1.5053   1
  -3  -5   1 38.2665  2.2379   1
  -3  -5   2 202.025  9.4658   1
  -3  -5   3 69.8148  3.4176   1
  -3  -5   4 19.2013   2.364   1
  -3  -5   5 53.5915  3.7222   1
  -3  -5   6 33.8193  2.7518   1
  -3  -5   7 22.3487  3.1751   1
  -3  -5   8 15.8591  3.9838   1
  -3  -5   9  7.7969  4.7784   1
  -3  -4  -7  3.9569  3.0745   1
  -3  -4  -6  8.7307   1.821   1
  -3  -4  -5  1.2606  0.7851   1
  -3  -4  -4 40.6618  2.7305   1
  -3  -4  -3 65.1958  3.2918   1
  -3  -4  -2 18.0159  1.1048   1
  -3  -4  -1  3.4683  0.6615   1
  -3  -4   0 52.8584  2.3298   1
  -3  -4   1 83.4994  4.1318   1
  -3  -4   2  7.4492   1.551   1
  -3  -4   3 78.1992    3.88   1
  -3  -4   4 91.8853  5.2977   1
  -3  -4   5 41.0204   3.118   1
  -3  -4   6  9.0498  3.0138   1
  -3  -4   7 37.3715  5.7373   1
  -3  -4   8 12.6706  3.7678   1
  -3  -4   9  2.3536    1.93   1
  -3  -3  -7  2.9393  2.2098   1
  -3  -3  -6  3.6576  2.3975   1
  -3  -3  -5  2.8026  1.2196   1
  -3  -3  -4 106.718  5.1477   1
  -3  -3  -3 39.0672  2.3099   1
  -3  -3  -2 52.6298  3.1137   1
  -3  -3  -1 207.595  9.2547   1
  -3  -3   0 123.335  5.0459   1
  -3  -3   1 364.829 13.9796   1
  -3  -3   2 185.883 14.0205   1
  -3  -3   3 73.1208  3.6087   1
  -3  -3   4   17.23  1.5151   1
  -3  -3   5 164.958 16.7679   1
  -3  -3   6 59.7346  4.5894   1
  -3  -3   7  6.6211  3.3602   1
  -3  -3   8  3.8743   1.988   1
  -3  -3   9 26.2362  6.1921   1
  -3  -2  -7 10.8462  4.9798   1
  -3  -2  -6  9.4937  4.0829   1
  -3  -2  -5  7.3584  1.4085   1
  -3  -2  -4 55.9421  3.3219   1
  -3  -2  -3 87.3805  3.6872   1
  -3  -2  -2  5.0661  0.5997   1
  -3  -2  -1 34.6315   1.466   1
  -3  -2   0 127.408  5.1032   1
  -3  -2   1 181.396  9.0674   1
  -3  -2   2 19.1427  2.3347   1
  -3  -2   3 55.5133  3.4118   1
  -3  -2   4 145.563    7.31   1
  -3  -2   5 48.5068  3.9119   1
  -3  -2   6 15.7032  1.9618   1
  -3  -2   7  57.192  5.8521   1
  -3  -2   8 63.8039  6.0577   1
  -3  -2   9  3.9892  2.9442   1
  -3  -1  -7  7.1929  4.3249   1
  -3  -1  -6 11.4133  5.3874   1
  -3  -1  -5 87.8301   7.303   1
  -3  -1  -4 43.4029  5.9092   1
  -3  -1  -3 19.1537  1.3426   1
  -3  -1  -2 108.536  4.3652   1
  -3  -1  -1 260.489 10.3633   1
  -3  -1   0 139.752  5.5354   1
  -3  -1   1 107.049  5.6375   1
  -3  -1   2 329.644 16.1925   1
  -3  -1   3 47.8122  3.4253   1
  -3  -1   4 43.1853  2.0721   1
  -3  -1   5 103.674 16.0499   1
  -3  -1   6 133.053  8.6075   1
  -3  -1   7 10.2237  1.8742   1
  -3  -1   8  30.797 10.1049   1
  -3  -1   9  7.9507  4.3917   1
  -3   0  -7  5.9878  4.2893   1
  -3   0  -6   1.599  1.1372   1
  -3   0  -5  15.795   2.031   1
  -3   0  -4  4.0842   0.928   1
  -3   0  -3  5.9046  0.8704   1
  -3   0  -2 78.5111    3.10   1
  -3   0  -1 79.7086  4.2668   1
  -3   0   0 137.751  6.8418   1
  -3   0   1 27.9068  1.5663   1
  -3   0   2 42.7095   1.915   1
  -3   0   3 164.569  6.6258   1
  -3   0   4  116.11  5.2658   1
  -3   0   5 53.7903  2.8672   1
  -3   0   6  1.2813  0.8802   1
  -3   0   7 13.0684  4.2788   1
  -3   0   8 22.1515  4.4086   1
  -3   0   9  3.9993   2.656   1
  -3   1  -7  4.4136  3.0009   1
  -3   1  -6  8.6624  1.8009   1
  -3   1  -5 76.4171  7.6215   1
  -3   1  -4 41.5355   7.018   1
  -3   1  -3 19.9392  1.6478   1
  -3   1  -2 103.553  3.8805   1
  -3   1  -1 227.128 10.8721   1
  -3   1   0 156.967   7.066   1
  -3   1   1 141.171   5.776   1
  -3   1   2  371.62 12.5179   1
  -3   1   3 44.6131  1.8985   1
  -3   1   4 40.2688  2.1666   1
  -3   1   5 111.033  5.3146   1
  -3   1   6  108.76  6.7682   1
  -3   1   7  9.1258  1.6556   1
  -3   1   8 30.4761 17.9319   1
  -3   1   9   11.74  3.9872   1
  -3   2  -7   8.127  3.4626   1
  -3   2  -6  10.701  2.0957   1
  -3   2  -5  7.5274  2.2482   1
  -3   2  -4 55.2977  3.8824   1
  -3   2  -3 98.8463  5.8714   1
  -3   2  -2   2.437  0.5664   1
  -3   2  -1 28.6508  2.0652   1
  -3   2   0 121.457  8.1246   1
  -3   2   1 160.588  7.8143   1
  -3   2   2 18.1996  1.1367   1
  -3   2   3 37.0519  1.7991   1
  -3   2   4 163.147  7.1973   1
  -3   2   5   63.55  3.1539   1
  -3   2   6 21.5461  1.6367   1
  -3   2   7 65.6844  4.3741   1
  -3   2   8 60.3459  5.1042   1
  -3   2   9  4.9279  3.6191   1
  -3   3  -7  3.4971   2.702   1
  -3   3  -6  1.9179  1.2637   1
  -3   3  -5  6.5806  2.9603   1
  -3   3  -4 87.2487  6.0053   1
  -3   3  -3 38.7159  3.0672   1
  -3   3  -2 57.0619  6.6915   1
  -3   3  -1 188.193 15.6705   1
  -3   3   0 120.717  6.3103   1
  -3   3   1 394.363 18.1677   1
  -3   3   2 210.608 10.2072   1
  -3   3   3 80.8008  3.9874   1
  -3   3   4 16.1881  0.9485   1
  -3   3   5 168.712   7.889   1
  -3   3   6 61.9261  3.2142   1
  -3   3   7  7.9809  1.1078   1
  -3   3   8  1.8351  1.1522   1
  -3   3   9 21.4752  5.6525   1
  -3   4  -7   1.681  1.4002   1
  -3   4  -6  9.4539  2.4573   1
  -3   4  -5  1.9505  1.3899   1
  -3   4  -4 43.5833  3.3039   1
  -3   4  -3 65.9719  3.7628   1
  -3   4  -2 23.2217  2.8567   1
  -3   4   0 44.3578   2.663   1
  -3   4   1 108.604  5.7255   1
  -3   4   2   5.259  0.7756   1
  -3   4   3 81.5617  5.8829   1
  -3   4   4 101.048  5.8949   1
  -3   4   5 41.0115  2.7185   1
  -3   4   6 10.2259  1.3012   1
  -3   4   7 38.4962  4.5762   1
  -3   4   8 12.1857  2.0919   1
  -3   4   9  3.7144  2.8747   1
  -3   5  -7  6.6202  3.2638   1
  -3   5  -6  4.5939  1.9225   1
  -3   5  -5 23.1427  2.6601   1
  -3   5  -4   11.64    1.55   1
  -3   5  -3 34.1168  3.0297   1
  -3   5  -2 93.7317  6.8425   1
  -3   5   0 18.4004  1.8228   1
  -3   5   1 26.7988  2.0512   1
  -3   5   2 203.364 15.5518   1
  -3   5   3 79.0084  6.1089   1
  -3   5   4 29.3646  2.8723   1
  -3   5   5 50.1439  5.8083   1
  -3   5   6 29.2993    4.80   1
  -3   5   7 18.2476  2.4812   1
  -3   5   8 15.6869  6.5948   1
  -3   5   9  5.2964  2.9633   1
  -3   6  -6 10.3625  4.3236   1
  -3   6  -5  1.2212  0.8572   1
  -3   6  -4 12.7669  2.1683   1
  -3   6  -3 59.1397  5.1413   1
  -3   6  -2  37.181  3.2007   1
  -3   6   0 97.4274  6.7283   1
  -3   6   1 52.6196   3.738   1
  -3   6   2  8.8673  1.6626   1
  -3   6   3 35.1089  3.3479   1
  -3   6   4 62.6923  5.7405   1
  -3   6   5  21.988  3.4846   1
  -3   6   6  5.6884  1.9105   1
  -3   6   7 61.6338  9.1186   1
  -3   6   8 15.7369  5.1401   1
  -3   7  -5 14.2538  3.1535   1
  -3   7  -4 20.0106  3.7026   1
  -3   7  -3  1.4174  1.0076   1
  -3   7  -2 74.3623  6.2806   1
  -3   7   0 40.8551  3.6205   1
  -3   7   1 19.1264  2.2531   1
  -3   7   2 98.4056  8.4092   1
  -3   7   3 113.701  9.8128   1
  -3   7   4  9.7305  1.6955   1
  -3   7   5 23.2184  3.6557   1
  -3   7   6 44.1059  5.5006   1
  -3   7   7 10.4849  3.5278   1
  -3   7   8  5.0751  3.1529   1
  -3   8  -4  5.8379  2.2991   1
  -3   8  -3 38.9002  6.2597   1
  -3   8  -2  7.8485  2.2941   1
  -3   8   0  124.32 11.5519   1
  -3   8   1 128.394 12.9907   1
  -3   8   2 24.1312   2.874   1
  -3   8   3 47.0674  4.7536   1
  -3   8   4 125.751 11.9444   1
  -3   8   5 13.8385  3.1467   1
  -3   8   6  4.0393  2.6499   1
  -3   8   7  6.9122  3.2509   1
  -3   8   8  6.3081  4.2365   1
  -3   9  -4 16.4361  3.4181   1
  -3   9  -3  5.3611  2.1777   1
  -3   9   0 23.1168   2.227   1
  -3   9   1 20.6312  3.0033   1
  -3   9   2 22.9218  3.1567   1
  -3   9   3  5.0497  1.9655   1
  -3   9   4  1.4014  1.0257   1
  -3   9   5 40.9648  5.3501   1
  -3   9   6 31.8194  5.7728   1
  -3   9   7  3.5559  2.7462   1
  -3  10  -3   5.138  1.8484   1
  -3  10   0 58.2551  6.8119   1
  -3  10   1 39.3568  4.9206   1
  -3  10   2  7.5461  2.0046   1
  -3  10   3 24.6403  4.5047   1
  -3  10   4 18.5154  3.5906   1
  -3  10   5  3.4623  2.2366   1
  -3  10   6  1.8311  1.4679   1
  -3  11   0  3.7103  2.1119   1
  -3  11   1  6.2503  2.4306   1
  -3  11   2 38.9681  5.1952   1
  -3  11   3 19.8964  3.5159   1
  -3  11   4  3.8308  2.6205   1
  -3  11   5  6.8283  3.3999   1
  -3  11   6  5.1534  2.9443   1
  -3  12   1 10.9655  3.6447   1
  -3  12   2  2.1254  1.7564   1
  -3  12   3 22.4252  5.1047   1
  -3  12   4  29.324  6.5783   1
  -3  13   1  4.2993  2.9763   1
  -3  13   2 10.5406  4.2204   1
  -2 -14   0   7.151  4.3138   1
  -2 -14   1   5.751   3.192   1
  -2 -14   2  1.5733  1.2791   1
  -2 -13  -3  3.1044  2.5006   1
  -2 -13  -2  8.5611  4.1458   1
  -2 -13  -1  19.633  5.2537   1
  -2 -13   0   2.626  1.8693   1
  -2 -13   1  6.6274  3.8615   1
  -2 -13   2  24.263  6.2214   1
  -2 -13   3 11.0431  4.8154   1
  -2 -13   4  1.7633  1.4941   1
  -2 -12  -4   7.442   4.178   1
  -2 -12  -3  7.3402  3.2912   1
  -2 -12  -2  2.4236  1.9807   1
  -2 -12  -1  2.4398  1.7685   1
  -2 -12   0 18.8566  3.4949   1
  -2 -12   1 19.5888  3.9469   1
  -2 -12   2  4.5112  2.8868   1
  -2 -12   3  4.0147  2.6471   1
  -2 -12   4 19.9407  4.8657   1
  -2 -12   5  3.6248  2.6556   1
  -2 -11  -5 16.6035   2.981   1
  -2 -11  -4 21.9856  5.5785   1
  -2 -11  -3  9.3599  2.9088   1
  -2 -11  -2 21.3905  4.9711   1
  -2 -11  -1 57.1261  6.6255   1
  -2 -11   0  6.6799  3.5003   1
  -2 -11   1 31.6513  4.8087   1
  -2 -11   2  37.582  4.4929   1
  -2 -11   3  4.5224   2.558   1
  -2 -11   4  3.9131  2.2905   1
  -2 -11   5 44.5151  8.9386   1
  -2 -11   6  6.1454   3.893   1
  -2 -10  -5  8.3381  2.1514   1
  -2 -10  -4 20.7915  4.3108   1
  -2 -10  -3 20.9162    3.60   1
  -2 -10  -2  6.2632  3.3663   1
  -2 -10  -1 15.9463  1.9188   1
  -2 -10   0  28.065  2.8941   1
  -2 -10   1 63.1092  5.3703   1
  -2 -10   2 18.6765  4.0174   1
  -2 -10   3 43.2279  4.4514   1
  -2 -10   4 33.8887  6.0029   1
  -2 -10   5   4.814  2.5101   1
  -2 -10   6  4.5581  2.6138   1
  -2 -10   7 18.4483  5.2477   1
  -2  -9  -6 12.4463   3.843   1
  -2  -9  -5   9.237  2.1006   1
  -2  -9  -4 10.4376  2.0656   1
  -2  -9  -3  7.6172  1.5122   1
  -2  -9  -2 84.7883  6.6709   1
  -2  -9  -1 86.5503  5.1379   1
  -2  -9   0  4.4103  1.4123   1
  -2  -9   1 55.6404  4.1403   1
  -2  -9   2 227.648  17.182   1
  -2  -9   3 41.3894  3.2147   1
  -2  -9   4 18.4506  3.3883   1
  -2  -9   5 41.6458  6.7816   1
  -2  -9   6 31.3229  4.7976   1
  -2  -9   7   4.227  2.4946   1
  -2  -8  -7  3.2854  2.4954   1
  -2  -8  -6 12.8795  2.8671   1
  -2  -8  -5  8.3245  1.9257   1
  -2  -8  -4 35.1568  2.4985   1
  -2  -8  -3  72.553  5.0859   1
  -2  -8  -2 67.2341  5.3741   1
  -2  -8  -1 54.5515  4.2634   1
  -2  -8   0 39.2354  3.2037   1
  -2  -8   1 26.7386  4.5071   1
  -2  -8   2  3.0727  2.2417   1
  -2  -8   3  9.6385  1.4387   1
  -2  -8   4 67.3946  5.4067   1
  -2  -8   5 12.0689  2.0369   1
  -2  -8   6  1.7165  1.3203   1
  -2  -8   7 34.5628  5.8355   1
  -2  -8   8 11.0033  4.8645   1
  -2  -7  -7  3.5297  2.5108   1
  -2  -7  -6 11.2048   1.774   1
  -2  -7  -5 35.5395   3.603   1
  -2  -7  -4 38.0349  2.7419   1
  -2  -7  -3  9.6828  1.4012   1
  -2  -7  -2 91.1428  6.8324   1
  -2  -7  -1 87.6387  4.2217   1
  -2  -7   0  13.442  1.6405   1
  -2  -7   1 44.4631  2.4679   1
  -2  -7   2 202.807 10.5326   1
  -2  -7   3 19.9553  1.4583   1
  -2  -7   4 43.5969  2.5612   1
  -2  -7   5 40.1443  3.7576   1
  -2  -7   6 33.5282   5.832   1
  -2  -7   7   7.257  2.6246   1
  -2  -7   8  5.9051  3.3321   1
  -2  -6  -7  9.5762  4.1589   1
  -2  -6  -6  1.1842   0.907   1
  -2  -6  -5 24.0713  2.1786   1
  -2  -6  -4 51.6436  3.3808   1
  -2  -6  -3 18.2036  1.7979   1
  -2  -6  -2  1.6329  0.7078   1
  -2  -6  -1  0.6489  0.4165   1
  -2  -6   0 473.705 20.5098   1
  -2  -6   1 66.4777   3.652   1
  -2  -6   2 13.8787   1.315   1
  -2  -6   3  8.5065  0.9684   1
  -2  -6   4 204.746 17.8465   1
  -2  -6   5 52.9114  3.8822   1
  -2  -6   6 35.4445  11.705   1
  -2  -6   7  5.3985  2.3222   1
  -2  -6   8 17.8936   5.498   1
  -2  -6   9  2.0038  1.6828   1
  -2  -5  -8   8.903  4.8407   1
  -2  -5  -7   3.493  2.7396   1
  -2  -5  -6  5.1133  1.7199   1
  -2  -5  -5 64.6591  6.1984   1
  -2  -5  -4 59.7761  3.0711   1
  -2  -5  -3 34.9493  1.6539   1
  -2  -5  -2 140.797  5.6761   1
  -2  -5  -1 149.362 12.6739   1
  -2  -5   0 33.5049  2.0275   1
  -2  -5   1 75.3719  3.4852   1
  -2  -5   2 247.264 10.4627   1
  -2  -5   3 73.9484  7.8959   1
  -2  -5   4 31.5348  2.4117   1
  -2  -5   5  114.86  6.5816   1
  -2  -5   6 38.3201  3.2518   1
  -2  -5   7  3.8201  1.9452   1
  -2  -5   8  8.6038  3.4729   1
  -2  -5   9 21.7911  7.6696   1
  -2  -4  -8  2.5983  2.0391   1
  -2  -4  -7 11.2704  4.1027   1
  -2  -4  -6 30.6508  10.233   1
  -2  -4  -5 51.7967  3.2093   1
  -2  -4  -4 87.3389  3.9314   1
  -2  -4  -3 175.779  7.2353   1
  -2  -4  -2 80.5377  5.9385   1
  -2  -4  -1 120.679  4.5604   1
  -2  -4   0 156.741  5.5258   1
  -2  -4   1 181.677  6.9456   1
  -2  -4   2 46.9378   2.774   1
  -2  -4   3 509.763 19.5411   1
  -2  -4   4 125.469  6.3825   1
  -2  -4   5  9.1154  1.5132   1
  -2  -4   6  19.551  2.0197   1
  -2  -4   7  95.901 16.9905   1
  -2  -4   8 30.9218  5.4472   1
  -2  -4   9  3.0175  2.2534   1
  -2  -3  -8  6.1175  3.5798   1
  -2  -3  -7  4.0496   2.008   1
  -2  -3  -6 53.3828  4.9859   1
  -2  -3  -5 43.7028  2.6286   1
  -2  -3  -4 17.6305  1.2518   1
  -2  -3  -3  4.0923  0.9206   1
  -2  -3  -2 302.524  10.093   1
  -2  -3  -1 130.197  6.1908   1
  -2  -3   0  5.8676  0.5375   1
  -2  -3   1 110.382  3.8795   1
  -2  -3   2 13.5722  1.0566   1
  -2  -3   3  94.974  4.1217   1
  -2  -3   4  1.5725  1.0903   1
  -2  -3   5 26.9636  2.5707   1
  -2  -3   6 157.706   9.769   1
  -2  -3   7  5.8039  4.0155   1
  -2  -3   8 35.2349  5.6811   1
  -2  -3   9 11.4362   3.989   1
  -2  -2  -8  4.4368   3.159   1
  -2  -2  -7 11.2296  2.2806   1
  -2  -2  -6 63.2716 10.7229   1
  -2  -2  -5 30.5003  2.1075   1
  -2  -2  -4 56.4795  4.7969   1
  -2  -2  -3 142.202  7.6831   1
  -2  -2  -2 63.8672  2.5042   1
  -2  -2  -1 244.229  7.6258   1
  -2  -2   0 211.466 11.4886   1
  -2  -2   1 547.603 28.3958   1
  -2  -2   2 16.3283  1.2528   1
  -2  -2   3 567.043 29.8347   1
  -2  -2   4 199.725  8.3853   1
  -2  -2   5  1.4878  0.7537   1
  -2  -2   6 15.9999   2.567   1
  -2  -2   7 71.1203 13.4788   1
  -2  -2   8  9.9902  2.7999   1
  -2  -2   9  2.3842  1.7951   1
  -2  -2  10  6.9258  4.0678   1
  -2  -1  -8 10.9407  4.9727   1
  -2  -1  -7   4.924  2.2479   1
  -2  -1  -6 10.5928  2.0289   1
  -2  -1  -5 82.2038   5.135   1
  -2  -1  -4  1.8134  0.6253   1
  -2  -1  -3 52.6301   2.383   1
  -2  -1  -2 159.156  5.7458   1
  -2  -1  -1 78.9033  2.6008   1
  -2  -1   0 23.7479  1.2133   1
  -2  -1   1 222.279  6.9565   1
  -2  -1   2 278.846 19.5339   1
  -2  -1   3 255.855  9.9066   1
  -2  -1   4  1.1165  0.7399   1
  -2  -1   5 145.944  7.5885   1
  -2  -1   6  92.759  5.5057   1
  -2  -1   7 15.7288  3.9032   1
  -2  -1   8  18.028  2.6081   1
  -2  -1   9 40.4532  6.3606   1
  -2  -1  10  7.9749  4.4861   1
  -2   0  -8 11.8799  5.8348   1
  -2   0  -7 11.0372  4.0263   1
  -2   0  -6  2.8675  1.4975   1
  -2   0  -5 32.6979  6.0783   1
  -2   0  -4 321.043 18.8718   1
  -2   0  -3 776.287 40.1721   1
  -2   0  -2 106.023  5.8913   1
  -2   0  -1  5.6712  0.3678   1
  -2   0   1 66.8459  3.4663   1
  -2   0   2  51.738  2.0026   1
  -2   0   3 24.0698  1.3962   1
  -2   0   4 181.944  7.5512   1
  -2   0   5 62.3829  3.5067   1
  -2   0   6 128.219 28.3928   1
  -2   0   7 68.5832  6.0124   1
  -2   0   8 48.1354 16.0603   1
  -2   0   9  1.5052  1.2573   1
  -2   0  10 15.2258  6.9474   1
  -2   1  -8  6.2618  5.3083   1
  -2   1  -7  2.2993  1.4967   1
  -2   1  -6 13.8529  2.2729   1
  -2   1  -5 99.1578  6.5613   1
  -2   1  -4  6.5803  3.3514   1
  -2   1  -3 52.9284   2.437   1
  -2   1  -2 207.607  7.4501   1
  -2   1  -1 56.5705  2.6672   1
  -2   1   0 25.1596   1.283   1
  -2   1   1 201.868  6.1372   1
  -2   1   2 280.736  7.9034   1
  -2   1   3  261.17  9.0646   1
  -2   1   4  0.7813  0.6305   1
  -2   1   5 126.509  6.6175   1
  -2   1   6 80.5682 11.5677   1
  -2   1   7 20.1507  3.1192   1
  -2   1   8 16.8783   4.621   1
  -2   1   9 45.3298  8.1296   1
  -2   1  10  9.9061  6.1405   1
  -2   2  -8  4.9518  3.0675   1
  -2   2  -7 15.6067  3.8571   1
  -2   2  -6 70.4327  6.2305   1
  -2   2  -5 29.5808  4.2592   1
  -2   2  -4 35.3743  2.3267   1
  -2   2  -3 125.199  6.1332   1
  -2   2  -2 75.7515  3.2057   1
  -2   2  -1 251.871 10.5229   1
  -2   2   0 449.284  45.493   1
  -2   2   1 571.551 14.7661   1
  -2   2   2 17.7836  0.7813   1
  -2   2   3  601.28 18.6398   1
  -2   2   4 216.697  8.3985   1
  -2   2   5   4.263  1.0407   1
  -2   2   6 10.2335  2.4138   1
  -2   2   7 89.0055  7.2244   1
  -2   2   8  3.7226  1.4966   1
  -2   2   9  6.2028  3.9124   1
  -2   2  10  4.7042  3.5781   1
  -2   3  -8  2.9289  2.3478   1
  -2   3  -7  1.6768  1.2308   1
  -2   3  -6 46.9424  4.9848   1
  -2   3  -5 29.6779  6.2374   1
  -2   3  -4  22.123  1.7031   1
  -2   3  -3  6.2392  0.8511   1
  -2   3  -2 299.841 13.6149   1
  -2   3  -1 133.576  6.3262   1
  -2   3   0  8.7587  1.5385   1
  -2   3   1 84.0407  3.7855   1
  -2   3   2  6.3888  0.7485   1
  -2   3   3 80.9349  2.8906   1
  -2   3   4  2.9283  0.5988   1
  -2   3   5 35.0782  2.1857   1
  -2   3   6 159.929  9.1686   1
  -2   3   7  5.5924  1.3108   1
  -2   3   8 28.0973  11.176   1
  -2   3   9  8.8811  3.7469   1
  -2   4  -8  1.9256  1.6547   1
  -2   4  -7 10.3973  2.7341   1
  -2   4  -6 32.3907   7.681   1
  -2   4  -5  47.783  4.0759   1
  -2   4  -4 91.6428   5.281   1
  -2   4  -3 153.312  7.6825   1
  -2   4  -2 71.1044  3.3407   1
  -2   4  -1 118.326  6.6316   1
  -2   4   0 182.665  9.2073   1
  -2   4   1 198.374  9.4998   1
  -2   4   2 40.9881   3.008   1
  -2   4   3 523.369 24.6693   1
  -2   4   4 150.839  7.3517   1
  -2   4   5  8.1942  0.9183   1
  -2   4   6  30.498  2.1625   1
  -2   4   7 84.8009  7.5021   1
  -2   4   8 33.8588  6.3456   1
  -2   4   9  3.9469    2.86   1
  -2   5  -8  9.8432  4.7295   1
  -2   5  -7  2.1417    1.42   1
  -2   5  -6  4.3112  1.5702   1
  -2   5  -5 54.8978  5.6772   1
  -2   5  -4 54.2381  3.3751   1
  -2   5  -3 34.3557  2.1045   1
  -2   5  -2 119.708  7.1769   1
  -2   5  -1 152.374   9.213   1
  -2   5   0  29.637  2.2888   1
  -2   5   1 83.3727  4.9972   1
  -2   5   2 265.136 15.0933   1
  -2   5   3 73.3767  4.6156   1
  -2   5   4 22.2551  2.4932   1
  -2   5   5 142.963  12.115   1
  -2   5   6 46.5943  3.2478   1
  -2   5   7  3.4608  1.0617   1
  -2   5   8  7.4395  2.9631   1
  -2   5   9 23.7189   7.277   1
  -2   6  -7  7.8044  4.5824   1
  -2   6  -6  2.4082  1.8062   1
  -2   6  -5 18.3828  2.2609   1
  -2   6  -4 54.8882  5.3237   1
  -2   6  -3 28.4876  2.3651   1
  -2   6  -2  7.4365  1.6313   1
  -2   6  -1  1.9959  0.7945   1
  -2   6   0 455.889 26.8488   1
  -2   6   1 70.4573  4.6725   1
  -2   6   2 18.5687  2.0866   1
  -2   6   3  9.5205  1.6252   1
  -2   6   4 236.643 19.0223   1
  -2   6   5 55.6885  4.8055   1
  -2   6   6 49.6661  4.8412   1
  -2   6   7  5.3637  3.0361   1
  -2   6   8 20.0872    4.39   1
  -2   6   9   3.019  2.2942   1
  -2   7  -7  3.3319  2.4951   1
  -2   7  -6 11.3205  3.2545   1
  -2   7  -5 35.3113  5.9057   1
  -2   7  -4 22.0933  3.5367   1
  -2   7  -3  8.3814  1.3316   1
  -2   7  -2 92.9834  6.8191   1
  -2   7  -1 86.3817  6.3345   1
  -2   7   0 16.0289  1.6364   1
  -2   7   1 40.5238  3.2817   1
  -2   7   2 223.933 16.4648   1
  -2   7   3 23.5915  2.4188   1
  -2   7   4 53.3419  4.4283   1
  -2   7   5  54.901  5.2524   1
  -2   7   6 38.1967  5.1065   1
  -2   7   7   6.671  3.0493   1
  -2   7   8  8.6629  5.0721   1
  -2   8  -6  6.1425  2.5557   1
  -2   8  -5  4.8653  1.9701   1
  -2   8  -4 25.1231  4.8728   1
  -2   8  -3 75.5898  7.9695   1
  -2   8  -2 78.9171   6.425   1
  -2   8  -1 66.1039  5.8727   1
  -2   8   0 29.0175  2.7411   1
  -2   8   1 27.7193  3.0282   1
  -2   8   2   4.749  1.4216   1
  -2   8   3 12.8159  1.9978   1
  -2   8   4 65.8432  6.3299   1
  -2   8   5 14.3483  2.9016   1
  -2   8   6  1.9076  1.5586   1
  -2   8   7 43.8587  8.5496   1
  -2   8   8 12.4391  4.7564   1
  -2   9  -5  6.5508  2.6619   1
  -2   9  -4  9.0546  2.5065   1
  -2   9  -3  8.1912  1.6581   1
  -2   9  -2 71.4986  8.0781   1
  -2   9  -1 91.9863  9.7671   1
  -2   9   0  3.5326  1.4932   1
  -2   9   1 54.7994  4.7467   1
  -2   9   2 225.618 25.0164   1
  -2   9   3 65.5619  6.4498   1
  -2   9   4 22.3425  4.0509   1
  -2   9   5 55.2279 14.3624   1
  -2   9   6 40.0741  5.6142   1
  -2   9   7  2.2724  1.9181   1
  -2  10  -4 13.5313  2.4627   1
  -2  10  -3  7.8923  2.7811   1
  -2  10  -2  6.7131  2.0957   1
  -2  10   0 40.6398  4.1914   1
  -2  10   1 73.7971  6.9015   1
  -2  10   2 12.1538   2.653   1
  -2  10   3  60.695  6.2494   1
  -2  10   4 37.5228  5.9354   1
  -2  10   5  8.9721  3.9108   1
  -2  10   6  4.4292   2.536   1
  -2  10   7 10.9928  4.6952   1
  -2  11  -3  6.5506  3.0393   1
  -2  11  -2  11.422  3.0024   1
  -2  11   0 10.6481  2.2296   1
  -2  11   1 34.1427  4.9004   1
  -2  11   2 29.6978  4.2522   1
  -2  11   3  3.1598  2.1608   1
  -2  11   4  1.2211  0.9942   1
  -2  11   5 53.6757 10.2694   1
  -2  11   6 12.5963  4.3076   1
  -2  12   0 20.6146  3.8078   1
  -2  12   1  16.637  4.0209   1
  -2  12   2  2.8241  2.0737   1
  -2  12   3  7.3005  3.0007   1
  -2  12   4 19.0336   5.093   1
  -2  12   5  7.6321  4.2905   1
  -2  13   0  3.3381  2.3644   1
  -2  13   1  5.6475   2.843   1
  -2  13   2 25.1564  5.5594   1
  -2  13   3 10.1457  3.3657   1
  -2  13   4  5.1971  3.7203   1
  -2  14   1  6.6735   2.862   1
  -2  14   2  3.0763  2.1864   1
  -1 -14  -2  3.5798  2.6347   1
  -1 -14  -1   3.339  2.2289   1
  -1 -14   0 22.1768  6.3487   1
  -1 -14   1  5.4479  2.8023   1
  -1 -14   2  4.1762  2.5832   1
  -1 -14   3  2.6062  2.0045   1
  -1 -13  -4  2.7628  2.1104   1
  -1 -13  -3  2.6309  2.0109   1
  -1 -13  -2 18.5271  4.7165   1
  -1 -13  -1   8.885   4.688   1
  -1 -13   0  4.5371  3.0709   1
  -1 -13   1  7.9973  3.8324   1
  -1 -13   2 19.0845   4.779   1
  -1 -13   3  7.2175  3.6683   1
  -1 -13   4  4.0305  2.9121   1
  -1 -12  -5  4.6107  2.6884   1
  -1 -12  -4  8.2503  3.3758   1
  -1 -12  -3 40.5211  7.9898   1
  -1 -12  -2  8.5678  2.8513   1
  -1 -12  -1 26.2636  5.3322   1
  -1 -12   0 65.8319 10.0034   1
  -1 -12   1 41.4599  4.9066   1
  -1 -12   2  2.1927  1.7428   1
  -1 -12   3 24.4822  4.4437   1
  -1 -12   4  7.4095  3.7556   1
  -1 -12   5  4.0887  2.7473   1
  -1 -11  -6  21.759  5.6452   1
  -1 -11  -5 14.6827  2.6008   1
  -1 -11  -4  2.0131  1.5033   1
  -1 -11  -3 22.8754  3.7347   1
  -1 -11  -2 41.9203  3.8484   1
  -1 -11  -1 15.2306  3.4674   1
  -1 -11   0  1.4291  0.9803   1
  -1 -11   1   4.391  2.5293   1
  -1 -11   2  53.343  6.4517   1
  -1 -11   3  37.334  5.5583   1
  -1 -11   4  8.8897  3.6588   1
  -1 -11   5 17.6698  4.4766   1
  -1 -11   6 27.0362  6.7871   1
  -1 -10  -6 19.6075  4.5585   1
  -1 -10  -5  4.6389  1.5103   1
  -1 -10  -4 11.4398  2.3572   1
  -1 -10  -3 68.9137  9.8112   1
  -1 -10  -2  5.3418  1.1852   1
  -1 -10  -1  17.217  2.3548   1
  -1 -10   0 101.656 12.2158   1
  -1 -10   1 12.0274  1.5359   1
  -1 -10   2  6.9947  1.8279   1
  -1 -10   3 126.711  9.9131   1
  -1 -10   4 54.4524   7.559   1
  -1 -10   5  10.296  2.5474   1
  -1 -10   6  8.9959   3.522   1
  -1 -10   7  9.2862  4.8604   1
  -1  -9  -7  8.7513  3.0988   1
  -1  -9  -6  3.6456  1.5543   1
  -1  -9  -5 26.3901  2.7488   1
  -1  -9  -4  8.4357  1.9191   1
  -1  -9  -3 30.0134  2.1977   1
  -1  -9  -2 40.2832  2.4315   1
  -1  -9  -1 100.927 20.0744   1
  -1  -9   0 11.8832  1.5505   1
  -1  -9   1 103.663  9.3231   1
  -1  -9   2 10.2459   1.435   1
  -1  -9   3 35.9539  2.6381   1
  -1  -9   4 14.6685  2.0591   1
  -1  -9   5 31.9799  4.7285   1
  -1  -9   6  7.6646  3.1498   1
  -1  -9   7  6.4909  3.7478   1
  -1  -9   8  3.7281   2.955   1
  -1  -8  -7  9.8763  3.5335   1
  -1  -8  -6 29.8545  3.2045   1
  -1  -8  -5  2.0631  1.0158   1
  -1  -8  -4 84.3592  5.4258   1
  -1  -8  -3 49.8538  3.3304   1
  -1  -8  -2   6.472  0.8665   1
  -1  -8  -1 15.9143  3.4937   1
  -1  -8   0 162.946 10.0571   1
  -1  -8   1 107.299  5.6837   1
  -1  -8   2  6.8522  1.2594   1
  -1  -8   3  54.765  3.0869   1
  -1  -8   4 204.576 11.6312   1
  -1  -8   5 14.8869  1.7977   1
  -1  -8   6 45.0035  6.3514   1
  -1  -8   7   19.80   4.601   1
  -1  -8   8 12.4342  6.0366   1
  -1  -7  -8  4.3655  3.0428   1
  -1  -7  -7  3.3858  2.2222   1
  -1  -7  -6 60.7817  5.6978   1
  -1  -7  -5 42.3288  3.0252   1
  -1  -7  -4 25.6105  2.2279   1
  -1  -7  -3  9.6884  1.1285   1
  -1  -7  -2 185.548  7.8357   1
  -1  -7  -1 68.3194   3.554   1
  -1  -7   0 35.0003  1.9358   1
  -1  -7   1 92.3391  9.1233   1
  -1  -7   2 236.792 11.5058   1
  -1  -7   3 40.8617  3.1135   1
  -1  -7   4 15.4429  1.5505   1
  -1  -7   5  29.684  3.2434   1
  -1  -7   6 115.868 21.7671   1
  -1  -7   7  3.7477  2.4049   1
  -1  -7   8   7.623   3.849   1
  -1  -6  -8  3.6343  2.6789   1
  -1  -6  -7 50.4949  9.0294   1
  -1  -6  -6 17.3244  2.5013   1
  -1  -6  -5 13.5314  2.2695   1
  -1  -6  -4 32.7281  1.8806   1
  -1  -6  -3 203.637 10.1625   1
  -1  -6  -2 105.117  5.0971   1
  -1  -6  -1 204.686  8.8089   1
  -1  -6   0 399.505 14.6519   1
  -1  -6   1 63.5598  6.3255   1
  -1  -6   2 12.2785  2.5342   1
  -1  -6   3 200.193 11.0622   1
  -1  -6   4 64.2084   4.283   1
  -1  -6   5 31.5733  2.7408   1
  -1  -6   6  2.9231  1.3713   1
  -1  -6   7  57.678  6.5789   1
  -1  -6   8  3.9817   2.393   1
  -1  -6   9  3.6463  2.5253   1
  -1  -5  -8  6.0208  3.5418   1
  -1  -5  -7  7.7784  2.9923   1
  -1  -5  -6 28.6966  7.5869   1
  -1  -5  -5 63.7627  3.5341   1
  -1  -5  -4 22.5535   1.375   1
  -1  -5  -3 129.051   7.713   1
  -1  -5  -2 175.551  7.7372   1
  -1  -5  -1 70.7544  2.5506   1
  -1  -5   0 28.2763  2.0028   1
  -1  -5   1  25.141   1.416   1
  -1  -5   2 466.678 14.3075   1
  -1  -5   3  21.338  1.5807   1
  -1  -5   4 31.7352  2.0639   1
  -1  -5   5 116.837  6.6639   1
  -1  -5   6 78.0881   5.751   1
  -1  -5   7  7.9527   1.793   1
  -1  -5   8  9.6739  3.4091   1
  -1  -5   9  9.8902  4.9991   1
  -1  -4  -9  2.8084  2.3347   1
  -1  -4  -8 10.4541    4.36   1
  -1  -4  -7 18.3811  6.7102   1
  -1  -4  -6 13.0011  1.8462   1
  -1  -4  -5 16.5883  1.3063   1
  -1  -4  -4 135.748  5.8432   1
  -1  -4  -3 118.905  4.6492   1
  -1  -4  -2 19.2383  1.9307   1
  -1  -4  -1 151.667  4.6406   1
  -1  -4   0 227.939 15.9133   1
  -1  -4   1 269.556  9.0181   1
  -1  -4   2 98.6498  6.2845   1
  -1  -4   3 137.581 16.7265   1
  -1  -4   4 86.2567  10.237   1
  -1  -4   5 14.7231   1.655   1
  -1  -4   6 14.5765  3.7365   1
  -1  -4   7 52.7076  4.9799   1
  -1  -4   8 24.7469  5.1554   1
  -1  -4   9  1.8235  1.4848   1
  -1  -3  -9 18.8248  4.9575   1
  -1  -3  -8 29.6673  6.6404   1
  -1  -3  -7  3.5692  2.2213   1
  -1  -3  -6   8.497  2.1082   1
  -1  -3  -5 166.085 21.6913   1
  -1  -3  -4 85.6313  4.3363   1
  -1  -3  -3 111.908  6.3274   1
  -1  -3  -2 51.2314  2.6755   1
  -1  -3   0 73.0882  2.9808   1
  -1  -3   2  157.55  5.4418   1
  -1  -3   3 160.451  6.4074   1
  -1  -3   4 19.6327  1.5271   1
  -1  -3   5 513.302 24.4018   1
  -1  -3   6  24.818  2.4613   1
  -1  -3   7  8.1378  1.7995   1
  -1  -3   8  8.2774    2.46   1
  -1  -3   9  19.671  4.6841   1
  -1  -2  -9  3.1339  2.3182   1
  -1  -2  -8 23.7444  5.3094   1
  -1  -2  -7 29.3146  3.2299   1
  -1  -2  -6 17.1864  3.0832   1
  -1  -2  -5   3.644  1.7824   1
  -1  -2  -4 294.656 16.7027   1
  -1  -2  -3 121.305  4.3686   1
  -1  -2  -2 45.5762  1.7948   1
  -1  -2  -1 210.781  9.7617   1
  -1  -2   0 345.796 19.4134   1
  -1  -2   1 445.732 20.2541   1
  -1  -2   2 113.369  4.0876   1
  -1  -2   3 160.766  5.8096   1
  -1  -2   4  406.06  14.172   1
  -1  -2   5 39.4735  2.2672   1
  -1  -2   6   6.255  3.4547   1
  -1  -2   7 31.6135  4.2858   1
  -1  -2   8  43.149  5.5543   1
  -1  -2   9  3.1143  2.1449   1
  -1  -2  10 10.5843  4.7574   1
  -1  -1  -9  5.1157  3.2381   1
  -1  -1  -8  5.1063  2.8925   1
  -1  -1  -7 16.2054  2.6451   1
  -1  -1  -6 82.1555   5.662   1
  -1  -1  -5 119.546  7.0046   1
  -1  -1  -4 70.6273  3.7866   1
  -1  -1  -3   1.896  0.4365   1
  -1  -1   0 53.4483  2.8785   1
  -1  -1   1 158.758   4.447   1
  -1  -1   3 61.6141   2.637   1
  -1  -1   4 105.429  4.4835   1
  -1  -1   5 191.976  9.9905   1
  -1  -1   6 99.4621   9.823   1
  -1  -1   7  2.1052  1.5252   1
  -1  -1   8 52.0979  7.8529   1
  -1  -1   9 11.1176  4.6556   1
  -1  -1  10  7.0518    4.26   1
  -1   0  -9  1.6473  1.4149   1
  -1   0  -8  3.2507  2.2448   1
  -1   0  -7 125.809 11.2622   1
  -1   0  -6    6.10  1.5011   1
  -1   0  -5 19.5656  5.0769   1
  -1   0  -4 51.9906  2.5346   1
  -1   0  -3  3.4136  0.5487   1
  -1   0  -2  8.4276  0.5458   1
  -1   0  -1  1.9617  0.4289   1
  -1   0   0 43.8918  1.4688   1
  -1   0   1 49.7249  1.7295   1
  -1   0   2 17.0939  0.9566   1
  -1   0   3 216.212 26.3955   1
  -1   0   4 109.585  4.7859   1
  -1   0   5 102.471  6.1792   1
  -1   0   6 30.0756  4.8129   1
  -1   0   7 164.213  11.767   1
  -1   0   8  5.6771  3.0628   1
  -1   0   9  6.1978  3.2949   1
  -1   0  10  2.6509  2.0661   1
  -1   1  -9  6.5022  3.7242   1
  -1   1  -8  7.0912  3.8137   1
  -1   1  -7 16.1996  8.4467   1
  -1   1  -6 72.1851  8.7848   1
  -1   1  -5 147.378  7.9732   1
  -1   1  -4  76.956  4.4041   1
  -1   1  -3  5.5645  3.0051   1
  -1   1   0 60.3115  3.9609   1
  -1   1   1 202.786  4.8853   1
  -1   1   3 81.9101  4.9444   1
  -1   1   4  116.18  8.1936   1
  -1   1   5 242.342 11.8139   1
  -1   1   6 79.0393    5.35   1
  -1   1   7   4.697  1.1292   1
  -1   1   8 45.3381  4.0101   1
  -1   1   9  5.5333  3.6417   1
  -1   1  10   4.408  3.3073   1
  -1   2  -9  4.6338  3.1423   1
  -1   2  -8 28.2412  5.5313   1
  -1   2  -7 19.4316  4.1145   1
  -1   2  -6 18.5148  2.2023   1
  -1   2  -5  4.1552  2.0867   1
  -1   2  -4 282.301  25.899   1
  -1   2  -3 132.948  5.5505   1
  -1   2  -2 48.1489  2.0256   1
  -1   2  -1 214.678 14.6114   1
  -1   2   1 414.054  19.246   1
  -1   2   2 130.796  3.7645   1
  -1   2   3 120.328  4.6891   1
  -1   2   4 388.448  14.435   1
  -1   2   5 40.5196  2.0611   1
  -1   2   6  3.1287  0.9552   1
  -1   2   7 33.5423  2.5292   1
  -1   2   8 48.3559  4.6278   1
  -1   2   9  3.9011  2.8596   1
  -1   2  10  9.5099  5.5439   1
  -1   3  -9 12.6563  5.9825   1
  -1   3  -8 26.8372   6.373   1
  -1   3  -7  4.8942  1.5938   1
  -1   3  -6  5.2353  1.5476   1
  -1   3  -5 157.685  8.2987   1
  -1   3  -4 80.5874  4.2473   1
  -1   3  -3 110.508  5.3876   1
  -1   3  -2 61.4064  2.7684   1
  -1   3   0 82.0774  3.0286   1
  -1   3   2  155.52    7.98   1
  -1   3   3 158.668  5.7078   1
  -1   3   4 27.4144   2.237   1
  -1   3   5  547.18 27.3958   1
  -1   3   6  35.862  1.9338   1
  -1   3   7  6.7304  1.6769   1
  -1   3   8  4.7806  2.1021   1
  -1   3   9 23.1676  5.2498   1
  -1   4  -9  4.1108  2.8973   1
  -1   4  -8  7.5553  3.2871   1
  -1   4  -7 18.3282 10.6437   1
  -1   4  -6 19.4805  2.4233   1
  -1   4  -5 20.1296  1.7806   1
  -1   4  -4 127.915  6.1719   1
  -1   4  -3 126.325  5.4082   1
  -1   4  -2 17.1758  1.5379   1
  -1   4  -1 151.981  7.9831   1
  -1   4   0 199.435   15.96   1
  -1   4   1  274.79 13.1164   1
  -1   4   2 99.7331   6.079   1
  -1   4   3 181.586  9.7759   1
  -1   4   4 107.702  4.5442   1
  -1   4   5 16.4157   1.272   1
  -1   4   6 14.9339   1.945   1
  -1   4   7 54.8028  8.6937   1
  -1   4   8 26.3825  4.9657   1
  -1   4   9  1.9481  1.6074   1
  -1   5  -8   4.314  2.7978   1
  -1   5  -7  3.8508  1.7598   1
  -1   5  -6 46.6459  4.2696   1
  -1   5  -5 48.9784   3.656   1
  -1   5  -4  25.319  1.9436   1
  -1   5  -3 83.7015  5.5909   1
  -1   5  -2 197.361 11.9865   1
  -1   5  -1  61.298  3.8922   1
  -1   5   0 23.1516  1.3098   1
  -1   5   1 32.2054  2.1287   1
  -1   5   2 483.331 21.7943   1
  -1   5   3 12.9084  1.4012   1
  -1   5   4 40.5503  3.4348   1
  -1   5   5 98.8199  7.4186   1
  -1   5   6 113.042 10.2115   1
  -1   5   7   3.105  1.1483   1
  -1   5   8 12.5204  2.0591   1
  -1   5   9  9.4798  4.3842   1
  -1   6  -8  3.2948  2.6932   1
  -1   6  -7 40.8796  7.4018   1
  -1   6  -6 16.7396  2.4329   1
  -1   6  -5 15.5191  1.9693   1
  -1   6  -4 27.5834  2.9025   1
  -1   6  -3 184.439  13.717   1
  -1   6  -2  80.701  5.5252   1
  -1   6  -1 173.317 15.3004   1
  -1   6   0 366.363 14.1114   1
  -1   6   1 53.6244  3.1204   1
  -1   6   2 10.2409  1.6228   1
  -1   6   3 205.452 13.2968   1
  -1   6   4 74.7144  5.5915   1
  -1   6   5 33.6075  3.8514   1
  -1   6   6  5.0033  1.8495   1
  -1   6   7 57.9527  8.5784   1
  -1   6   8  4.2748  2.3737   1
  -1   6   9  3.5573  2.3963   1
  -1   7  -8  2.5253  1.9816   1
  -1   7  -7  5.9922  2.9221   1
  -1   7  -6 27.1956  5.8158   1
  -1   7  -5 44.2086  6.1541   1
  -1   7  -4 27.8135   2.952   1
  -1   7  -3 15.7008  2.2268   1
  -1   7  -2 188.965 14.4751   1
  -1   7  -1 99.0168  4.8824   1
  -1   7   0 37.3883  4.9143   1
  -1   7   1 111.638  6.4551   1
  -1   7   2 243.641 15.3531   1
  -1   7   3 37.5395  3.0025   1
  -1   7   4 12.1363  2.3363   1
  -1   7   5 39.4557   3.996   1
  -1   7   6 116.724 11.4866   1
  -1   7   7  3.8994  2.3126   1
  -1   7   8  6.9925  4.1326   1
  -1   8  -6 23.9795  4.8301   1
  -1   8  -5  1.4727  1.0807   1
  -1   8  -4  71.741  8.4456   1
  -1   8  -3 42.5166  4.0349   1
  -1   8  -2  3.2659  1.1535   1
  -1   8  -1   11.93  1.3344   1
  -1   8   0 178.848 12.8287   1
  -1   8   1  103.29  7.0687   1
  -1   8   2   8.806   1.529   1
  -1   8   3 60.8912  4.8993   1
  -1   8   4  211.67 18.5525   1
  -1   8   5 20.9908  3.4062   1
  -1   8   6 40.2972  4.8254   1
  -1   8   7 18.3573  4.1153   1
  -1   8   8 11.1997  5.7506   1
  -1   9  -5 18.4905  4.2357   1
  -1   9  -4  9.5675  2.5446   1
  -1   9  -3  32.041  3.8851   1
  -1   9  -2 38.6126  3.8203   1
  -1   9  -1 124.073  7.4866   1
  -1   9   0 11.4909  2.1093   1
  -1   9   1 108.556  9.1605   1
  -1   9   2 29.5621  2.9879   1
  -1   9   3 46.1314  5.2077   1
  -1   9   4 19.0901  2.8632   1
  -1   9   5 28.5479  4.1524   1
  -1   9   6   5.449  3.3693   1
  -1   9   7  2.6713  2.1482   1
  -1   9   8  4.3782  2.9395   1
  -1  10  -4   5.259  2.1813   1
  -1  10  -3 72.5911 10.3314   1
  -1  10  -2  4.9889  1.8019   1
  -1  10  -1 22.3992  3.8549   1
  -1  10   0  97.587   9.621   1
  -1  10   1 13.5541  2.2773   1
  -1  10   2 10.6923  1.9269   1
  -1  10   3 132.221 14.1001   1
  -1  10   4  49.388  5.8219   1
  -1  10   5 10.0063  3.4496   1
  -1  10   6  9.0541   4.615   1
  -1  10   7  9.9615  5.6991   1
  -1  11  -2 38.9888  6.6429   1
  -1  11  -1 12.9391  3.3109   1
  -1  11   0  2.5725  1.5752   1
  -1  11   1  5.5469  1.8853   1
  -1  11   2  72.212  8.5151   1
  -1  11   3 33.7007  5.5093   1
  -1  11   4 12.1156  3.4955   1
  -1  11   5 21.8271   5.117   1
  -1  11   6 20.9863  6.8879   1
  -1  12   0 62.8732  7.9287   1
  -1  12   1 43.0084  5.6022   1
  -1  12   2    1.59  1.2534   1
  -1  12   3 23.0666  4.9821   1
  -1  12   4 15.3917  4.2533   1
  -1  12   5  2.5093  1.8839   1
  -1  13   0  1.4584  1.1881   1
  -1  13   1  9.1259  4.3664   1
  -1  13   2 18.6689  4.5912   1
  -1  13   3 10.4275  3.9834   1
  -1  13   4  6.3334   4.302   1
  -1  14   0 20.3091  5.6498   1
  -1  14   1  5.2689  3.0362   1
  -1  14   2  3.0145    2.00   1
  -1  14   3  2.5153  2.0555   1
   0 -14  -3  8.5935  4.0762   1
   0 -14  -2  2.2933  1.7563   1
   0 -14  -1  6.7088  3.7577   1
   0 -14   0 10.8822  4.0181   1
   0 -14   1  8.1679  3.5863   1
   0 -14   2  2.0637  1.6427   1
   0 -14   3  5.2883  3.5466   1
   0 -13  -4  5.4181  3.3823   1
   0 -13  -3  2.9249  2.2503   1
   0 -13  -2 43.4232   8.614   1
   0 -13  -1 19.0297  3.8775   1
   0 -13   0  2.2941  1.7233   1
   0 -13   1 15.8896  3.9127   1
   0 -13   2 41.1534   8.044   1
   0 -13   3  2.1374  1.6094   1
   0 -13   4  4.8461  3.4389   1
   0 -12  -5   2.207  1.7418   1
   0 -12  -4 34.5593  6.8991   1
   0 -12  -3  2.1636  1.6667   1
   0 -12  -2  2.9362  2.2279   1
   0 -12  -1  8.4532  3.6227   1
   0 -12   0 41.7107  5.3885   1
   0 -12   1  3.7041  2.2555   1
   0 -12   2  2.4103  1.5768   1
   0 -12   3  3.1531  1.9714   1
   0 -12   4 31.8233  7.2565   1
   0 -12   5  3.5222  2.7708   1
   0 -11  -6  2.5572  2.0626   1
   0 -11  -5 21.0671  2.3634   1
   0 -11  -4 24.8774  3.7011   1
   0 -11  -3  7.2178  1.6923   1
   0 -11  -2 39.0102  5.0734   1
   0 -11  -1 76.0516 11.8127   1
   0 -11   0  2.1891  1.6845   1
   0 -11   1 67.8024 11.0551   1
   0 -11   2 34.3981  6.4162   1
   0 -11   3   4.053  1.8899   1
   0 -11   4 20.8539  3.6006   1
   0 -11   5 20.4402  4.7129   1
   0 -11   6   3.628  2.7958   1
   0 -10  -7 18.0493  4.3059   1
   0 -10  -6  7.9023  2.6774   1
   0 -10  -5  20.244  2.3714   1
   0 -10  -4 74.0712  5.8304   1
   0 -10  -3 49.3707   4.835   1
   0 -10  -2   1.977  1.0505   1
   0 -10  -1 37.2961  7.8664   1
   0 -10   0 38.4061   5.364   1
   0 -10   1 36.9108  6.1619   1
   0 -10   2  1.9155  1.3106   1
   0 -10   3 45.1955  3.9282   1
   0 -10   4 49.0044 17.1426   1
   0 -10   5 14.7122  4.0573   1
   0 -10   6 10.8444  3.6424   1
   0 -10   7 15.9502  6.1613   1
   0  -9  -7  2.7411  2.1118   1
   0  -9  -6  42.654  7.8398   1
   0  -9  -5 88.0666  5.9423   1
   0  -9  -4 34.6979   5.094   1
   0  -9  -3   0.912  0.5533   1
   0  -9  -2 140.929 13.7952   1
   0  -9  -1 68.2766  3.8028   1
   0  -9   0  1.0248    0.75   1
   0  -9   1 73.9222   4.645   1
   0  -9   2 142.089  8.5634   1
   0  -9   3  2.2391  1.1713   1
   0  -9   4 32.0641  2.5493   1
   0  -9   5 60.6603 15.3217   1
   0  -9   6 39.6749  6.9329   1
   0  -9   7  3.8643  2.7388   1
   0  -8  -8  12.216  5.0574   1
   0  -8  -7  21.101  5.1466   1
   0  -8  -6  2.4646  1.6591   1
   0  -8  -5  6.0362  1.4412   1
   0  -8  -4 34.5061  8.2275   1
   0  -8  -3  55.488  3.2601   1
   0  -8  -2 18.2748  1.4409   1
   0  -8  -1  229.11 11.8472   1
   0  -8   0 79.7746  6.5652   1
   0  -8   1 205.794 19.0486   1
   0  -8   2 18.4264  2.1965   1
   0  -8   3 48.5538  2.9726   1
   0  -8   4 32.8512  2.5991   1
   0  -8   5  3.8023  1.2933   1
   0  -8   6  1.7657  1.2866   1
   0  -8   7 19.9796  5.7959   1
   0  -8   8 10.4094   4.675   1
   0  -7  -8  9.6238  4.0323   1
   0  -7  -7  2.9831  2.0837   1
   0  -7  -6  8.0421  2.5122   1
   0  -7  -5 80.4294  4.5798   1
   0  -7  -4 17.9498  1.8136   1
   0  -7  -3 60.4888   3.097   1
   0  -7  -2 210.251 10.2183   1
   0  -7  -1 203.585  9.1468   1
   0  -7   0  2.7403  1.6191   1
   0  -7   1 186.415  8.4243   1
   0  -7   2  181.92  7.3251   1
   0  -7   3 48.6445  2.4629   1
   0  -7   4 16.4288  1.5085   1
   0  -7   5 72.1308  5.3432   1
   0  -7   6   6.039  1.7717   1
   0  -7   7  6.3918  2.8287   1
   0  -7   8  10.779  3.6888   1
   0  -6  -9  3.0382  2.3637   1
   0  -6  -8 26.9344  6.9261   1
   0  -6  -7 31.0405   5.746   1
   0  -6  -6  14.689  3.7975   1
   0  -6  -5  5.0381  1.4891   1
   0  -6  -4 199.089  8.8845   1
   0  -6  -3 65.0556  3.9375   1
   0  -6  -2 43.1678   2.386   1
   0  -6  -1 17.1973  2.6007   1
   0  -6   0 429.799 14.1667   1
   0  -6   1 15.9043  1.1394   1
   0  -6   2 46.0378  2.0619   1
   0  -6   3 61.0212  2.8226   1
   0  -6   4 180.676 10.5884   1
   0  -6   5  5.4887   2.733   1
   0  -6   6 16.0357  2.1969   1
   0  -6   7  28.574  5.0341   1
   0  -6   8  18.074  5.9697   1
   0  -6   9  3.9712   3.049   1
   0  -5  -9 15.6707  6.3749   1
   0  -5  -8  6.2576   3.206   1
   0  -5  -7   9.723  3.4152   1
   0  -5  -6 27.0019  3.2497   1
   0  -5  -5 179.633 16.5696   1
   0  -5  -4 19.6333  1.5937   1
   0  -5  -3 137.723  6.8805   1
   0  -5  -2 207.848 10.4811   1
   0  -5  -1 419.813 13.2847   1
   0  -5   0  0.5872  0.4577   1
   0  -5   1 372.682 10.6341   1
   0  -5   2 193.996  6.4955   1
   0  -5   3 130.811  9.4641   1
   0  -5   4 19.4615  1.6749   1
   0  -5   5 167.069  9.7628   1
   0  -5   6 26.6837  3.4142   1
   0  -5   7  6.5168  2.8734   1
   0  -5   8   4.974  3.0881   1
   0  -5   9  14.525  4.7024   1
   0  -4  -9  2.6574  2.0761   1
   0  -4  -8  7.2513  3.9199   1
   0  -4  -7 76.2617  8.1883   1
   0  -4  -6 48.2423  3.4406   1
   0  -4  -5 57.6834 10.8974   1
   0  -4  -4  72.061  3.7834   1
   0  -4  -3 462.275 24.0599   1
   0  -4  -2  3.6369  0.7234   1
   0  -4  -1 451.159 12.2893   1
   0  -4   0 308.539 16.8634   1
   0  -4   1 412.552 43.4135   1
   0  -4   2  2.4278  0.9978   1
   0  -4   3 458.437  15.215   1
   0  -4   4 63.9548  3.3022   1
   0  -4   5  55.531  4.5893   1
   0  -4   6 49.4524  4.2894   1
   0  -4   7 75.6128 11.7855   1
   0  -4   8  4.4787  2.8166   1
   0  -4   9  2.9595  2.1456   1
   0  -3  -9  6.1083  3.8538   1
   0  -3  -8  17.925  5.4856   1
   0  -3  -7  1.9563   1.415   1
   0  -3  -6 99.8018  6.9477   1
   0  -3  -5 11.0773  3.0703   1
   0  -3  -4 11.3139  1.1976   1
   0  -3  -3 44.8522  1.7865   1
   0  -3  -2 415.402 10.5276   1
   0  -3  -1 250.215 13.0407   1
   0  -3   0  0.4577  0.2547   1
   0  -3   1 242.965  6.4695   1
   0  -3   2 378.197  9.3921   1
   0  -3   3 44.9586   2.821   1
   0  -3   4  7.8303   1.086   1
   0  -3   5  9.8041  2.1634   1
   0  -3   6 105.978  6.3883   1
   0  -3   7  1.3403  1.0362   1
   0  -3   8 19.4678  3.2478   1
   0  -3   9  7.2303  3.3833   1
   0  -2  -9  3.1934  2.2676   1
   0  -2  -8 14.4707  4.9764   1
   0  -2  -7 86.3551 11.7041   1
   0  -2  -6 67.4867  4.8106   1
   0  -2  -5 37.7891  2.5389   1
   0  -2  -4 232.571 10.5008   1
   0  -2  -3 609.916 29.5379   1
   0  -2  -2 125.588  6.1503   1
   0  -2  -1 240.717 12.7035   1
   0  -2   1 223.902   5.986   1
   0  -2   2 111.288  4.0632   1
   0  -2   3 603.325 25.3417   1
   0  -2   4 235.206 12.4695   1
   0  -2   5  36.966  5.9762   1
   0  -2   6 72.8452  5.9572   1
   0  -2   7 77.3657  5.0409   1
   0  -2   8 14.1942  2.2392   1
   0  -2   9  2.9725  1.8447   1
   0  -1  -9 24.3347  7.5814   1
   0  -1  -8  11.009  4.3178   1
   0  -1  -7  6.2009  1.7262   1
   0  -1  -6  105.44   8.419   1
   0  -1  -5  168.49  8.2464   1
   0  -1  -4 49.9664  2.3381   1
   0  -1  -3 191.537  7.5947   1
   0  -1  -2 418.049 13.3885   1
   0  -1  -1   5.057  0.3214   1
   0  -1   1  5.7946  0.3822   1
   0  -1   2 408.942 10.4328   1
   0  -1   3 202.349  7.3333   1
   0  -1   4 47.7537  2.6114   1
   0  -1   5 155.213  7.6248   1
   0  -1   6  106.31 11.9739   1
   0  -1   7  5.5421   1.409   1
   0  -1   8  13.595   2.059   1
   0  -1   9 27.7827  7.5723   1
   0   0  -9  4.3786  2.8466   1
   0   0  -8  33.153  6.0015   1
   0   0  -7  3.4722  1.5765   1
   0   0  -6 37.7098   4.007   1
   0   0  -5  1.7226  0.7375   1
   0   0  -4 257.298 22.3182   1
   0   0  -3 209.539 11.8414   1
   0   0  -2  11.535  0.8891   1
   0   0   2 11.2168   0.927   1
   0   0   3 197.722  7.7728   1
   0   0   4 252.402  9.6768   1
   0   0   5  1.1414  0.7764   1
   0   0   6 33.6069  2.0081   1
   0   0   7  3.6257  1.2544   1
   0   0   8  39.137  5.3588   1
   0   0   9  4.4737  2.7431   1
   0   1  -9 28.0121  5.8927   1
   0   1  -8  6.4292  2.8536   1
   0   1  -7   7.609  1.7712   1
   0   1  -6 96.7623  8.7903   1
   0   1  -5 158.205 11.4043   1
   0   1  -4   43.39  2.2124   1
   0   1  -3 188.141  6.8739   1
   0   1  -2 466.068 22.8692   1
   0   1  -1 22.4789  1.0723   1
   0   1   1 22.6616  1.1529   1
   0   1   2 506.867 12.4697   1
   0   1   3 193.022  9.9643   1
   0   1   4   41.48  2.2768   1
   0   1   5 172.849  7.5416   1
   0   1   6 109.682  5.6802   1
   0   1   7  3.8902  1.0781   1
   0   1   8 11.9546  2.7647   1
   0   1   9  20.949  6.2918   1
   0   2  -9  2.8547  2.3293   1
   0   2  -8  8.5699  3.9862   1
   0   2  -7 99.8082  8.1677   1
   0   2  -6 78.9966  5.5313   1
   0   2  -5 45.9563  6.8987   1
   0   2  -4 200.334 27.2826   1
   0   2  -3 608.206 29.3268   1
   0   2  -2 118.545  6.2358   1
   0   2  -1 249.358  12.348   1
   0   2   1 247.761 12.3468   1
   0   2   2 132.405  5.4684   1
   0   2   3 643.671 21.1101   1
   0   2   4 202.057  7.4613   1
   0   2   5 44.9751   2.223   1
   0   2   6 77.3331  3.7674   1
   0   2   7 102.694  9.3577   1
   0   2   8  8.5282  2.7851   1
   0   2   9  3.4064  2.6355   1
   0   3  -9  7.0285  4.2388   1
   0   3  -8 17.5492  4.0254   1
   0   3  -7  2.4493  1.9095   1
   0   3  -6 94.4725  8.8278   1
   0   3  -5  9.4919  1.5603   1
   0   3  -4  2.1085  0.6788   1
   0   3  -3 56.3584  2.6753   1
   0   3  -2 367.216  9.6169   1
   0   3  -1 271.252 13.1235   1
   0   3   0   0.321  0.2133   1
   0   3   1  251.33 11.6341   1
   0   3   2 392.731 18.1254   1
   0   3   3 62.3254  3.7777   1
   0   3   4  3.2907  0.7217   1
   0   3   5  9.3732  1.6472   1
   0   3   6  100.17  8.3014   1
   0   3   7  1.5608  1.0438   1
   0   3   8 15.7132  3.8354   1
   0   3   9  6.8723  4.1155   1
   0   4  -9  3.4773  2.3615   1
   0   4  -8  4.8796  3.1875   1
   0   4  -7 63.8524  8.7055   1
   0   4  -6 47.5923  4.0793   1
   0   4  -5 48.8176  6.8555   1
   0   4  -4 90.0834  8.8548   1
   0   4  -3 445.491 15.1166   1
   0   4  -2  5.0362  1.0226   1
   0   4  -1 396.259 18.3248   1
   0   4   0 319.638  8.3331   1
   0   4   1 426.877 20.7684   1
   0   4   2  4.2904  0.7628   1
   0   4   3 462.046  22.312   1
   0   4   4 95.8086  4.3249   1
   0   4   5 48.0226 12.5393   1
   0   4   6 44.9022  4.0381   1
   0   4   7 53.3076 16.3103   1
   0   4   8  5.1633  2.6433   1
   0   4   9  1.5158  1.2571   1
   0   5  -9 13.9912  6.5051   1
   0   5  -8  5.6517  3.0731   1
   0   5  -7  5.2942  1.4876   1
   0   5  -6 29.2198  3.0362   1
   0   5  -5  198.36 12.4309   1
   0   5  -4 14.9717  1.5742   1
   0   5  -3 130.734  7.4385   1
   0   5  -2 177.277  9.1488   1
   0   5  -1 419.263 10.9418   1
   0   5   0  0.4964  0.4007   1
   0   5   1 399.328  19.815   1
   0   5   2 168.086  8.5734   1
   0   5   3 130.264  7.7006   1
   0   5   4 16.2087  1.9757   1
   0   5   5 196.182  16.248   1
   0   5   6 34.8946  2.4518   1
   0   5   7  4.7369  1.3997   1
   0   5   8  3.9526  1.7908   1
   0   5   9 12.0396    5.47   1
   0   6  -9  2.7792  2.2926   1
   0   6  -8 23.8043  5.7942   1
   0   6  -7 29.7687  6.4777   1
   0   6  -6 12.7476  2.0075   1
   0   6  -5  2.8784  1.1832   1
   0   6  -4 196.104 13.6993   1
   0   6  -3 72.4501  5.2422   1
   0   6  -2 49.3439  3.2883   1
   0   6  -1 30.5923  1.9414   1
   0   6   0 462.617 19.4298   1
   0   6   1 31.3583  2.1949   1
   0   6   2  49.231  3.4995   1
   0   6   3 77.0588  5.4238   1
   0   6   4 200.858  14.754   1
   0   6   5   4.429  1.8209   1
   0   6   6  12.883  2.3944   1
   0   6   7 25.5669  4.3205   1
   0   6   8 29.3214  5.5587   1
   0   6   9   4.408  2.8528   1
   0   7  -8 11.6101  4.3257   1
   0   7  -6 10.1012  3.3657   1
   0   7  -5 68.6675  8.4946   1
   0   7  -4 11.9974  2.7776   1
   0   7  -3 56.6954  4.7858   1
   0   7  -2 185.202 13.3714   1
   0   7  -1  156.31   7.176   1
   0   7   0  0.7056  0.5837   1
   0   7   1 162.416 10.2319   1
   0   7   2 195.063 11.7447   1
   0   7   3 60.7511  5.0112   1
   0   7   4 13.3481  2.4453   1
   0   7   5 100.797  9.0243   1
   0   7   6 10.1141  2.8815   1
   0   7   7  7.1983  3.4844   1
   0   7   8 12.8751   4.257   1
   0   8  -5  4.2727  1.7646   1
   0   8  -4 26.9114   3.366   1
   0   8  -3  51.912  4.7408   1
   0   8  -2  21.392  2.2891   1
   0   8  -1 239.445 12.9948   1
   0   8   0 82.2994  4.9364   1
   0   8   1 252.983 18.2962   1
   0   8   2 20.7545  2.0214   1
   0   8   3 62.4816    5.84   1
   0   8   4 25.5415   3.777   1
   0   8   5  5.7721  2.0396   1
   0   8   6  1.9791  1.6341   1
   0   8   7  18.642  4.8686   1
   0   8   8   9.205  4.0817   1
   0   9  -5 49.4377  6.5452   1
   0   9  -4 36.2915  5.7113   1
   0   9  -3  3.1181   1.568   1
   0   9  -2 138.029 12.1817   1
   0   9  -1 68.5937  9.4027   1
   0   9   0  0.8747  0.7125   1
   0   9   1 70.9869  5.7716   1
   0   9   2 127.539  10.761   1
   0   9   3  2.3636  1.2135   1
   0   9   4 37.8212  4.5954   1
   0   9   5 78.8618  8.4405   1
   0   9   6 42.1868  6.4396   1
   0   9   7  1.6845  1.4093   1
   0  10  -3  44.064  6.5481   1
   0  10  -2   1.858  1.3759   1
   0  10  -1 35.2949  3.9354   1
   0  10   0  46.972  4.9606   1
   0  10   1 33.1483  3.9359   1
   0  10   2  5.5137  2.2402   1
   0  10   3 51.9239  6.0279   1
   0  10   4 80.3272  9.0576   1
   0  10   5 17.4824  3.6237   1
   0  10   6   12.13  4.0907   1
   0  10   7 16.0428  6.1155   1
   0  11  -2 33.5761  5.4282   1
   0  11  -1 66.3053  8.5191   1
   0  11   0  0.8022  0.7059   1
   0  11   1 85.9959  8.0477   1
   0  11   2 48.6148    4.88   1
   0  11   3  9.5454  3.3323   1
   0  11   4  15.365  3.8742   1
   0  11   5 15.7258  4.6404   1
   0  11   6  2.2542   1.822   1
   0  12   0 51.9828  7.5535   1
   0  12   1  5.6527  3.1353   1
   0  12   2  4.7488  2.8626   1
   0  12   3  4.6592  2.8097   1
   0  12   4 30.5481  6.4226   1
   0  12   5   2.856  2.0661   1
   0  13   0  1.6023   1.289   1
   0  13   1 13.3863  3.8736   1
   0  13   2 41.5618  6.9916   1
   0  13   3  2.7566  2.1595   1
   0  13   4  5.4357  3.8025   1
   0  14   0  7.7704  3.7179   1
   0  14   1  9.3253  3.5991   1
   0  14   2  2.3139  1.7962   1
   0  14   3  9.3141  4.3187   1
   1 -14  -3  4.2156  3.1098   1
   1 -14  -2  4.6861  2.8981   1
   1 -14  -1  7.8146  3.8027   1
   1 -14   0 17.7139  5.2155   1
   1 -14   1  2.3762   1.812   1
   1 -14   2  4.3146  3.1465   1
   1 -13  -4  5.1487   3.828   1
   1 -13  -3  8.9595  3.4223   1
   1 -13  -2 15.9769   5.097   1
   1 -13  -1  10.439  4.0717   1
   1 -13   0  1.7008  1.3614   1
   1 -13   1  6.6548    3.65   1
   1 -13   2 17.0103  4.0687   1
   1 -13   3    1.80  1.4186   1
   1 -13   4  2.6354  2.1306   1
   1 -12  -5  3.2627  1.9171   1
   1 -12  -4 10.3838  2.9163   1
   1 -12  -3 25.1505  5.0084   1
   1 -12  -2  2.2965  1.5338   1
   1 -12  -1 33.6249  5.7476   1
   1 -12   0 64.7862  7.7854   1
   1 -12   1 29.0377  4.5765   1
   1 -12   2 14.9635  3.3451   1
   1 -12   3 43.5215  8.7153   1
   1 -12   4  8.5729  3.3989   1
   1 -12   5   2.924    2.33   1
   1 -11  -6 21.2217  7.2518   1
   1 -11  -5 22.5784  3.5909   1
   1 -11  -4  8.0621  1.7224   1
   1 -11  -3 37.8789    5.84   1
   1 -11  -2 66.5371  8.8052   1
   1 -11  -1  5.8833  1.5162   1
   1 -11   0  1.8304  1.4048   1
   1 -11   1 13.0078  5.7336   1
   1 -11   2 28.3974  3.8413   1
   1 -11   3 20.6201  2.5364   1
   1 -11   4  1.9803  1.4747   1
   1 -11   5 16.5441  4.9183   1
   1 -11   6 11.8148  5.5374   1
   1 -10  -7  4.1616  3.0832   1
   1 -10  -6 10.7558  4.1672   1
   1 -10  -5  7.7814  1.9589   1
   1 -10  -4 66.9511  4.3409   1
   1 -10  -3 127.889 11.5272   1
   1 -10  -2 10.7977  2.0166   1
   1 -10  -1 13.2289  1.9259   1
   1 -10   0 102.959  7.2783   1
   1 -10   1   15.86  1.9785   1
   1 -10   2  2.6546  1.3037   1
   1 -10   3 63.3205  4.7108   1
   1 -10   4  9.3705  3.0612   1
   1 -10   5  3.2453  1.9258   1
   1 -10   6 15.6267  4.5214   1
   1  -9  -8  3.2905  2.7277   1
   1  -9  -7  3.9068  2.9777   1
   1  -9  -6  5.7636  3.3841   1
   1  -9  -5  25.553  3.7042   1
   1  -9  -4 15.4307  1.4929   1
   1  -9  -3 37.8742  3.1631   1
   1  -9  -2 10.5715  1.5404   1
   1  -9  -1 100.066  5.9646   1
   1  -9   0 12.9911  3.9311   1
   1  -9   1 114.396 10.6618   1
   1  -9   2 41.4515  4.8247   1
   1  -9   3 30.5055  2.4953   1
   1  -9   4  5.5273  1.6485   1
   1  -9   5 22.9653  6.3057   1
   1  -9   6  5.0892  2.5433   1
   1  -9   7  5.7913  3.6148   1
   1  -8  -8 14.5371  6.4464   1
   1  -8  -7 18.9113  5.9289   1
   1  -8  -6  46.594  6.8154   1
   1  -8  -5 15.6288  5.5528   1
   1  -8  -4 198.583 17.9901   1
   1  -8  -3 61.3108  3.9952   1
   1  -8  -2  6.6407  1.2346   1
   1  -8  -1 113.022  7.0213   1
   1  -8   0 164.699  8.5641   1
   1  -8   1  18.483  1.5075   1
   1  -8   2  7.2788  1.6168   1
   1  -8   3  45.755  2.6506   1
   1  -8   4 79.5834   6.671   1
   1  -8   5  1.4875  1.1617   1
   1  -8   6 20.7462  6.8057   1
   1  -8   7  7.2208   3.181   1
   1  -7  -8  5.0747  3.0714   1
   1  -7  -7  4.1612  2.2269   1
   1  -7  -6 112.448 22.1868   1
   1  -7  -5 29.5894  5.2744   1
   1  -7  -4 15.5088  2.9153   1
   1  -7  -3 42.4977  2.0715   1
   1  -7  -2 265.674 16.1821   1
   1  -7  -1 88.7087  4.3708   1
   1  -7   0 36.3232  3.2812   1
   1  -7   1 66.5288  9.7194   1
   1  -7   2 185.374  8.1812   1
   1  -7   3 10.4313   1.286   1
   1  -7   4 26.4873  1.8473   1
   1  -7   5 43.7471  7.0522   1
   1  -7   6 55.2529  7.9539   1
   1  -7   7  2.9239  2.1205   1
   1  -7   8  3.8013  2.8493   1
   1  -6  -9  3.0164  2.5636   1
   1  -6  -8  2.9944  1.9653   1
   1  -6  -7 63.2566  8.0843   1
   1  -6  -6  3.9387  1.7651   1
   1  -6  -5 35.5172  2.9541   1
   1  -6  -4 64.6391   3.541   1
   1  -6  -3 223.265  9.3005   1
   1  -6  -2 14.8014  1.6688   1
   1  -6  -1 69.7633    5.61   1
   1  -6   0 390.259 14.7035   1
   1  -6   1 189.397  8.0249   1
   1  -6   2 99.0628  4.0974   1
   1  -6   3 195.675  8.1888   1
   1  -6   4 30.2416  3.0927   1
   1  -6   5 10.9828   1.636   1
   1  -6   6  16.188  5.0927   1
   1  -6   7 43.1154  6.8932   1
   1  -6   8  3.0278  2.2146   1
   1  -5  -9 14.6986  4.8878   1
   1  -5  -8 10.8007  3.2693   1
   1  -5  -7  9.3654   2.379   1
   1  -5  -6 83.3126 13.8126   1
   1  -5  -5 119.806  7.3631   1
   1  -5  -4 36.8488  2.4413   1
   1  -5  -3 23.1736  2.2111   1
   1  -5  -2 465.598 23.0995   1
   1  -5  -1  27.017  5.1674   1
   1  -5   0 27.8509  1.4307   1
   1  -5   1 68.3853  3.2646   1
   1  -5   2 174.265   9.611   1
   1  -5   3 110.714  5.2492   1
   1  -5   4 20.0833  1.7556   1
   1  -5   5 59.1151  4.0844   1
   1  -5   6 30.8289   2.871   1
   1  -5   7  5.7703  1.9894   1
   1  -5   8  8.9713  3.6094   1
   1  -4  -9  4.6231  3.2827   1
   1  -4  -8 24.9643  4.5718   1
   1  -4  -7 49.5938 11.8853   1
   1  -4  -6 15.3929  2.3977   1
   1  -4  -5  15.118  1.6212   1
   1  -4  -4 98.4219   4.583   1
   1  -4  -3 155.197   7.595   1
   1  -4  -2 105.205  3.2905   1
   1  -4  -1 266.796  8.1219   1
   1  -4   0 232.505  7.0928   1
   1  -4   1  142.76  4.8375   1
   1  -4   2 17.9208  1.0104   1
   1  -4   3 124.799  7.0855   1
   1  -4   4 134.641  7.5212   1
   1  -4   5 16.2157  1.8961   1
   1  -4   6 15.3423  1.6853   1
   1  -4   7  17.589   2.961   1
   1  -4   8  4.3072  2.5196   1
   1  -4   9  3.2114  2.5754   1
   1  -3  -9 23.3915  6.8238   1
   1  -3  -8 14.4819  3.9971   1
   1  -3  -7  6.1525  3.1537   1
   1  -3  -6 28.9778  2.3787   1
   1  -3  -5 509.771 27.3314   1
   1  -3  -4 20.8844  1.6448   1
   1  -3  -3 170.495  7.1931   1
   1  -3  -2  168.76  4.9524   1
   1  -3   0  69.511  2.7001   1
   1  -3   2  46.753  2.5562   1
   1  -3   3 105.015  6.2546   1
   1  -3   4 81.4441  3.8789   1
   1  -3   5 173.743  9.5587   1
   1  -3   6  7.2062  1.8867   1
   1  -3   7  4.7591  1.4811   1
   1  -3   8 17.7331  8.6763   1
   1  -3   9 16.3083  6.0935   1
   1  -2 -10  9.2872  4.7524   1
   1  -2  -9  3.6587   2.207   1
   1  -2  -8 49.6769  7.7808   1
   1  -2  -7 34.0773  5.0289   1
   1  -2  -6  3.2615  1.1318   1
   1  -2  -5 38.6831  2.4935   1
   1  -2  -4 405.809 24.4272   1
   1  -2  -3 165.163  6.3276   1
   1  -2  -2 129.946  8.5331   1
   1  -2  -1 450.188 22.1099   1
   1  -2   0  335.94  8.6056   1
   1  -2   1  203.72  5.3512   1
   1  -2   2 43.0155  1.6697   1
   1  -2   3 116.928  4.3371   1
   1  -2   4 288.668 12.2112   1
   1  -2   5   2.832  1.1939   1
   1  -2   6 15.8105  1.6746   1
   1  -2   7 27.9557  5.2073   1
   1  -2   8 17.8521 10.3777   1
   1  -2   9   3.065  2.4761   1
   1  -1 -10  6.6047  4.6845   1
   1  -1  -9   8.456  3.6066   1
   1  -1  -8 50.8076  5.5523   1
   1  -1  -7  1.4756  1.1061   1
   1  -1  -6 100.216  5.9708   1
   1  -1  -5 191.226  9.6925   1
   1  -1  -4  116.43  4.6906   1
   1  -1  -3 65.1463  8.1935   1
   1  -1  -1 167.606  6.9643   1
   1  -1   0 56.1773  2.1804   1
   1  -1   1 1288.08 57.3249   1
   1  -1   3  1.3751  0.5204   1
   1  -1   4 73.2537   4.969   1
   1  -1   5 122.216  5.6382   1
   1  -1   6   87.17  4.9731   1
   1  -1   7 18.8175  2.0577   1
   1  -1   8  4.2909  1.6605   1
   1  -1   9  4.6204  3.2061   1
   1   0 -10  3.5603  2.8985   1
   1   0  -9  2.6251  1.9893   1
   1   0  -8 10.9686  3.3371   1
   1   0  -7 160.954 12.5575   1
   1   0  -6 30.7149  2.6166   1
   1   0  -5 104.254  5.2626   1
   1   0  -4 110.622  6.7488   1
   1   0  -3 225.286  7.0141   1
   1   0  -2 17.9908  1.8214   1
   1   0  -1 48.6523  1.9832   1
   1   0   0 43.5447  3.4034   1
   1   0   1   1.814  0.2323   1
   1   0   2 10.2357  0.6023   1
   1   0   3  3.0891   0.949   1
   1   0   4 49.1324  2.9168   1
   1   0   5 18.2033  1.4588   1
   1   0   6  4.4373  1.0784   1
   1   0   7 112.578  9.4948   1
   1   0   8   2.077  1.6841   1
   1   0   9  2.0479  1.7358   1
   1   1 -10  6.6201  4.5575   1
   1   1  -9  4.2575  2.9788   1
   1   1  -8 47.9852  6.9709   1
   1   1  -7  4.0637  1.3834   1
   1   1  -6 71.2029  3.9987   1
   1   1  -5 239.177  10.788   1
   1   1  -4 109.627  4.4461   1
   1   1  -3 81.0346   5.043   1
   1   1  -1 186.102  8.5031   1
   1   1   0 58.9019  1.9046   1
   1   1   3  4.0984  1.1534   1
   1   1   4 71.5852  3.3557   1
   1   1   5 147.833  6.6424   1
   1   1   6 70.2249  4.0799   1
   1   1   7  17.306  2.4691   1
   1   1   8  5.5929  1.8887   1
   1   1   9  5.2541  3.0896   1
   1   2 -10  9.1547  5.1396   1
   1   2  -9  5.0061   3.301   1
   1   2  -8 43.0637  6.7209   1
   1   2  -7 33.4256 10.2575   1
   1   2  -6  4.9712  1.6249   1
   1   2  -5 38.5633  2.4671   1
   1   2  -4 396.026  15.575   1
   1   2  -3 106.229  4.2771   1
   1   2  -2 120.073  4.2645   1
   1   2  -1 441.788 19.2461   1
   1   2   0 432.426 19.6651   1
   1   2   1 228.599  6.0596   1
   1   2   2 56.2879  3.3437   1
   1   2   3 139.323  7.1614   1
   1   2   4 294.119 20.9827   1
   1   2   5   3.773   1.031   1
   1   2   6 14.7567  1.8387   1
   1   2   7 21.6139   2.222   1
   1   2   8 22.7649   4.773   1
   1   2   9  4.3758  2.6007   1
   1   3  -9 20.7406  7.3853   1
   1   3  -8  6.0566  2.6388   1
   1   3  -7  5.1866  1.5244   1
   1   3  -6 35.0217  2.8287   1
   1   3  -5 508.435 29.4861   1
   1   3  -4 26.8046  1.8106   1
   1   3  -3 145.718  5.8556   1
   1   3  -2 152.216  6.7464   1
   1   3   0 78.6349  2.9428   1
   1   3   2 67.0048  2.7044   1
   1   3   3 123.335  5.1163   1
   1   3   4  84.053  4.1836   1
   1   3   5 171.104 10.1924   1
   1   3   6  4.5722   1.627   1
   1   3   7  7.5016  2.6307   1
   1   3   8 37.0818  6.8879   1
   1   3   9  13.822   5.372   1
   1   4  -9  1.8965  1.5581   1
   1   4  -8 20.1728  4.7405   1
   1   4  -7  51.482  4.6329   1
   1   4  -6 14.8313  1.7216   1
   1   4  -5 14.9338  3.3476   1
   1   4  -4 98.1013  7.9738   1
   1   4  -3 202.148 10.0242   1
   1   4  -2 95.3049  5.1521   1
   1   4  -1  269.33 13.2517   1
   1   4   0 190.657  6.3586   1
   1   4   1 163.896  8.2464   1
   1   4   2 15.8719  1.4373   1
   1   4   3 139.726  6.0166   1
   1   4   4 140.665  7.2007   1
   1   4   5 20.3865  1.7037   1
   1   4   6 19.5589  2.4949   1
   1   4   7 30.4907  4.5405   1
   1   4   8  9.2142   3.613   1
   1   4   9  3.1983   2.231   1
   1   5  -9  7.2357  3.9208   1
   1   5  -8 12.9158  3.8509   1
   1   5  -7  8.4185  2.2031   1
   1   5  -6 92.9556 13.5988   1
   1   5  -5 91.5918  5.5468   1
   1   5  -4  35.115  2.6466   1
   1   5  -3 13.2411   1.573   1
   1   5  -2 504.209 25.3967   1
   1   5  -1 25.0497  1.6703   1
   1   5   0 22.2806    1.21   1
   1   5   1 56.8909  3.6346   1
   1   5   2 177.213 10.2783   1
   1   5   3 103.842  6.5516   1
   1   5   4 25.4186  1.7537   1
   1   5   5 53.0185  4.4447   1
   1   5   6 49.4732  3.6164   1
   1   5   7  6.4154  1.4081   1
   1   5   8  4.8675  1.6696   1
   1   6  -9  2.4456   1.928   1
   1   6  -8   6.128  3.1307   1
   1   6  -7 50.4798  6.3063   1
   1   6  -6  5.8372  2.2638   1
   1   6  -5 25.8661  2.4551   1
   1   6  -4 63.3021  4.4001   1
   1   6  -3 194.035 12.7864   1
   1   6  -2 10.9561  1.6907   1
   1   6  -1 49.8211  3.0889   1
   1   6   0 382.615 18.6166   1
   1   6   1 194.766 10.9382   1
   1   6   2  91.022  5.8171   1
   1   6   3 213.335 13.5614   1
   1   6   4 36.9546  3.4366   1
   1   6   5 14.5942  2.7886   1
   1   6   6 14.5502  3.6813   1
   1   6   7 47.1777  4.6362   1
   1   6   8  2.5406  1.9368   1
   1   7  -6 84.0618 12.7263   1
   1   7  -5 39.3895  4.0171   1
   1   7  -4 14.2418  2.4368   1
   1   7  -3 38.6921  3.2316   1
   1   7  -2 237.759 18.8424   1
   1   7  -1 112.626  6.6972   1
   1   7   0 35.8799  2.9402   1
   1   7   1 104.133  7.1838   1
   1   7   2 211.503 14.1616   1
   1   7   3 16.7543  2.0332   1
   1   7   4 26.8472  3.2612   1
   1   7   5 46.2005  5.2428   1
   1   7   6 56.5841  7.3314   1
   1   7   7  2.9518  1.9297   1
   1   7   8  3.0443  2.1498   1
   1   8  -5  17.994  3.6185   1
   1   8  -4 192.711 19.3433   1
   1   8  -3 62.3329  5.5422   1
   1   8  -2  5.7554  1.4346   1
   1   8  -1 98.7023  6.8784   1
   1   8   0 168.376 12.3282   1
   1   8   1 12.0702  2.1844   1
   1   8   2  4.0407  1.5621   1
   1   8   3 35.8634  3.6265   1
   1   8   4  82.684  8.1064   1
   1   8   5  2.6248  1.5866   1
   1   8   6 25.6658  5.0265   1
   1   8   7   9.671  3.9259   1
   1   9  -4 20.3164  3.1783   1
   1   9  -3 48.4857  5.2812   1
   1   9  -2 23.7137  2.5771   1
   1   9  -1  97.445  8.7346   1
   1   9   0 12.4732  1.7015   1
   1   9   1 108.822  8.6851   1
   1   9   2 37.4188  4.1162   1
   1   9   3 28.0758  3.2773   1
   1   9   4 13.2632  2.9285   1
   1   9   5 30.5854  4.9386   1
   1   9   6  8.2712  3.8938   1
   1   9   7  7.3882  3.9661   1
   1  10  -3  128.39 13.5614   1
   1  10  -2  9.4008   2.746   1
   1  10  -1 15.9236  2.4603   1
   1  10   0 91.2147 12.4021   1
   1  10   1 19.7448  3.3351   1
   1  10   2  2.3372  1.5356   1
   1  10   3  73.897  6.7087   1
   1  10   4  9.9833  3.0218   1
   1  10   5  2.7896  2.0202   1
   1  10   6 15.0971  6.7419   1
   1  11   0  1.6661  1.1569   1
   1  11   1 17.7737  3.9994   1
   1  11   2 53.8295  6.5525   1
   1  11   3 19.3962  4.3383   1
   1  11   4  4.5771  2.9278   1
   1  11   5 14.3214  4.7379   1
   1  11   6 13.7233  6.5609   1
   1  12   0 69.0345  9.1415   1
   1  12   1 31.1437  6.0458   1
   1  12   2   4.694  2.4495   1
   1  12   3 34.6701  7.0242   1
   1  12   4   9.959  3.9991   1
   1  12   5  7.3278  4.5863   1
   1  13   0  4.0334  2.9687   1
   1  13   1  6.7924  3.5812   1
   1  13   2 22.1161  4.9739   1
   1  13   3  1.9371  1.5814   1
   1  13   4  3.8585  2.5434   1
   1  14   0 26.2021  7.0715   1
   1  14   1    4.13  2.6352   1
   1  14   2  2.9685  2.2792   1
   2 -14  -2  3.5781  2.6064   1
   2 -14  -1   6.528  3.4635   1
   2 -14   0  6.2695  3.8667   1
   2 -13  -4  3.8249  2.7421   1
   2 -13  -3  9.5755  2.8907   1
   2 -13  -2 18.9881  2.8876   1
   2 -13  -1  8.0266  4.1559   1
   2 -13   0  3.0657  2.3652   1
   2 -13   1 16.7494  4.7922   1
   2 -13   2  9.1217  4.4544   1
   2 -13   3  3.2269   2.539   1
   2 -12  -5  6.1645  2.2688   1
   2 -12  -4 20.2938  4.7384   1
   2 -12  -3  4.8086  1.5864   1
   2 -12  -2  2.6816  1.4681   1
   2 -12  -1 13.7272  2.4574   1
   2 -12   0 17.9117  2.7161   1
   2 -12   1  3.2816  1.5135   1
   2 -12   2  2.2447  1.6119   1
   2 -12   3  5.1959   3.235   1
   2 -12   4  6.0892  2.9515   1
   2 -11  -6  5.3948  2.4957   1
   2 -11  -5 49.1011  6.4534   1
   2 -11  -4  1.8018  1.1508   1
   2 -11  -3  2.6557  1.1014   1
   2 -11  -2 32.4557   4.793   1
   2 -11  -1 34.1641  4.8877   1
   2 -11   0  5.0965  1.3775   1
   2 -11   1 50.0392  4.2415   1
   2 -11   2 16.0285  2.5881   1
   2 -11   3  5.5056  2.0872   1
   2 -11   4  13.927    4.72   1
   2 -11   5  7.6764  4.0649   1
   2 -10  -7 16.3461  5.1288   1
   2 -10  -6  3.9459  2.5078   1
   2 -10  -5  5.1504  2.3574   1
   2 -10  -4 29.1054  5.6437   1
   2 -10  -3 49.4431  4.0428   1
   2 -10  -2 18.2183  2.8759   1
   2 -10  -1 63.5091  4.1709   1
   2 -10   0  29.902  4.0278   1
   2 -10   1 15.6244  1.8406   1
   2 -10   2  5.9881  1.5489   1
   2 -10   3 13.4918  1.8171   1
   2 -10   4 14.2722  2.7333   1
   2 -10   5   7.045  3.7172   1
   2  -9  -7   4.275  2.7097   1
   2  -9  -6 39.2992  7.0566   1
   2  -9  -5 44.4766  6.3058   1
   2  -9  -4 23.7853  3.8402   1
   2  -9  -3 52.2233  2.7682   1
   2  -9  -2 233.437  14.825   1
   2  -9  -1 56.2191  3.2074   1
   2  -9   0  4.2325  0.9245   1
   2  -9   1 82.4462  4.7901   1
   2  -9   2 77.4949  5.1514   1
   2  -9   3  7.1203  1.1647   1
   2  -9   4 10.0656  1.7767   1
   2  -9   5  6.9945   4.406   1
   2  -9   6  8.2275  3.5143   1
   2  -8  -8 15.2693  5.6354   1
   2  -8  -7 35.7499  7.0173   1
   2  -8  -6  1.4717  1.1024   1
   2  -8  -5 13.1846  2.6264   1
   2  -8  -4 72.3431 10.8037   1
   2  -8  -3 12.2334  1.4848   1
   2  -8  -2  4.7221  1.9348   1
   2  -8  -1  30.577   1.784   1
   2  -8   0 41.8048  2.7662   1
   2  -8   1 51.2913  2.4956   1
   2  -8   2 64.6292  4.4846   1
   2  -8   3 64.7913   3.783   1
   2  -8   4 38.3077  3.3808   1
   2  -8   5  6.5715  1.3773   1
   2  -8   6  9.1749  2.5239   1
   2  -8   7  2.0341  1.5734   1
   2  -7  -8 10.8827  3.6145   1
   2  -7  -7  4.8759  2.8369   1
   2  -7  -6 33.7063  8.2907   1
   2  -7  -5 45.7203  5.4214   1
   2  -7  -4 47.9391  2.9692   1
   2  -7  -3 19.9366  1.4207   1
   2  -7  -2 216.134 10.1706   1
   2  -7  -1 49.3922  2.3335   1
   2  -7   0 18.2012  1.3777   1
   2  -7   1 93.6351  3.8482   1
   2  -7   2 86.1053  3.8726   1
   2  -7   3 10.2917  1.2499   1
   2  -7   4 34.4322  3.6465   1
   2  -7   5  31.856  3.4074   1
   2  -7   6 10.8285  2.2036   1
   2  -7   7  4.3388  2.6367   1
   2  -6  -9  2.1173  1.7196   1
   2  -6  -8 20.7008  4.9614   1
   2  -6  -7  4.0841  2.4077   1
   2  -6  -6 43.8428  3.9802   1
   2  -6  -5 52.9953  3.9593   1
   2  -6  -4 227.708  12.451   1
   2  -6  -3  8.5353  0.7669   1
   2  -6  -2 16.1229  0.8743   1
   2  -6  -1 70.5974  4.5758   1
   2  -6   0 459.031 19.1135   1
   2  -6   1  0.5582  0.3985   1
   2  -6   2  1.2838  0.6764   1
   2  -6   3 18.5978  1.2344   1
   2  -6   4 51.5654  2.8041   1
   2  -6   5 19.9697   2.288   1
   2  -6   6  3.6153  2.1786   1
   2  -6   7  7.8578  3.9237   1
   2  -5  -9  21.639  7.4552   1
   2  -5  -8 11.3086  4.0469   1
   2  -5  -7  3.6434  1.8551   1
   2  -5  -6 34.9252  7.1031   1
   2  -5  -5 130.292  7.8061   1
   2  -5  -4 34.8291   6.958   1
   2  -5  -3  72.364  2.9798   1
   2  -5  -2 260.164  9.0773   1
   2  -5  -1 87.9499  4.7796   1
   2  -5   0 34.5953  1.4659   1
   2  -5   1 151.154  5.6445   1
   2  -5   2 144.829  5.8147   1
   2  -5   3 35.0436  2.9248   1
   2  -5   4 53.9625   3.057   1
   2  -5   5  62.598  4.2793   1
   2  -5   6  4.7986   1.754   1
   2  -5   7  2.1497  1.5054   1
   2  -5   8  8.5328  4.4987   1
   2  -4  -9  3.1799  2.1703   1
   2  -4  -8 30.7319  5.9447   1
   2  -4  -7  83.705  31.005   1
   2  -4  -6 27.0085  2.5627   1
   2  -4  -5 12.2028  2.5743   1
   2  -4  -4 143.296   8.362   1
   2  -4  -3 555.232 20.3191   1
   2  -4  -2 51.0096  1.9111   1
   2  -4  -1 200.363  8.1206   1
   2  -4   0 168.433  8.4189   1
   2  -4   1 121.863  4.2895   1
   2  -4   2 77.2651  2.8922   1
   2  -4   3 172.353  8.4976   1
   2  -4   4 81.3725  4.2033   1
   2  -4   5 51.4386  3.4477   1
   2  -4   6 33.3214  3.5381   1
   2  -4   7 10.9613  3.6701   1
   2  -4   8  2.1314  1.6056   1
   2  -3  -9 11.3806  3.4365   1
   2  -3  -8 42.3159  6.4546   1
   2  -3  -7  5.9417  2.6358   1
   2  -3  -6 165.668 11.1062   1
   2  -3  -5 29.3603  1.9768   1
   2  -3  -4  2.0776  0.8949   1
   2  -3  -3 94.2846  4.2842   1
   2  -3  -2 14.5216  0.8638   1
   2  -3  -1 115.384  4.0111   1
   2  -3   0  7.5334  0.5489   1
   2  -3   1 128.164  4.5421   1
   2  -3   2 300.049 10.2015   1
   2  -3   3  4.1448  0.7845   1
   2  -3   4 18.9663  1.9401   1
   2  -3   5 41.2203  2.7971   1
   2  -3   6 44.0362  3.4919   1
   2  -3   7  1.6528  1.2006   1
   2  -3   8  2.0598  1.6014   1
   2  -2 -10  6.0725  4.2574   1
   2  -2  -9  7.0057  2.9267   1
   2  -2  -8  9.0873  3.6322   1
   2  -2  -7 69.0542 11.3422   1
   2  -2  -6 19.2658  3.3044   1
   2  -2  -5   1.972  1.3928   1
   2  -2  -4 198.351  9.7054   1
   2  -2  -3 589.093 15.5293   1
   2  -2  -2 17.6209  1.1706   1
   2  -2  -1 533.088 25.7913   1
   2  -2   0  258.57  8.9402   1
   2  -2   1 237.244   6.975   1
   2  -2   2 67.3474  2.8877   1
   2  -2   3 145.725  7.2652   1
   2  -2   4 56.6393  3.6389   1
   2  -2   5 29.3123  2.3625   1
   2  -2   6 69.9724  5.1159   1
   2  -2   7 12.3558  2.6939   1
   2  -2   8  3.2811  2.3891   1
   2  -1 -10  4.3323  2.8265   1
   2  -1  -9 30.6705  6.2693   1
   2  -1  -8 12.2731    3.07   1
   2  -1  -7 15.7542  1.9507   1
   2  -1  -6 87.8414  6.9606   1
   2  -1  -5 141.176   7.032   1
   2  -1  -4  1.4061  0.9321   1
   2  -1  -3 257.698  9.1798   1
   2  -1  -2 253.874  14.821   1
   2  -1  -1 198.599  6.8496   1
   2  -1   0 26.9005  1.0377   1
   2  -1   1 79.1276  2.4865   1
   2  -1   2 167.537  6.0727   1
   2  -1   3 58.2933  2.6309   1
   2  -1   4  1.3937  0.8754   1
   2  -1   5 79.5042  4.1919   1
   2  -1   6  9.4086  1.9945   1
   2  -1   7  4.5005  2.1366   1
   2  -1   8 13.9557    3.93   1
   2   0 -10 13.5088  5.7534   1
   2   0  -9  1.6102   1.319   1
   2   0  -8 60.6964  6.7857   1
   2   0  -7 61.3998  7.1625   1
   2   0  -6 161.734  8.8995   1
   2   0  -5 62.5593  4.2897   1
   2   0  -4 170.889 13.1412   1
   2   0  -3 22.2161  1.2209   1
   2   0  -2 46.9152  2.0208   1
   2   0  -1 64.6583  2.6643   1
   2   0   1  6.0299  0.5089   1
   2   0   2 101.979  5.1674   1
   2   0   4 318.291 14.2746   1
   2   0   5 33.5277  2.1335   1
   2   0   6  1.7487  1.2016   1
   2   0   7 14.0502  2.3059   1
   2   0   8  3.4201  1.8092   1
   2   1 -10  6.7326  3.8585   1
   2   1  -9   40.18  6.9418   1
   2   1  -8 20.8148  3.9557   1
   2   1  -7 19.5992  3.7217   1
   2   1  -6 90.2465  5.6541   1
   2   1  -5 128.557  6.2977   1
   2   1  -4  0.6328  0.4894   1
   2   1  -3 252.439  9.2614   1
   2   1  -2 297.616 15.3479   1
   2   1  -1 193.646   9.813   1
   2   1   0 26.4212  1.2559   1
   2   1   1  52.468  2.1423   1
   2   1   2 209.281  7.7616   1
   2   1   3 50.9471  6.9048   1
   2   1   4  5.7168  0.7875   1
   2   1   5 98.0623 11.4459   1
   2   1   6 12.7217  2.2615   1
   2   1   7  4.0691  2.5723   1
   2   1   8 11.7751  4.9423   1
   2   2 -10  4.8767  3.4467   1
   2   2  -9  4.4499  3.1102   1
   2   2  -8  5.2196  2.5308   1
   2   2  -7 79.9598  6.2753   1
   2   2  -6 11.8025  2.1412   1
   2   2  -5  2.6197  1.0943   1
   2   2  -4 191.795  9.5106   1
   2   2  -3 608.153 25.0302   1
   2   2  -2 16.3199  1.3904   1
   2   2  -1 534.998 23.7647   1
   2   2   0 238.183  7.9272   1
   2   2   1 241.191 32.2259   1
   2   2   2 78.1829  3.3141   1
   2   2   3 127.545  5.2821   1
   2   2   4 35.8054  2.2523   1
   2   2   5 33.9322  2.5765   1
   2   2   6 69.7719 11.9073   1
   2   2   7 14.5438  3.6726   1
   2   2   8  2.5541  1.8719   1
   2   3  -9  19.441  5.4141   1
   2   3  -8 35.1958  6.3829   1
   2   3  -7  3.6681  1.6408   1
   2   3  -6 157.193 13.2171   1
   2   3  -5 31.0425  2.6667   1
   2   3  -4  1.5465  0.6622   1
   2   3  -3 71.2296  4.5417   1
   2   3  -2   6.834  1.0315   1
   2   3  -1 86.0654  4.6037   1
   2   3   0  8.8658  0.7341   1
   2   3   1  140.04  5.8375   1
   2   3   2 295.151 13.1168   1
   2   3   3  7.4748  0.8857   1
   2   3   4 27.2245  2.7398   1
   2   3   5 38.5615  3.4525   1
   2   3   6 49.1937  3.6212   1
   2   3   7  1.5364  1.1753   1
   2   3   8  3.1219  2.0346   1
   2   4  -9  2.7739  2.2066   1
   2   4  -8   33.82   6.247   1
   2   4  -7 79.9784  7.5685   1
   2   4  -6 24.1265  6.5409   1
   2   4  -5  7.6841   2.271   1
   2   4  -4 123.992   9.508   1
   2   4  -3 455.815 22.1589   1
   2   4  -2   47.93  3.1892   1
   2   4  -1 187.721   9.575   1
   2   4   0 169.679  6.8347   1
   2   4   1 109.995  6.2589   1
   2   4   2 76.1319  5.4808   1
   2   4   3 165.119  8.6379   1
   2   4   4 105.494  5.7792   1
   2   4   5 52.1338  3.8849   1
   2   4   6 37.7982  3.3017   1
   2   4   7 11.9473  2.5182   1
   2   4   8  1.9075  1.4447   1
   2   5  -9 21.1447  8.9479   1
   2   5  -8  9.6596  3.2626   1
   2   5  -7  1.4494  1.1566   1
   2   5  -6 35.7441  4.7266   1
   2   5  -5 120.097  9.5745   1
   2   5  -4 23.5806  2.3743   1
   2   5  -3  61.867  4.3278   1
   2   5  -2 262.476 15.8693   1
   2   5  -1 76.2164   4.692   1
   2   5   0 28.7685   2.675   1
   2   5   1 145.882  8.5876   1
   2   5   2 134.787  8.3607   1
   2   5   3 41.4284   2.478   1
   2   5   4 59.7971  7.0403   1
   2   5   5 63.7312  4.4412   1
   2   5   6  6.3847  1.8692   1
   2   5   7   2.446  1.6371   1
   2   5   8  8.6168  5.0014   1
   2   6  -6 35.4694  4.9781   1
   2   6  -5 46.0862  5.2013   1
   2   6  -4 212.567 17.9339   1
   2   6  -3  6.0119  1.3749   1
   2   6  -2 16.4628  1.7843   1
   2   6  -1 74.1608  5.0177   1
   2   6   0 479.652 21.1025   1
   2   6   1    0.96  0.6752   1
   2   6   2  7.1048  1.3692   1
   2   6   3 33.1437  3.1381   1
   2   6   4 59.0645  5.2007   1
   2   6   5  18.165  2.9127   1
   2   6   6   2.056  1.2799   1
   2   6   7 12.0656  2.4741   1
   2   7  -5 35.1691  4.2474   1
   2   7  -4 42.5336  4.6774   1
   2   7  -3 18.6403  3.0353   1
   2   7  -2 218.355 17.8534   1
   2   7  -1 31.0114  2.7645   1
   2   7   0 18.0469   1.777   1
   2   7   1 74.3526  6.3297   1
   2   7   2 86.8454  7.5666   1
   2   7   3 10.1516  1.8327   1
   2   7   4 31.5168  4.5911   1
   2   7   5 31.8077  4.4282   1
   2   7   6 11.6686  3.4033   1
   2   7   7  4.7429  2.8732   1
   2   8  -5  7.8806   2.627   1
   2   8  -4 54.9134  5.9946   1
   2   8  -3 16.2637  3.1551   1
   2   8  -2  4.3772  1.9351   1
   2   8  -1 25.9343  2.7132   1
   2   8   0 32.6325  2.5527   1
   2   8   1 57.5449  5.4665   1
   2   8   2 83.8521  7.0945   1
   2   8   3 80.7842   7.269   1
   2   8   4 41.3874  4.9798   1
   2   8   5 10.5787   2.445   1
   2   8   6  8.2498  4.1602   1
   2   8   7  3.1222  2.4965   1
   2   9  -4 18.0891  3.3377   1
   2   9  -3 41.2091  5.5378   1
   2   9  -2  193.81 21.5956   1
   2   9  -1 51.2379   5.423   1
   2   9   0  4.6823   1.488   1
   2   9   1 89.0291  7.5405   1
   2   9   2  83.048  8.3345   1
   2   9   3 10.1763  2.4452   1
   2   9   4 16.8734  3.4382   1
   2   9   5  9.8175  3.3781   1
   2   9   6  10.013  5.3261   1
   2  10  -2 11.1137  2.9706   1
   2  10  -1 65.3878  9.1567   1
   2  10   0 31.8793 12.2091   1
   2  10   1 15.6766  3.2408   1
   2  10   2  3.8858  2.3383   1
   2  10   3 19.3681  4.1522   1
   2  10   4 19.6333  5.3451   1
   2  10   5  7.1235  4.1317   1
   2  11   0  5.7791  2.7994   1
   2  11   1   66.05 10.0567   1
   2  11   2 19.8403  4.5317   1
   2  11   3   9.182  2.6313   1
   2  11   4 17.5586  5.3123   1
   2  11   5 10.6873  4.4916   1
   2  12   0 28.5873  4.2813   1
   2  12   1  1.7989  1.4015   1
   2  12   2  5.3952  3.4193   1
   2  12   3  14.331  3.5289   1
   2  12   4  7.9701  4.0526   1
   2  13   1 23.8399  4.7389   1
   2  13   2 10.3481   4.834   1
   2  13   3  3.2601  2.6669   1
   3 -13  -2  9.8707  3.6235   1
   3 -13  -1  5.5648  3.6164   1
   3 -13   0  1.8121   1.555   1
   3 -12  -4 30.3884  4.7737   1
   3 -12  -3 19.4676   2.894   1
   3 -12  -2   1.881  1.5101   1
   3 -12  -1  5.7011  2.5602   1
   3 -12   0  8.1396  6.2131   1
   3 -12   1  6.4208  2.1943   1
   3 -12   2 14.1351  4.0844   1
   3 -11  -6  6.1019  3.0305   1
   3 -11  -5  7.0739  2.2017   1
   3 -11  -4  1.4888  1.2655   1
   3 -11  -3 13.5962  2.0157   1
   3 -11  -2  30.981  3.0211   1
   3 -11  -1  4.4728  1.6285   1
   3 -11   0  3.0486  1.1679   1
   3 -11   1 15.5369  1.9972   1
   3 -11   2  7.6967  2.0524   1
   3 -11   3  2.2455  1.5916   1
   3 -10  -6  8.3093   4.101   1
   3 -10  -5  8.7076  2.8514   1
   3 -10  -4 22.4112  2.7259   1
   3 -10  -3  27.829  2.1216   1
   3 -10  -2  9.9814  1.6965   1
   3 -10  -1 45.6547  4.2086   1
   3 -10   0 69.9836  5.0137   1
   3 -10   1 14.8061  2.7336   1
   3 -10   2   5.267  1.6582   1
   3 -10   3 10.8337   2.602   1
   3 -10   4  6.4998  2.2774   1
   3  -9  -7  2.4446  2.0195   1
   3  -9  -6 39.0181  7.2346   1
   3  -9  -5 41.4642  4.9813   1
   3  -9  -4  2.5145  0.9893   1
   3  -9  -3  6.9786   1.073   1
   3  -9  -2  7.2788  1.0168   1
   3  -9  -1  19.888  1.9142   1
   3  -9   0 19.8918  1.7149   1
   3  -9   1 11.1552  1.7136   1
   3  -9   2 14.1229  1.5579   1
   3  -9   3   2.813  1.1514   1
   3  -9   4 12.6686  2.7814   1
   3  -8  -8  5.1372  3.4042   1
   3  -8  -7  6.6194   3.091   1
   3  -8  -6  6.3198  1.9442   1
   3  -8  -5 10.7104  2.2292   1
   3  -8  -4 111.092  6.4337   1
   3  -8  -3 56.9378  3.0045   1
   3  -8  -2 22.7778  1.4616   1
   3  -8  -1  127.25   8.183   1
   3  -8   0 113.787  5.6202   1
   3  -8   1  2.5071  1.0377   1
   3  -8   2   5.085  0.9566   1
   3  -8   3 46.4057  5.1972   1
   3  -8   4   6.496  4.4567   1
   3  -8   5   1.028  0.8204   1
   3  -7  -8  9.7244  3.4132   1
   3  -7  -7 11.1269  3.8505   1
   3  -7  -6 32.4699 14.0767   1
   3  -7  -5 10.7604   2.839   1
   3  -7  -4 10.8449  1.0704   1
   3  -7  -3 130.719  6.7113   1
   3  -7  -2 118.117  4.8276   1
   3  -7  -1 13.7564  1.1973   1
   3  -7   0 37.4412  2.2205   1
   3  -7   1 80.9862  3.6725   1
   3  -7   2 65.5287  3.4079   1
   3  -7   3  1.4361  0.9135   1
   3  -7   4 13.9931  2.7367   1
   3  -7   5 17.8136  3.9019   1
   3  -6  -8  20.887  5.9869   1
   3  -6  -7 58.0371  8.7116   1
   3  -6  -6 10.9468  1.7103   1
   3  -6  -5 18.1514  3.0267   1
   3  -6  -4 52.9545  7.7452   1
   3  -6  -3  40.619  2.5546   1
   3  -6  -2 10.7482  0.8327   1
   3  -6  -1  53.985  3.3461   1
   3  -6   0 96.1617   4.104   1
   3  -6   1 55.7644   2.583   1
   3  -6   2 42.2826  2.1435   1
   3  -6   3 49.7242  3.1002   1
   3  -6   4 14.7016  2.8767   1
   3  -6   5  2.0211  1.3227   1
   3  -6   6 10.4343  4.0571   1
   3  -5  -9  8.0636  3.2361   1
   3  -5  -8 14.0435  4.4869   1
   3  -5  -7 25.9761  3.9064   1
   3  -5  -6 32.6823  6.7095   1
   3  -5  -5 50.3768 14.6612   1
   3  -5  -4 24.2598  3.3661   1
   3  -5  -3 69.0442   3.411   1
   3  -5  -2 216.268  8.8684   1
   3  -5  -1  41.839  1.7654   1
   3  -5   0 25.4569  1.1967   1
   3  -5   1 120.689  4.9809   1
   3  -5   2 70.9552  3.1203   1
   3  -5   3 37.7723  2.0421   1
   3  -5   4 18.5276  2.2992   1
   3  -5   5 21.2103  2.4855   1
   3  -5   6  8.3429  2.8655   1
   3  -4  -9  2.4571  1.8749   1
   3  -4  -8 15.6576  3.7076   1
   3  -4  -7 37.8991  5.1868   1
   3  -4  -6 12.2729  2.1808   1
   3  -4  -5 48.8879  4.0781   1
   3  -4  -4 101.035  8.8943   1
   3  -4  -3 80.9323  3.8279   1
   3  -4  -2  5.1408  1.1624   1
   3  -4  -1 87.2568   2.914   1
   3  -4   0  57.142  2.1701   1
   3  -4   1  4.1134  0.5033   1
   3  -4   2 19.0871  2.1886   1
   3  -4   3  69.716   3.202   1
   3  -4   4  38.912  2.3617   1
   3  -4   5  3.1534  1.2502   1
   3  -4   6 10.8703  3.3124   1
   3  -3  -9 18.9299   4.886   1
   3  -3  -8  5.7881   2.975   1
   3  -3  -7   7.192  1.7919   1
   3  -3  -6 56.8727  3.6542   1
   3  -3  -5 173.587 10.4295   1
   3  -3  -4 16.4119  1.3929   1
   3  -3  -3 77.2677  5.0872   1
   3  -3  -2 223.816  8.7257   1
   3  -3  -1 379.127 17.1032   1
   3  -3   0 129.941  4.4783   1
   3  -3   1 210.068  7.6842   1
   3  -3   2 53.9416  2.4979   1
   3  -3   3 38.8204  1.9156   1
   3  -3   4 96.7817  5.6507   1
   3  -3   5  3.6764  1.3549   1
   3  -3   6  1.6285  1.1666   1
   3  -3   7   1.518  1.2657   1
   3  -2  -9   5.568  3.1929   1
   3  -2  -8 71.1852   8.349   1
   3  -2  -7 45.7173 12.9024   1
   3  -2  -6 12.0121  4.3569   1
   3  -2  -5 48.7969  9.9081   1
   3  -2  -4 152.148  7.5274   1
   3  -2  -3 58.1314  3.7401   1
   3  -2  -2 20.0001  3.4185   1
   3  -2  -1 183.379  8.1376   1
   3  -2   0 136.132  8.5781   1
   3  -2   1 34.5377  2.1803   1
   3  -2   2  5.5868  0.4116   1
   3  -2   3 83.8883  5.1601   1
   3  -2   4 54.6241  3.4314   1
   3  -2   5  7.7461  1.5206   1
   3  -2   6  9.1125  3.0888   1
   3  -2   7 11.5834  4.5778   1
   3  -1  -9  7.0302  3.4734   1
   3  -1  -8 54.8463  6.6668   1
   3  -1  -7 10.3017   4.942   1
   3  -1  -6 123.931 13.3481   1
   3  -1  -5 100.113 12.0098   1
   3  -1  -4 40.7041  2.3105   1
   3  -1  -3 44.8513  2.1585   1
   3  -1  -2 333.702 13.5585   1
   3  -1  -1 103.872   4.801   1
   3  -1   0 135.116  8.1149   1
   3  -1   1 228.225  15.469   1
   3  -1   2 110.357   4.635   1
   3  -1   3 19.4421  2.6198   1
   3  -1   4  43.081  2.8954   1
   3  -1   5 91.8613  6.5014   1
   3  -1   6 13.1865  1.9023   1
   3  -1   7  7.4761   3.249   1
   3   0  -9  2.3718   1.728   1
   3   0  -8 28.7256  4.9767   1
   3   0  -7  14.405  3.2135   1
   3   0  -6  2.7354  1.2152   1
   3   0  -5 46.8952  5.2706   1
   3   0  -4 123.762  7.2916   1
   3   0  -3 147.708  9.5274   1
   3   0  -2 41.2012  2.6738   1
   3   0  -1 25.5938  1.4985   1
   3   0   0 117.553  7.0208   1
   3   0   1 83.4192  5.5644   1
   3   0   2 79.7492  3.6373   1
   3   0   3   5.048  1.0896   1
   3   0   4  5.6987  1.4424   1
   3   0   5 18.6576   2.402   1
   3   0   6  2.3116  1.8019   1
   3   0   7 13.8775  5.5768   1
   3   1  -9  9.8659  3.2375   1
   3   1  -8 45.1296  6.2019   1
   3   1  -7  8.8618  1.8129   1
   3   1  -6 96.9711  6.5395   1
   3   1  -5 106.902  5.9572   1
   3   1  -4 39.6452  2.3777   1
   3   1  -3  43.834  2.8323   1
   3   1  -2 339.073 16.9098   1
   3   1  -1 133.539 11.8401   1
   3   1   0 169.478 10.2389   1
   3   1   1 238.074 15.3684   1
   3   1   2 109.971  5.7234   1
   3   1   3 23.3543  1.7265   1
   3   1   4 41.2204  3.4526   1
   3   1   5 78.7173  9.1775   1
   3   1   6 11.4772  4.3201   1
   3   1   7  5.8487  3.1512   1
   3   2  -9  7.5053  3.5881   1
   3   2  -8 63.3412  9.1344   1
   3   2  -7 67.6306  6.9119   1
   3   2  -6 17.9458  4.3405   1
   3   2  -5 58.3869  3.8295   1
   3   2  -4  137.48  9.1717   1
   3   2  -3 31.9379   2.451   1
   3   2  -2 17.2335  1.3941   1
   3   2  -1 143.336  9.0657   1
   3   2   0 111.602 13.5741   1
   3   2   1 30.8888  3.7165   1
   3   2   2   1.283  0.6503   1
   3   2   3 103.351  6.1662   1
   3   2   4 58.0343  4.0098   1
   3   2   5  8.2218   1.539   1
   3   2   6 11.6592  3.7956   1
   3   2   7 13.0315  2.7496   1
   3   3  -9 23.5093  6.7052   1
   3   3  -8   3.531   2.392   1
   3   3  -7  5.6809  2.0229   1
   3   3  -6 60.0125  7.4215   1
   3   3  -5 155.007  12.051   1
   3   3  -4 11.9188  1.4884   1
   3   3  -3 77.6212  5.0808   1
   3   3  -2 190.383 11.8013   1
   3   3  -1 381.501 24.5526   1
   3   3   0 121.147  7.1942   1
   3   3   1 191.063  9.7034   1
   3   3   2 51.5546  4.3713   1
   3   3   3 38.1101  2.7101   1
   3   3   4 101.502  9.4888   1
   3   3   5  6.5712  1.8872   1
   3   3   6  6.4677  1.5168   1
   3   3   7  1.6114  1.2143   1
   3   4  -9   2.131  1.7144   1
   3   4  -8 18.4944  5.7013   1
   3   4  -6 14.3025  3.0563   1
   3   4  -5 36.4674   4.049   1
   3   4  -4 93.2738  6.6201   1
   3   4  -3 80.3517   5.881   1
   3   4  -2   5.294  0.9939   1
   3   4  -1 111.989  7.0242   1
   3   4   0  50.741  3.4325   1
   3   4   1  7.6723  1.2717   1
   3   4   2 21.4406  1.5745   1
   3   4   3  63.833  3.8869   1
   3   4   4 44.6128  3.4172   1
   3   4   5  3.6701  1.3334   1
   3   4   6 12.4238  4.1998   1
   3   4   7  3.6044  1.6843   1
   3   5  -6 20.8773  3.8085   1
   3   5  -5 40.2987  4.4648   1
   3   5  -4 24.2308  2.6282   1
   3   5  -3 78.5161  5.7669   1
   3   5  -2 207.497 17.3219   1
   3   5  -1 26.9749  2.3464   1
   3   5   0 18.5336   1.865   1
   3   5   1 142.911 11.5563   1
   3   5   2 77.7359  5.6773   1
   3   5   3 36.8409  2.6462   1
   3   5   4 12.0598  1.6583   1
   3   5   5 24.0156  2.7514   1
   3   5   6  6.4073  2.4691   1
   3   5   7  5.0224  3.3318   1
   3   6  -5 21.5976  3.2847   1
   3   6  -4 48.3928  5.3876   1
   3   6  -3 32.3662  3.3753   1
   3   6  -2   8.037  1.5205   1
   3   6  -1 48.8857  3.6518   1
   3   6   0  99.515  8.0438   1
   3   6   1 53.9355  5.9048   1
   3   6   2 33.1317  3.0909   1
   3   6   3 59.1297  5.3762   1
   3   6   4  17.684  2.1374   1
   3   6   5  1.4519  1.1356   1
   3   6   6 12.3239  2.7452   1
   3   7  -5 11.8937  2.9032   1
   3   7  -4 11.0727  2.5799   1
   3   7  -3 109.816  9.8704   1
   3   7  -2 83.9224  7.3683   1
   3   7  -1 19.7514  2.6737   1
   3   7   0 40.0021  4.4874   1
   3   7   1 62.3327  5.8022   1
   3   7   2 65.5323   5.895   1
   3   7   3  2.2573  1.2315   1
   3   7   4 26.8574  4.5773   1
   3   7   5 22.1699  4.5012   1
   3   7   6  5.3155  3.4987   1
   3   8  -4 92.9795 10.0223   1
   3   8  -3 43.2304  4.3561   1
   3   8  -2 25.2623  3.5707   1
   3   8  -1 117.092 10.4195   1
   3   8   0 116.447 13.7458   1
   3   8   1   4.497  1.6927   1
   3   8   2  5.4399  2.3425   1
   3   8   3 50.1812  6.0913   1
   3   8   4  7.9415   2.523   1
   3   8   5   2.213  1.5679   1
   3   8   6  2.3596  1.9884   1
   3   9  -3  5.9393  2.8167   1
   3   9  -2  19.409  2.9016   1
   3   9  -1 16.8949  2.9763   1
   3   9   0 24.6694  3.9718   1
   3   9   1 23.8369  4.3192   1
   3   9   2 16.9064   2.588   1
   3   9   3  9.3719  3.5467   1
   3   9   4 14.7235  4.2001   1
   3   9   5  8.5906   4.496   1
   3  10  -1 33.4123  4.6703   1
   3  10   0 45.4967  7.5962   1
   3  10   1 21.6616  4.8705   1
   3  10   2  8.6241  3.2666   1
   3  10   3 11.5384   4.305   1
   3  10   4  4.2959  2.7742   1
   3  11   1 21.6405  5.4999   1
   3  11   2 10.4176  3.8113   1
   3  11   3  2.3645  1.7667   1
   3  12   1  7.8404   3.937   1
   3  12   2 12.0886  4.6018   1
   4 -12  -1  2.8874  1.8403   1
   4 -11  -4  2.0742   1.689   1
   4 -11  -3  6.6093  2.9056   1
   4 -11  -2 26.3164  2.5803   1
   4 -11  -1   2.517  1.5587   1
   4 -11   0   3.974   1.962   1
   4 -10  -5  3.9905  2.1041   1
   4 -10  -4 10.8869  2.1133   1
   4 -10  -3 16.5991  2.7564   1
   4 -10  -2  5.3317  1.2585   1
   4 -10  -1 17.2925  2.0429   1
   4 -10   0 16.5243   2.156   1
   4 -10   1  1.7942  1.3209   1
   4  -9  -6 10.1608  2.9496   1
   4  -9  -5  11.758  3.1204   1
   4  -9  -4  5.1126  2.1536   1
   4  -9  -3 31.9277  2.4867   1
   4  -9  -2 39.8615  2.9194   1
   4  -9  -1 13.4586  1.3885   1
   4  -9   0  4.0392  1.2323   1
   4  -9   1 62.7982 13.8247   1
   4  -9   2 13.9422  2.8002   1
   4  -8  -7 18.9005  4.4555   1
   4  -8  -6  2.0505  1.5062   1
   4  -8  -5 13.2151  2.1934   1
   4  -8  -4 39.1297  2.9591   1
   4  -8  -3 20.7607  2.5769   1
   4  -8  -2 11.4121  1.1656   1
   4  -8  -1 19.3172  1.4024   1
   4  -8   0  5.5983  1.0787   1
   4  -8   1  2.0289  0.9299   1
   4  -8   2  7.4989  1.4794   1
   4  -8   3  5.0583  2.1115   1
   4  -7  -7 12.8139  7.1939   1
   4  -7  -6 28.7856   4.121   1
   4  -7  -5 26.3218  6.5987   1
   4  -7  -4  1.6425  0.9172   1
   4  -7  -3  33.148  2.6716   1
   4  -7  -2 64.7528  2.9199   1
   4  -7  -1 22.6331   1.271   1
   4  -7   0  2.4463  0.7944   1
   4  -7   1 43.5138  3.2351   1
   4  -7   2  3.8693  0.9423   1
   4  -7   3  2.7826  1.6773   1
   4  -6  -8  9.3321  3.7439   1
   4  -6  -7  7.7309  2.6088   1
   4  -6  -6 15.5575  7.6288   1
   4  -6  -5 34.9139  3.0174   1
   4  -6  -4 29.1909  2.1604   1
   4  -6  -3  5.9819  0.9414   1
   4  -6  -2  8.3725  0.9016   1
   4  -6  -1 108.438  4.5251   1
   4  -6   0 41.0086  2.1382   1
   4  -6   1  5.0395   0.851   1
   4  -6   2  1.3127  0.5532   1
   4  -6   3 42.1424  7.7958   1
   4  -6   4  2.1241  1.5865   1
   4  -5  -8  2.1127  1.7659   1
   4  -5  -7  3.9082  2.2158   1
   4  -5  -6 26.2726  8.8192   1
   4  -5  -5 66.8938 24.2527   1
   4  -5  -4 14.8384  2.4217   1
   4  -5  -3 20.5774  1.4571   1
   4  -5  -2 82.7419  4.0036   1
   4  -5  -1 23.7988  1.8696   1
   4  -5   0 41.4533   2.122   1
   4  -5   1 41.4598   2.094   1
   4  -5   2 28.9271  6.5269   1
   4  -5   3   1.656  1.1117   1
   4  -5   4 11.3742  3.3872   1
   4  -5   5  8.8501   3.514   1
   4  -4  -8 16.4631  5.0502   1
   4  -4  -7 36.4851  4.9169   1
   4  -4  -6  6.9178  2.8276   1
   4  -4  -5 22.6391  5.2993   1
   4  -4  -4 87.2814  5.1875   1
   4  -4  -3 94.9259  4.7518   1
   4  -4  -2 35.8407   2.528   1
   4  -4  -1 93.7542  4.7721   1
   4  -4   0 100.588  8.1312   1
   4  -4   1 26.3746   1.777   1
   4  -4   2 48.0341  4.3569   1
   4  -4   3 15.9971  3.0217   1
   4  -4   4  4.2401  2.1056   1
   4  -4   5  3.2932  2.2428   1
   4  -3  -9  5.7477  3.6819   1
   4  -3  -8  6.0093  2.1599   1
   4  -3  -7  6.5954  2.0535   1
   4  -3  -6 77.4779 11.6384   1
   4  -3  -5 30.3431  4.7199   1
   4  -3  -4  3.8239  0.9534   1
   4  -3  -3 114.607  6.4453   1
   4  -3  -2 25.9561  3.8952   1
   4  -3  -1  2.0447  0.5651   1
   4  -3   0  7.8808  2.0742   1
   4  -3   1 39.9386  7.4702   1
   4  -3   2 25.2408  2.4437   1
   4  -3   3  1.5272  1.1855   1
   4  -3   4  4.0019  2.2326   1
   4  -3   5  9.9421  3.0492   1
   4  -2  -9  2.3354  1.9283   1
   4  -2  -8 18.9507  3.8605   1
   4  -2  -7 37.4019 13.1556   1
   4  -2  -6 17.0507  2.2636   1
   4  -2  -5  6.7775  1.1418   1
   4  -2  -4 93.1129  7.1232   1
   4  -2  -3 70.6709  4.6557   1
   4  -2  -2 62.6244  3.7792   1
   4  -2  -1  100.15  5.5742   1
   4  -2   0 159.411 13.0457   1
   4  -2   1 18.9855  2.4291   1
   4  -2   2 96.1148  6.6871   1
   4  -2   3 25.5631   8.038   1
   4  -2   4  9.1795  2.3383   1
   4  -2   5  4.7762  3.0953   1
   4  -1  -9 14.3746  5.0327   1
   4  -1  -8  3.3555  2.3237   1
   4  -1  -7 20.5579  6.0683   1
   4  -1  -6 47.9075  9.4759   1
   4  -1  -5  9.2004  1.3875   1
   4  -1  -4  9.0086  1.7163   1
   4  -1  -3 40.6303  3.3531   1
   4  -1  -2 102.714 10.3628   1
   4  -1  -1  24.932  1.9032   1
   4  -1   0 41.1673  3.9592   1
   4  -1   1 35.8789  3.6416   1
   4  -1   2  53.781  4.7458   1
   4  -1   3  2.3961  1.0514   1
   4  -1   4  9.8946  1.5668   1
   4  -1   5  8.5855  3.5996   1
   4   0  -9   8.213  4.6917   1
   4   0  -8  8.0352  3.7185   1
   4   0  -7 17.4286  7.5202   1
   4   0  -6 55.1416  7.0363   1
   4   0  -5 128.894  9.5953   1
   4   0  -4 279.082 22.9011   1
   4   0  -3 20.0418  2.1422   1
   4   0  -2 21.6385  4.0862   1
   4   0  -1 135.349  8.8006   1
   4   0   0  71.718  6.9357   1
   4   0   1  1.1259  0.8553   1
   4   0   2  4.0865    1.58   1
   4   0   3 71.6793  8.3857   1
   4   0   4 20.3704  2.1883   1
   4   0   5 21.4389 11.1056   1
   4   0   6   4.765  2.8427   1
   4   1  -9 19.0044  5.8464   1
   4   1  -8  3.5579  2.2008   1
   4   1  -7 23.0431 10.3774   1
   4   1  -6 53.0279  7.5301   1
   4   1  -5 14.8479  2.7439   1
   4   1  -4 11.2207  2.0682   1
   4   1  -3 44.9025  3.4144   1
   4   1  -2 101.479  6.4372   1
   4   1  -1 23.9716  4.6513   1
   4   1   0 35.3073  3.2061   1
   4   1   1 40.6786  4.3262   1
   4   1   2 53.1496  4.8883   1
   4   1   3  4.3468  1.3377   1
   4   1   4  5.7343  1.6908   1
   4   1   5 18.4695   4.649   1
   4   1   6  3.5942  2.3396   1
   4   2  -9  3.0195  2.3915   1
   4   2  -8 12.2976  4.0202   1
   4   2  -6 10.3376  2.9507   1
   4   2  -5  1.4413  0.8597   1
   4   2  -4 66.7572  5.1441   1
   4   2  -3 76.7753  6.1054   1
   4   2  -2 66.7838  5.0283   1
   4   2  -1 87.2314  6.1426   1
   4   2   0 158.902 13.6281   1
   4   2   1 24.8215  2.8727   1
   4   2   2 108.435  9.6746   1
   4   2   3 30.9283  2.6725   1
   4   2   4  8.9673  2.0305   1
   4   2   5  5.7905  1.9265   1
   4   2   6 10.1026  3.4738   1
   4   3  -6 60.0934  7.4934   1
   4   3  -5 31.2423  3.8224   1
   4   3  -4  4.7675  1.9046   1
   4   3  -3 94.9409  7.7912   1
   4   3  -2 29.5978  2.5165   1
   4   3  -1  3.3741  1.1246   1
   4   3   0  4.9383   1.355   1
   4   3   1 30.6871  3.7477   1
   4   3   2 21.8722  2.0455   1
   4   3   3  1.8429  1.1134   1
   4   3   4   6.941  1.4877   1
   4   3   5  13.223  4.1703   1
   4   3   6  6.6483  3.3662   1
   4   4  -6  9.6887  2.6798   1
   4   4  -5 26.1744  3.8981   1
   4   4  -4 64.7941  6.0326   1
   4   4  -3 84.5108  7.9718   1
   4   4  -2 30.8236  2.7636   1
   4   4  -1 95.7753  6.8768   1
   4   4   0 81.5205  8.3703   1
   4   4   1 25.5559  3.1305   1
   4   4   2 48.2045  4.3163   1
   4   4   3 25.1478  2.0926   1
   4   4   4   5.068   2.862   1
   4   4   5  5.4782  2.0458   1
   4   4   6  9.1798   3.801   1
   4   5  -6 26.8227  3.5423   1
   4   5  -5 58.5422  8.1499   1
   4   5  -4  11.757  1.8383   1
   4   5  -3 20.9484  2.9113   1
   4   5  -2 65.3459  5.8514   1
   4   5  -1 20.6379  2.3991   1
   4   5   0 34.5232  4.3225   1
   4   5   2   27.83  3.0342   1
   4   5   3   3.719  2.0468   1
   4   5   4 18.5029  2.4246   1
   4   5   5 15.0389  2.7659   1
   4   6  -5 31.2406   4.667   1
   4   6  -4 15.7823  3.2988   1
   4   6  -3  9.7554  2.3498   1
   4   6  -2  8.2071  2.0689   1
   4   6  -1 89.6906  8.2847   1
   4   6   0 37.2063  5.3778   1
   4   6   2  2.5484  1.2148   1
   4   6   3 62.8592  7.6372   1
   4   6   4    4.70  2.4002   1
   4   6   5  1.7728  1.2337   1
   4   7  -4  1.7356  1.3926   1
   4   7  -3 27.0087  3.3445   1
   4   7  -2  53.077   6.382   1
   4   7  -1 17.0121  2.7175   1
   4   7   0  1.7716  1.2609   1
   4   7   2  4.5994  2.1615   1
   4   7   3   2.941  1.6105   1
   4   7   4  5.8175  2.6451   1
   4   7   5  4.8404   3.243   1
   4   8  -3 15.8501  3.2728   1
   4   8  -2 11.7049  3.2837   1
   4   8  -1  7.4371  2.5318   1
   4   8   2 16.0427  3.9652   1
   4   8   3  6.9108  2.2438   1
   4   8   4   3.846  2.7907   1
   4   9  -2 24.4978   3.858   1
   4   9  -1  9.1488  2.4841   1
   4   9   2 25.2331  5.7789   1
   4   9   3  2.2051  1.7274   1
   4  10   2  6.7636  3.1149   1
   4  10   3  6.4041  3.9087   1
   5 -10  -2  3.5983  2.7398   1
   5 -10  -1  4.9666  3.6322   1
   5  -9  -4  3.9792  1.9664   1
   5  -9  -3  3.3869  1.8762   1
   5  -9  -2 13.6777   4.803   1
   5  -9  -1   2.532   1.838   1
   5  -9   0   4.052  2.5654   1
   5  -9   1   2.958  2.2294   1
   5  -8  -4  8.2379  3.1518   1
   5  -8  -3  8.7884  2.4113   1
   5  -8  -2  3.5025  2.4487   1
   5  -8  -1 37.5672  7.7869   1
   5  -8   0 20.5415  5.0109   1
   5  -8   1   4.033  2.9075   1
   5  -7  -4  2.7304  1.3873   1
   5  -7  -3 22.0047  3.4201   1
   5  -7  -2 18.5364  2.7061   1
   5  -7  -1  2.4588   1.665   1
   5  -7   0  7.6672  3.2473   1
   5  -7   1 30.8848  6.2077   1
   5  -7   2  7.8208  3.8693   1
   5  -6  -6   1.092  0.8449   1
   5  -6  -5  6.4391  1.8361   1
   5  -6  -4 65.7386 10.0413   1
   5  -6  -3 13.7977  2.1236   1
   5  -6  -2  8.8935  1.5434   1
   5  -6  -1 10.3904  3.4487   1
   5  -6   0 18.2498  4.2261   1
   5  -6   1  6.0092  2.8743   1
   5  -6   2 18.0213  5.6043   1
   5  -5  -7 11.0708  2.6373   1
   5  -5  -6  9.0623  1.9614   1
   5  -5  -5  8.9361   4.016   1
   5  -5  -4  2.2503  1.5699   1
   5  -5  -3  28.435  6.7677   1
   5  -5  -2  27.886  2.2286   1
   5  -5  -1 10.1512  1.4604   1
   5  -5   0  7.1107  4.7443   1
   5  -5   1 23.4521  5.5801   1
   5  -5   2 10.2385  3.8824   1
   5  -5   3  5.0891  2.9802   1
   5  -4  -7  12.944  3.1146   1
   5  -4  -6 10.4177  2.0971   1
   5  -4  -5  15.909  8.0121   1
   5  -4  -4 28.7718  3.7068   1
   5  -4  -3  21.373  2.6592   1
   5  -4  -2  3.2505  0.8642   1
   5  -4  -1  29.454  3.7818   1
   5  -4   0  26.724  3.7947   1
   5  -4   1  2.6656  1.7619   1
   5  -4   2  9.3113  5.1227   1
   5  -4   3  7.0958  3.4213   1
   5  -4   4   2.731   2.178   1
   5  -3  -8  1.7785  1.3679   1
   5  -3  -7  2.5897  1.4952   1
   5  -3  -6 38.2435 14.4894   1
   5  -3  -5 19.0383  3.5814   1
   5  -3  -4 13.1486  2.3249   1
   5  -3  -3   7.071  1.4179   1
   5  -3  -2 60.1683  8.3013   1
   5  -3  -1 14.0283  3.2411   1
   5  -3   0  30.789  4.1378   1
   5  -3   1 28.9255  4.6383   1
   5  -3   2 31.5063  6.1635   1
   5  -3   3   2.631  1.9187   1
   5  -3   4 25.8334  8.0175   1
   5  -2  -8 16.9991  3.7989   1
   5  -2  -7 15.0661  3.1447   1
   5  -2  -6  2.4444  1.8204   1
   5  -2  -5 54.3037  7.3816   1
   5  -2  -4 38.9948  4.4335   1
   5  -2  -3 10.0269  1.6395   1
   5  -2  -2  4.4019  1.0133   1
   5  -2  -1 43.9459  5.6722   1
   5  -2   0 22.3007  4.5214   1
   5  -2   1  1.7704  1.4257   1
   5  -2   2  6.6841  2.4605   1
   5  -2   3 28.7301  5.8843   1
   5  -2   4  2.9177  2.3149   1
   5  -1  -8   8.948  3.8632   1
   5  -1  -7 16.7803  3.0695   1
   5  -1  -6 15.7484  3.2282   1
   5  -1  -5  33.688  4.7304   1
   5  -1  -4 10.7344  1.7507   1
   5  -1  -3 122.181 12.7557   1
   5  -1  -2 72.3555  5.0453   1
   5  -1  -1  9.4248  3.0958   1
   5  -1   0 25.7193  3.5608   1
   5  -1   1 61.0318  6.5162   1
   5  -1   2  8.9433  3.6601   1
   5  -1   3  5.9682  2.7697   1
   5  -1   4  9.6072   4.167   1
   5   0  -6  1.8255   1.467   1
   5   0  -5  10.667  3.0746   1
   5   0  -4 11.5709  2.1057   1
   5   0  -3  1.1009  0.6886   1
   5   0  -2 10.4523  1.4891   1
   5   0  -1  6.1426  2.6687   1
   5   0   0 40.0892  4.5162   1
   5   0   1  8.1224  3.1802   1
   5   0   2 19.5691  4.3076   1
   5   0   3  7.9506  3.9649   1
   5   0   4  9.4771  4.6307   1
   5   1  -6 18.1569  3.6664   1
   5   1  -5 23.4942  3.0944   1
   5   1  -4  7.4731   1.752   1
   5   1  -3 122.335 12.1479   1
   5   1  -2 75.9021  7.0266   1
   5   1  -1  9.9266  1.2591   1
   5   1   0 30.7941  4.1036   1
   5   1   1 51.8695   7.609   1
   5   1   2  7.7406  2.5862   1
   5   1   3  3.7846  2.5005   1
   5   1   4  8.5439  3.6137   1
   5   2  -6  2.0783   1.506   1
   5   2  -5 48.0003  7.3407   1
   5   2  -4 34.8199   4.313   1
   5   2  -3 13.3213  3.1162   1
   5   2  -2  5.0787    1.40   1
   5   2  -1 43.6087  3.8635   1
   5   2   0 21.2889  3.0013   1
   5   2   1  3.0575  1.9844   1
   5   2   2  3.4958  2.0292   1
   5   2   3 20.1656  4.1966   1
   5   2   4  4.1358  2.5177   1
   5   3  -6 34.0869  4.6554   1
   5   3  -5 20.2745  3.8198   1
   5   3  -4 16.6712  2.8219   1
   5   3  -3  9.1938  1.5943   1
   5   3  -2 60.3684  5.7995   1
   5   3  -1 11.8974  1.7104   1
   5   3   1 24.6049  4.4743   1
   5   3   2 27.9319  4.5182   1
   5   3   3  2.5344  1.9774   1
   5   3   4 34.5231  7.2519   1
   5   4  -5 11.0898  2.4602   1
   5   4  -4 27.0989   4.134   1
   5   4  -3 17.2533  2.6872   1
   5   4  -2  2.8002  1.3128   1
   5   4  -1 30.8764  4.1272   1
   5   4   2  15.722  4.4071   1
   5   4   3   6.146  2.7552   1
   5   4   4   3.526  2.5386   1
   5   5  -5  7.0909  2.1761   1
   5   5  -4   2.816  1.5319   1
   5   5  -3 22.5969  3.8664   1
   5   5  -2 23.9468  3.2651   1
   5   5  -1  7.1028   2.103   1
   5   5   3  3.5183  2.2043   1
   5   5   4  2.5002   1.791   1
   5   6  -4 39.6524  5.1634   1
   5   6  -3 10.1109  2.3298   1
   5   6  -2  4.4716  1.5494   1
   5   6  -1  6.7682  2.5418   1
   5   7  -4  3.4492  2.1828   1
   5   7  -3  8.9237  3.3882   1
   5   7  -2 18.9207  3.2528   1
   5   7  -1   2.298  1.5522   1
   5   8  -3  4.9827  2.5997   1
   5   8  -2  2.7659  1.7375   1
   5   8  -1 18.9263  4.3409   1
   6  -7  -3  4.9215  3.2597   1
   6  -7  -2  7.5403  4.1924   1
   6  -6  -3  1.4829  1.2589   1
   6  -6  -2  2.4979  2.0554   1
   6  -6  -1 11.2939  4.1658   1
   6  -6   0  3.4808  2.3923   1
   6  -5  -3  5.3681  3.0457   1
   6  -5  -2 22.0376  5.6599   1
   6  -5  -1  3.3339  2.4099   1
   6  -5   0  5.9786  3.3247   1
   6  -5   1  2.5128  1.9004   1
   6  -4  -3  2.5132  1.8895   1
   6  -4  -2 12.7628  3.2343   1
   6  -4  -1  9.9547  3.3765   1
   6  -4   0 21.1461  5.8308   1
   6  -4   1  2.2865  1.7502   1
   6  -3  -3 24.7336  4.6789   1
   6  -3  -2 11.8714  3.3172   1
   6  -3  -1  1.4962  1.1909   1
   6  -3   0  2.6446  1.9497   1
   6  -3   1 17.6731  5.0589   1
   6  -3   2  1.5737  1.3396   1
   6  -2  -2  4.3085  2.8466   1
   6  -2  -1  23.731  4.8926   1
   6  -2   0 14.1645  4.1092   1
   6  -2   1   1.578  1.2813   1
   6  -2   2  10.043  4.8789   1
   6  -1  -2  5.9269  3.0898   1
   6  -1  -1  2.1594  1.7905   1
   6  -1   0  4.4139   2.391   1
   6  -1   1  4.2202  2.8651   1
   6  -1   2  4.7833  2.8222   1
   6   0  -1 98.4998 14.4899   1
   6   0   0  6.1036  3.1927   1
   6   0   1  3.6694  2.3152   1
   6   0   2  2.2737  1.8875   1
   6   1  -1   1.282  1.0863   1
   6   1   0  5.7292  3.3273   1
   6   1   1 10.1221  4.5971   1
   6   1   2  4.3414  2.8606   1
   6   2   0 21.8238  5.2393   1
   6   2   1  2.6196  2.1361   1
   6   2   2 15.1893   5.261   1
   6   3   1 13.6755  4.5431   1
   6   3   2  2.3985  1.8848   1
   0   0   0    0.00    0.00   1
;
#END Tags that were not found in dictionaries
loop_
_symmetry_equiv_pos_as_xyz
'x, y, z'
'-x, y+1/2, -z'
loop_
_atom_site_label
_atom_site_type_symbol
_atom_site_fract_x
_atom_site_fract_y
_atom_site_fract_z
_atom_site_U_iso_or_equiv
_atom_site_adp_type
_atom_site_occupancy
_atom_site_calc_flag
C1' C 0.7445(10) 0.2575(5) 0.8517(7) 0.0383(14) Uani 1 d
H1' H 0.6649 0.3234 0.7993 0.046 Uiso 1 calc
C2 C 1.0152(11) 0.2746(7) 0.6703(9) 0.0368(19) Uani 1 d
C2' C 0.9102(12) 0.2868(5) 1.0154(8) 0.0460(17) Uani 1 d
H22' H 0.8399 0.3439 1.0688 0.055 Uiso 1 calc
H21' H 1.067 0.3108 1.0025 0.055 Uiso 1 calc
C4 C 1.1682(10) 0.1170(5) 0.5550(7) 0.0361(15) Uani 1 d
C4' C 0.6159(9) 0.1447(5) 1.0463(7) 0.0407(15) Uani 1 d
H4' H 0.5283 0.1911 1.1074 0.049 Uiso 1 calc
C5 C 1.0271(10) 0.0481(5) 0.6300(7) 0.0406(16) Uani 1 d
H5 H 1.0303 -0.027 0.6176 0.049 Uiso 1 calc
C5' C 0.5274(12) 0.0290(5) 1.0501(8) 0.0480(17) Uani 1 d
H52' H 0.3586 0.0244 0.9915 0.058 Uiso 1 calc
H51' H 0.6203 -0.0188 0.9965 0.058 Uiso 1 calc
C6 C 0.8873(11) 0.0951(5) 0.7204(7) 0.0397(15) Uani 1 d
H6 H 0.7919 0.051 0.7693 0.048 Uiso 1 calc
N1 N 0.8818(7) 0.2053(4) 0.7422(6) 0.0344(12) Uani 1 d
N3 N 1.1449(8) 0.2255(4) 0.5732(6) 0.0367(12) Uani 1 d
H3 H 1.2182 0.2673 0.5188 0.044 Uiso 1 calc
N4 N 1.3152(8) 0.0813(4) 0.4698(6) 0.0467(14) Uani 1 d
H4X H 1.3961 0.1265 0.4259 0.056 Uiso 1 calc
H4Y H 1.3314 0.0125 0.4574 0.056 Uiso 1 calc
O1' O 0.5660(7) 0.1828(4) 0.8775(5) 0.0406(12) Uani 1 d
O2 O 1.0196(8) 0.3728(4) 0.6920(7) 0.0460(13) Uani 1 d
O5' O 0.5531(7) -0.0043(4) 1.2134(6) 0.0560(13) Uani 1 d
H5' H 0.6952 -0.0196 1.2539 0.084 Uiso 1 calc
S3' S 0.9367(3) 0.16217(16) 1.1297(2) 0.0522(5) Uani 1 d
Br Br 1.48412(10) 0.33614(5) 0.35873(7) 0.0478(2) Uani 1 d
loop_
_atom_site_aniso_label
_atom_site_aniso_U_11
_atom_site_aniso_U_22
_atom_site_aniso_U_33
_atom_site_aniso_U_23
_atom_site_aniso_U_13
_atom_site_aniso_U_12
C1' 0.041(3) 0.034(4) 0.041(4) 0.004(3) 0.012(3) 0.003(3)
C2 0.037(4) 0.034(5) 0.036(4) 0.005(4) 0.005(3) 0.001(3)
C2' 0.055(4) 0.048(4) 0.038(4) -0.005(3) 0.015(3) -0.005(3)
C4 0.040(4) 0.039(4) 0.029(3) -0.002(3) 0.006(3) 0.004(3)
C4' 0.041(3) 0.050(4) 0.032(4) 0.001(3) 0.010(3) 0.001(3)
C5 0.043(4) 0.028(4) 0.050(4) -0.001(3) 0.009(3) -0.001(3)
C5' 0.054(4) 0.048(5) 0.046(4) -0.002(4) 0.019(3) 0.003(3)
C6 0.045(4) 0.034(4) 0.039(4) 0.002(3) 0.006(3) -0.006(3)
N1 0.038(3) 0.030(3) 0.036(3) 0.002(2) 0.009(2) 0.002(2)
N3 0.041(3) 0.033(3) 0.038(3) 0.005(2) 0.013(2) -0.002(2)
N4 0.055(3) 0.043(3) 0.045(3) 0.002(3) 0.017(3) 0.004(3)
O1' 0.036(2) 0.047(3) 0.038(3) 0.007(2) 0.0082(17) -0.002(2)
O2 0.055(3) 0.032(3) 0.053(3) -0.002(2) 0.016(2) -0.002(2)
O5' 0.054(3) 0.060(3) 0.059(3) 0.020(3) 0.025(2) 0.009(3)
S3' 0.0454(9) 0.0686(14) 0.0382(10) 0.0059(9) 0.0012(7) -0.0012(9)
Br 0.0528(4) 0.0430(4) 0.0512(4) -0.0043(4) 0.0195(3) -0.0082(4)
loop_
_atom_type_symbol
_atom_type_description
_atom_type_scat_dispersion_real
_atom_type_scat_dispersion_imag
_atom_type_scat_source
C C 0.0033 0.0016 'International Tables Vol C Tables 4.2.6.8 and 6.1.1.4'
H H 0 0 'International Tables Vol C Tables 4.2.6.8 and 6.1.1.4'
N N 0.0061 0.0033 'International Tables Vol C Tables 4.2.6.8 and 6.1.1.4'
O O 0.0106 0.006 'International Tables Vol C Tables 4.2.6.8 and 6.1.1.4'
S S 0.1246 0.1234 'International Tables Vol C Tables 4.2.6.8 and 6.1.1.4'
Br Br -0.2901 2.4595 'International Tables Vol C Tables 4.2.6.8 and 6.1.1.4'
loop_
_exptl_crystal_face_index_h
_exptl_crystal_face_index_k
_exptl_crystal_face_index_l
_exptl_crystal_face_perp_dist
0 0 1 0.018
0 0 -1 0.007
1 0 0 0.113
-1 0 0 0.075
0 1 0 0.037
0 -1 0 0.012
loop_
_geom_angle_atom_site_label_1
_geom_angle_atom_site_label_2
_geom_angle_atom_site_label_3
_geom_angle
O1' C1' N1 108.4(5)
O1' C1' C2' 109.0(5)
N1 C1' C2' 111.2(5)
O1' C1' H1' 109.4
N1 C1' H1' 109.4
C2' C1' H1' 109.4
O2 C2 N3 122.1(8)
O2 C2 N1 122.8(8)
N3 C2 N1 115.1(7)
C1' C2' S3' 103.8(4)
C1' C2' H22' 111
S3' C2' H22' 111
C1' C2' H21' 111
S3' C2' H21' 111
H22' C2' H21' 109
N4 C4 N3 119.2(6)
N4 C4 C5 123.5(6)
N3 C4 C5 117.2(5)
O1' C4' C5' 109.5(5)
O1' C4' S3' 106.5(4)
C5' C4' S3' 114.5(5)
O1' C4' H4' 108.7
C5' C4' H4' 108.7
S3' C4' H4' 108.7
C6 C5 C4 117.9(6)
C6 C5 H5 121.1
C4 C5 H5 121.1
O5' C5' C4' 109.7(5)
O5' C5' H52' 109.7
C4' C5' H52' 109.7
O5' C5' H51' 109.7
C4' C5' H51' 109.7
H52' C5' H51' 108.2
C5 C6 N1 122.2(6)
C5 C6 H6 118.9
N1 C6 H6 118.9
C6 N1 C2 121.5(6)
C6 N1 C1' 122.8(5)
C2 N1 C1' 115.7(5)
C4 N3 C2 125.8(6)
C4 N3 H3 117.1
C2 N3 H3 117.1
C4 N4 H4X 120
C4 N4 H4Y 120
H4X N4 H4Y 120
C1' O1' C4' 112.1(4)
C5' O5' H5' 109.5
C2' S3' C4' 86.9(3)
loop_
_geom_bond_atom_site_label_1
_geom_bond_atom_site_label_2
_geom_bond_distance
C1' O1' 1.424(7)
C1' N1 1.489(7)
C1' C2' 1.515(8)
C1' H1' 0.98
C2 O2 1.220(7)
C2 N3 1.367(8)
C2 N1 1.373(9)
C2' S3' 1.796(6)
C2' H22' 0.97
C2' H21' 0.97
C4 N4 1.302(8)
C4 N3 1.351(8)
C4 C5 1.415(8)
C4' O1' 1.458(7)
C4' C5' 1.512(9)
C4' S3' 1.804(5)
C4' H4' 0.98
C5 C6 1.356(8)
C5 H5 0.93
C5' O5' 1.408(8)
C5' H52' 0.97
C5' H51' 0.97
C6 N1 1.368(8)
C6 H6 0.93
N3 H3 0.86
N4 H4X 0.86
N4 H4Y 0.86
O5' H5' 0.82
loop_
_geom_torsion_atom_site_label_1
_geom_torsion_atom_site_label_2
_geom_torsion_atom_site_label_3
_geom_torsion_atom_site_label_4
_geom_torsion
O1' C1' C2' S3' 36.5(5)
N1 C1' C2' S3' -83.0(5)
N4 C4 C5 C6 177.7(6)
N3 C4 C5 C6 -2.8(8)
O1' C4' C5' O5' -174.2(5)
S3' C4' C5' O5' 66.4(6)
C4 C5 C6 N1 -0.8(8)
C5 C6 N1 C2 1.3(9)
C5 C6 N1 C1' -175.0(5)
O2 C2 N1 C6 -177.6(7)
N3 C2 N1 C6 2.0(8)
O2 C2 N1 C1' -1.0(10)
N3 C2 N1 C1' 178.5(5)
O1' C1' N1 C6 -20.1(7)
C2' C1' N1 C6 99.7(6)
O1' C1' N1 C2 163.4(4)
C2' C1' N1 C2 -76.8(6)
N4 C4 N3 C2 -173.8(5)
C5 C4 N3 C2 6.7(8)
O2 C2 N3 C4 173.4(7)
N1 C2 N3 C4 -6.2(9)
N1 C1' O1' C4' 112.6(5)
C2' C1' O1' C4' -8.5(6)
C5' C4' O1' C1' -147.6(5)
S3' C4' O1' C1' -23.3(6)
C1' C2' S3' C4' -42.1(4)
O1' C4' S3' C2' 38.2(4)
C5' C4' S3' C2' 159.4(5)
