#------------------------------------------------------------------------------
#$Date: 2016-03-26 22:57:29 +0200 (Sat, 26 Mar 2016) $
#$Revision: 180524 $
#$URL: svn://www.crystallography.net/cod/cif/7/21/93/7219319.cif $
#------------------------------------------------------------------------------
#
# This file is available in the Crystallography Open Database (COD),
# http://www.crystallography.net/
#
# All data on this site have been placed in the public domain by the
# contributors.
#
data_7219319
loop_
_publ_author_name
'Tarasevych, Arkadii V.'
'Sorochinsky, Alexander E.'
'Kukhar, Valery P.'
'Toupet, Lo\"ic'
'Crassous, Jeanne'
'Guillemin, Jean-Claude'
_publ_section_title
;
 Attrition-induced spontaneous chiral amplification of the \g polymorphic
 modification of glycine
;
_journal_issue                   7
_journal_name_full               CrystEngComm
_journal_page_first              1513
_journal_paper_doi               10.1039/C4CE02434F
_journal_volume                  17
_journal_year                    2015
_chemical_formula_sum            'C2 H5 N O2'
_chemical_formula_weight         75.07
_space_group_crystal_system      trigonal
_space_group_IT_number           144
_space_group_name_Hall           'P 31'
_space_group_name_H-M_alt        'P 31'
_symmetry_space_group_name_Hall  'P 31'
_symmetry_space_group_name_H-M   'P 31'
_atom_sites_solution_hydrogens   geom
_audit_block_doi                 10.5517/cc13tkfx
_audit_creation_method           SHELXL-2014/6
_audit_update_record
;
2014-12-03 deposited with the CCDC.
2015-01-06 downloaded from the CCDC.
;
_cell_angle_alpha                90
_cell_angle_beta                 90
_cell_angle_gamma                120
_cell_formula_units_Z            3
_cell_length_a                   7.0055(3)
_cell_length_b                   7.0055(3)
_cell_length_c                   5.4774(2)
_cell_measurement_reflns_used    2395
_cell_measurement_temperature    200(2)
_cell_measurement_theta_max      69.0930
_cell_measurement_theta_min      7.2620
_cell_volume                     232.800(16)
_computing_cell_refinement
;
CrysAlisPro, Agilent Technologies,
Version 1.171.37.34 (release 22-05-2014 CrysAlis171 .NET)
(compiled May 22 2014,16:03:01)
;
_computing_data_collection
;
CrysAlisPro, Agilent Technologies,
Version 1.171.37.34 (release 22-05-2014 CrysAlis171 .NET)
(compiled May 22 2014,16:03:01)
;
_computing_data_reduction
;
CrysAlisPro, Agilent Technologies,
Version 1.171.37.34 (release 22-05-2014 CrysAlis171 .NET)
(compiled May 22 2014,16:03:01)
;
_computing_molecular_graphics    'MERCURY 3.3(CCDC, 2014)'
_computing_publication_material  'WINGX (L.J. Farrugia, 2012)'
_computing_structure_refinement  'SHELXL-2014/6 (Sheldrick, 2014)'
_computing_structure_solution    'SIR-97_(Altomare & al., 1999)'
_diffrn_ambient_temperature      200(2)
_diffrn_detector                 'CCD plate'
_diffrn_detector_area_resol_mean 8.0662
_diffrn_detector_type            EosS2
_diffrn_measured_fraction_theta_full 0.562
_diffrn_measured_fraction_theta_max 1.000
_diffrn_measurement_device       'four-circle diffractometer'
_diffrn_measurement_device_type  'SuperNova, Single source at offset, EosS2'
_diffrn_radiation_monochromator  mirror
_diffrn_radiation_probe          x-ray
_diffrn_radiation_type           'Cu K\a'
_diffrn_radiation_wavelength     1.54184
_diffrn_reflns_av_R_equivalents  0.0353
_diffrn_reflns_av_unetI/netI     0.0188
_diffrn_reflns_Laue_measured_fraction_full 0.562
_diffrn_reflns_Laue_measured_fraction_max 1.000
_diffrn_reflns_limit_h_max       6
_diffrn_reflns_limit_h_min       -6
_diffrn_reflns_limit_k_max       6
_diffrn_reflns_limit_k_min       -6
_diffrn_reflns_limit_l_max       5
_diffrn_reflns_limit_l_min       -5
_diffrn_reflns_number            1674
_diffrn_reflns_point_group_measured_fraction_full 0.562
_diffrn_reflns_point_group_measured_fraction_max 1.000
_diffrn_reflns_theta_full        67.684
_diffrn_reflns_theta_max         49.717
_diffrn_reflns_theta_min         7.300
_diffrn_source                   'sealed X-ray tube'
_diffrn_source_type              'SuperNova (Cu) X-ray Source'
_exptl_absorpt_coefficient_mu    1.242
_exptl_absorpt_correction_T_max  1.00000
_exptl_absorpt_correction_T_min  0.46934
_exptl_absorpt_correction_type   multi-scan
_exptl_absorpt_process_details
;
CrysAlisPro, Agilent Technologies,
Version 1.171.37.34 (release 22-05-2014 CrysAlis171 .NET)
(compiled May 22 2014,16:03:01)
Empirical absorption correction using spherical harmonics,
 implemented in SCALE3 ABSPACK scaling algorithm.
;
_exptl_crystal_colour            colourless
_exptl_crystal_density_diffrn    1.606
_exptl_crystal_description       block
_exptl_crystal_F_000             120
_exptl_crystal_size_max          0.251
_exptl_crystal_size_mid          0.220
_exptl_crystal_size_min          0.056
_refine_diff_density_max         0.115
_refine_diff_density_min         -0.088
_refine_diff_density_rms         0.032
_refine_ls_abs_structure_details
;
 Flack x determined using 155 quotients [(I+)-(I-)]/[(I+)+(I-)]
 (Parsons, Flack and Wagner, Acta Cryst. B69 (2013) 249-259).
;
_refine_ls_abs_structure_Flack   -0.2(3)
_refine_ls_extinction_coef       0.172(19)
_refine_ls_extinction_expression Fc^*^=kFc[1+0.001xFc^2^\l^3^/sin(2\q)]^-1/4^
_refine_ls_extinction_method     SHELXL
_refine_ls_goodness_of_fit_ref   1.146
_refine_ls_hydrogen_treatment    constr
_refine_ls_matrix_type           full
_refine_ls_number_parameters     47
_refine_ls_number_reflns         316
_refine_ls_number_restraints     1
_refine_ls_restrained_S_all      1.144
_refine_ls_R_factor_all          0.0212
_refine_ls_R_factor_gt           0.0210
_refine_ls_shift/su_max          0.000
_refine_ls_shift/su_mean         0.000
_refine_ls_structure_factor_coef Fsqd
_refine_ls_weighting_details
'w=1/[\s^2^(Fo^2^)+(0.0421P)^2^+0.0017P] where P=(Fo^2^+2Fc^2^)/3'
_refine_ls_weighting_scheme      calc
_refine_ls_wR_factor_gt          0.0547
_refine_ls_wR_factor_ref         0.0550
_reflns_Friedel_coverage         1.000
_reflns_Friedel_fraction_full    0.562
_reflns_Friedel_fraction_max     1.000
_reflns_number_gt                314
_reflns_number_total             316
_reflns_threshold_expression     'I > 2\s(I)'
_cod_data_source_file            c4ce02434f2.cif
_cod_data_source_block           shelx
_cod_depositor_comments
'Adding full bibliography for 7219316--7219319.cif.'
_cod_original_cell_volume        232.80(2)
_cod_database_code               7219319
#BEGIN Tags that were not found in dictionaries:
_shelx_space_group_comment
;
The symmetry employed for this shelxl refinement is uniquely defined
by the following loop, which should always be used as a source of
symmetry information in preference to the above space-group names.
They are only intended as comments.
;
_shelxl_version_number           2014/6
_shelx_res_file
;
TITL test structure: gly_f_cu_200k
CELL  1.54184   7.0055   7.0055   5.4774   90.000   90.000  120.000
ZERR     3.00   0.0003   0.0003   0.0002    0.000    0.000    0.000
LATT  -1
SYMM  - Y,   X - Y, 1/3 + Z
SYMM  - X + Y, - X, 2/3 + Z
SFAC  C    H    N    O
UNIT  6    15   3    6
MERG   2
OMIT    -4.00 100.00
FMAP   2
PLAN   45
ACTA
BOND   $H
CONF
LIST   4
WPDB  -2
L.S.   18
TEMP   -73.00
WGHT    0.042100    0.001700
EXTI    0.172461
FVAR      30.10710
O1    4    0.321059   -0.112502    0.688059    11.00000    0.02647    0.01932 =
         0.01272   -0.00004   -0.00171    0.01412
O2    4    0.335029    0.211031    0.720599    11.00000    0.04060    0.02552 =
         0.01642   -0.00534   -0.00488    0.02244
N1    3    0.304608   -0.116609    0.199724    11.00000    0.01873    0.01743 =
         0.01067    0.00176    0.00090    0.00950
AFIX  33
H1A   2    0.321327   -0.092557    0.035847    11.00000   -1.50000
H1B   2    0.396505   -0.164613    0.252653    11.00000   -1.50000
H1C   2    0.162624   -0.220452    0.232949    11.00000   -1.50000
AFIX   0
C1    1    0.333535    0.059909    0.600536    11.00000    0.01373    0.01722 =
         0.01607   -0.00104   -0.00308    0.00702
C2    1    0.358573    0.090076    0.325431    11.00000    0.02404    0.01497 =
         0.01779   -0.00086   -0.00021    0.00920
AFIX  23
H2A   2    0.260197    0.143300    0.265112    11.00000   -1.20000
H2B   2    0.512189    0.203463    0.286341    11.00000   -1.20000
AFIX   0
HKLF    4

REM  test structure: gly_f_cu_200k
REM R1 =  0.0210 for     314 Fo > 4sig(Fo)  and  0.0212 for all     316 data
REM     47 parameters refined using      1 restraints

END

WGHT      0.0422      0.0000

REM Highest difference peak  0.115,  deepest hole -0.088,  1-sigma level  0.032
Q1    1   0.3873  0.2170  0.2105  11.00000  0.05    0.12
Q2    1   0.5159  0.3676  0.3335  11.00000  0.05    0.11
Q3    1   0.0448 -0.0456  0.6883  11.00000  0.05    0.10
Q4    1   0.0479 -0.0637  0.2332  11.00000  0.05    0.09
Q5    1   0.4692  0.3337  0.8616  11.00000  0.05    0.06
Q6    1   0.6142  0.0398  0.3690  11.00000  0.05    0.06
Q7    1   0.0980  0.1252  0.3362  11.00000  0.05    0.06
Q8    1   0.5159 -0.1902  0.2602  11.00000  0.05    0.06
Q9    1   0.3004 -0.3443  0.1419  11.00000  0.05    0.04
Q10   1   0.3752  0.3412  0.5533  11.00000  0.05    0.04
Q11   1   0.1339 -0.3804  0.1360  11.00000  0.05    0.04
Q12   1   0.2739  0.2657  0.9661  11.00000  0.05    0.03
Q13   1   0.2033 -0.1799  0.0284  11.00000  0.05    0.02
Q14   1   0.0628 -0.3796  0.4015  11.00000  0.05    0.02
Q15   1   0.2848 -0.2343  0.3324  11.00000  0.05    0.01
Q16   1   0.2500  0.0761  0.8524  11.00000  0.05    0.00
;
_shelx_res_checksum              96873
_shelx_hkl_file
;
   0   0  -6 63704.1 3292.87  40
   0   0  -6 59876.7 3389.08  45
   0   0  -5 348.463 314.845  40
   0   0  -5 30.9701 281.357  41
   0   0  -5-99.9534 302.884  45
   0   0  -4 120.222 169.878   7
   0   0  -3 363867. 7047.44   4
   0   0  -3 386765. 7827.14   7
   0   0  -2-28.3356 50.1113   4
   0   0  -1 29.7644 20.6221   3
   0   0   1 0.60889 17.7006   3
   0   0   2 140.293 110.299  12
   0   0   3 374816. 7881.41  12
   0   0   4 82.2892 190.119  12
   0   0   5 113.765 223.963  31
   0   0   5-154.938 173.627  27
   0   0   5 3.73148 118.611  49
   0   0   6 59966.3 1982.35  49
   1  -1  -6 15543.8 1586.74  40
  -1   0  -6 14049.2 1632.73  45
  -1   0  -6 15056.6 1638.58  41
   0   1  -6 12064.1 1252.80  40
  -1   0  -6 15192.0 1553.52  40
   0   1  -5 35887.4 2558.50  42
   0   1  -5 31843.9 2685.23  41
  -1   0  -5 47816.2 3876.61  45
   1  -1  -5 35233.0 2760.29  41
   1  -1  -5 28836.5 2589.69  40
  -1   0  -5 36833.3 2996.29  40
  -1   0  -5 43236.2 3422.42  41
   0   1  -5 30468.6 2812.71  45
   0   1  -5 32820.3 2491.31  40
   1  -1  -4 51275.2 1892.09   9
   0   1  -4 58390.8 2559.15   7
  -1   0  -4 58381.3 2447.09   7
  -1   0  -4 52991.3 1956.01   4
   0   1  -3 7155.29 492.131   4
  -1   0  -3 6901.29 535.434   4
   1  -1  -3 6975.09 519.201   9
  -1   0  -3 7374.00 680.510   7
   0   1  -3 6089.03 567.870   8
   1  -1  -3 7550.20 701.289   7
   1  -1  -2 23997.1 935.931  66
   0   1  -2 26255.1 616.358   3
   0   1  -2 24872.3 1063.22   8
  -1   0  -2 22910.3 909.489  19
   0   1  -2 25617.8 814.747   4
  -1   0  -2 24714.1 866.554   4
   1  -1  -2 25094.7 858.593   9
   0   1  -1 250506. 4299.84  64
  -1   0  -1 258961. 4486.45   3
  -1   0  -1 263806. 4823.98  63
   0   1  -1 253696. 4929.07   8
   1  -1   0 22321.6 565.088  16
   0   1   0 22423.8 571.006  16
  -1   0   0 21581.0 539.088   3
  -1   0   1 142602. 3306.24   2
   1  -1   1 145210. 3444.84  67
   1  -1   2 831221. 15533.9  12
   0   1   2 883943. 14980.4   3
  -1   0   2 871603. 15267.8  11
  -1   0   2 863532. 15942.6   2
   0   1   2 889353. 15060.8  13
   1  -1   3 18930.9 1149.29  12
   0   1   3 16682.3 1084.05  12
  -1   0   3 16346.0 1194.42  12
  -1   0   4 23412.6 1608.99  12
   0   1   4 20229.5 1627.57  67
   1  -1   4 21264.5 1866.16  67
   1  -1   5 3424.24 494.681  49
   0   1   5 3942.54 575.979  26
  -1   0   5 4196.66 891.257  31
   0   1   5 4292.93 703.856  27
   1  -1   5 3422.38 743.712  31
  -1   0   5 3773.84 467.816  49
  -1   0   5 3761.23 688.260  27
   0   1   6 8299.35 655.522  49
   1  -1   6 7996.51 667.574  49
  -1   0   6 7526.06 965.695  31
  -1   1  -6 8390.88 1195.81  41
   0  -1  -6 8143.36 1170.95  40
   0  -1  -6 8154.68 1134.34  41
   1   0  -6 6998.64 1022.04  40
  -1   1  -6 8066.95 1254.55  45
  -1   1  -6 7631.50 984.928  42
  -1   1  -6 7011.74 953.694  40
   0  -1  -5 4918.91 1120.71  40
  -1   1  -5 4231.58 922.338  40
   1   0  -5 4243.01 927.482  40
   1   0  -5 3256.33 834.222  41
   1   0  -5 3639.38 963.681  45
   0  -1  -5 5087.66 1189.03  45
  -1   1  -5 5418.25 1290.47  45
   0  -1  -5 5285.47 1171.88  41
  -1   1  -5 4814.51 1115.35  41
  -1   1  -4 24870.0 1608.45   7
   0  -1  -4 22429.6 1189.18   9
   0  -1  -4 23630.1 1480.18   7
   1   0  -4 25390.0 1606.14   7
  -1   1  -4 23008.4 1186.07   4
  -1   1  -3 16240.2 825.929   4
   1   0  -3 14652.7 916.226  66
   0  -1  -3 17531.1 1050.28   7
   1   0  -3 19077.0 1151.74   7
  -1   1  -2 866952. 15078.8   8
  -1   1  -2 853429. 15460.3   5
   1   0  -2 820288. 15320.7   7
  -1   1  -2 847310. 14742.8   3
   0  -1  -2 864252. 14970.5   4
   1   0  -1 162618. 3272.00   8
  -1   1  -1 160777. 2884.77  18
   0  -1  -1 163981. 3199.64  19
   0  -1   0 25441.2 601.157  16
  -1   1   0 25538.6 599.509  16
  -1   1   1 254272. 4790.17  17
  -1   1   1 246857. 4557.61  13
   1   0   1 250177. 4502.86   3
   0  -1   1 256676. 4867.12  11
   1   0   2 24570.2 1252.47  67
   1   0   2 25730.4 892.058  14
  -1   1   2 23770.8 594.242   3
   0  -1   2 24091.5 994.890  11
  -1   1   3 6407.33 452.960  13
  -1   1   3 6590.85 689.606  12
   0  -1   3 6678.99 697.117  12
   1   0   3 7501.44 865.761  67
   1   0   3 6813.00 509.773  14
   0  -1   4 54553.2 2430.26  12
   1   0   4 51461.6 2742.81  67
  -1   1   4 50999.1 2363.91  12
   1   0   5 29551.3 1635.67  26
   1   0   5 29543.9 1863.84  27
   0  -1   5 29712.4 1478.23  49
  -1   1   5 35987.3 2540.88  31
   0  -1   5 30897.3 2372.22  31
  -1   1   5 34300.6 2119.18  27
  -1   1   6 13592.0 1152.62  27
   1   0   6 14482.7 912.471  49
   0  -1   6 13702.7 906.229  50
   0  -1   6 13143.1 1176.16  25
   0  -1   6 13637.7 831.425  49
  -2   1  -6 15933.6 1356.63  40
   1  -2  -6 18657.6 1699.50  40
   1   1  -6 15195.6 1360.82  40
  -2   1  -6 19883.9 1782.26  41
  -2   1  -6 21138.4 2005.28  45
   1  -2  -5 23033.7 1619.19  21
   1   1  -5 21237.7 1997.95  40
   1  -2  -5 20627.4 2169.38  40
   1   1  -4 68218.5 2738.92  66
   1   1  -4 60985.4 3507.32  41
   1  -2  -4 74685.3 2450.81   9
  -2   1  -4 78224.3 2995.19   7
  -2   1  -4 77052.8 2469.17   4
   1   1  -4 75743.6 2923.88   7
   1   1  -4 68766.6 3985.23  45
   1   1  -4 66123.7 3507.41  40
  -2   1  -3 187715. 4296.97   4
   1  -2  -3 196488. 4348.07   9
   1   1  -3 196542. 4811.97   7
   1   1  -3 201216. 4912.19   8
   1  -2  -2 273047. 5187.50  65
   1   1  -2 292226. 5944.84   8
   1   1  -2 277107. 5611.18   7
  -2   1  -2 275332. 6023.72  63
   1  -2  -2 264202. 5312.18   9
  -2   1  -2 289299. 5773.00   5
  -2   1  -1 44798.8 1226.92   3
  -2   1  -1 43778.4 1153.11  18
   1  -2  -1 45339.6 1177.51  10
   1   1  -1 44412.2 924.524  16
   1   1  -1 42355.2 953.259   3
   1  -2  -1 41477.5 1099.93  65
   1  -2  -1 43257.4 1181.73  16
   1  -2  -1 44219.7 1177.36   9
   1   1  -1 45124.6 1205.87  15
   1   1  -1 44699.1 1480.47   8
   1  -2   0 786097. 12711.4  10
   1   1   0 796176. 12556.7   3
  -2   1   0 790119. 12450.1  16
   1   1   0 777739. 12866.6   8
  -2   1   1 143394. 3422.90  17
   1   1   1 145408. 2998.84  15
   1  -2   1 147937. 3240.93  11
   1  -2   1 147418. 2898.80  10
   1  -2   1 126106. 3352.59  67
  -2   1   1 152916. 2693.03  64
   1   1   1 147133. 3064.96  14
   1   1   1 146216. 2906.88   3
  -2   1   1 127812. 3266.78   2
   1   1   2 8408.66 640.252  67
   1  -2   2 8756.16 593.213  12
  -2   1   2 9086.97 759.557   2
  -2   1   3 31942.7 1257.81  13
   1  -2   3 35208.5 1613.86  12
   1  -2   4 63396.3 3437.06  67
   1   1   4 66845.6 2300.59  14
  -2   1   4 66953.1 2931.58  12
  -2   1   4 66605.8 2841.20  27
   1  -2   4 64655.5 2303.78  49
  -2   1   4 60205.3 2544.24  30
   1   1   4 69520.3 2618.55  26
   1  -2   4 62015.2 3293.03  31
  -2   1   5 13446.1 1622.45  31
   1  -2   5 10666.9 889.459  49
   1   1   5 11406.0 1032.93  26
  -2   1   5 12051.2 1221.48  27
   1  -2   6 2741.62 497.463  25
   1   1   6 2409.92 384.422  26
  -2   1   6 2202.29 516.477  31
   1  -2   6 1828.11 340.708  50
  -2   1   6 3041.82 518.571  27
   1   1   6 2631.61 375.697  49
  -3   1  -6 100276. 4134.68  45
   2  -3  -6 81649.0 3298.36  40
   1   2  -6 86005.1 3577.35  36
  -3   1  -6 96345.8 3704.46  41
   2  -3  -5 13970.0 1264.63  21
   2  -3  -5 15175.0 1740.23  40
   1   2  -5 12747.6 1361.56  42
   2  -3  -4 48741.2 1926.76   9
  -3   1  -4 45367.8 1858.48   4
   1   2  -4 40053.7 2610.21  42
   1   2  -4 41111.2 1669.03  55
   2  -3  -4 49946.1 3310.22  40
   2  -3  -4 48890.4 2551.77  21
   1   2  -4 39489.5 2195.43  66
  -3   1  -4 47889.0 2239.45   7
   2  -3  -3 14003.2 891.532   9
  -3   1  -3 13847.2 880.391   4
   1   2  -3 13666.6 1153.44   8
   1   2  -2 25946.6 1466.06   8
  -3   1  -2 28106.2 1267.21   5
  -3   1  -2 28824.0 1498.18  63
   2  -3  -2 29678.5 1135.44  65
   2  -3  -2 29664.6 1172.15   9
   2  -3  -1 183637. 3746.27  10
  -3   1  -1 171991. 3758.96  18
   1   2  -1 173615. 4324.53   8
   2  -3  -1 185118. 3744.57  65
   2  -3   0 507814. 9317.62  10
  -3   1   0 530179. 9939.73  17
   1   2   0 508530. 9665.51   8
   1   2   1 51490.6 1565.19  14
   2  -3   1 53056.8 1905.05  67
  -3   1   1 47690.3 1949.51  17
   2  -3   1 51313.2 1515.73  10
  -3   1   1 49420.1 1796.58   1
   2  -3   2 6275.91 464.489  10
   1   2   2 8678.62 649.624  14
  -3   1   2 7569.62 830.555   2
   1   2   2 6390.25 519.067  15
   2  -3   2 7835.44 843.421  67
  -3   1   3 36863.1 1576.09  13
  -3   1   3 38427.7 2181.44   2
   2  -3   3 42100.5 2390.00  67
   1   2   3 37242.6 1641.97  14
  -3   1   4 51760.3 2485.27  27
   2  -3   4 51224.3 3018.03  67
   2  -3   4 50504.6 2824.95  25
   2  -3   4 49530.7 2065.95  49
   1   2   4 53991.8 2130.67  38
  -3   1   4 56462.4 2917.88  12
   1   2   4 56256.1 2457.92  26
   1   2   4 55163.4 2199.80  14
   2  -3   4 57997.1 2487.85  50
   1   2   5 34219.6 1828.47  26
   2  -3   5 33397.7 1816.59  50
   2  -3   5 31929.2 2105.10  25
  -3   1   5 33363.8 2503.23  31
  -3   1   5 28742.2 1828.73  27
   2  -3   6 73396.1 2468.48  25
   2  -3   6 73301.0 2299.51  50
   1   2   6 72695.5 2268.94  26
  -3   1   6 74562.0 2975.35  31
  -2   0  -6 2746.38 683.372  41
  -2   0  -6 2747.54 689.773  45
   0   2  -6 1862.05 433.153  42
  -2   0  -6 2561.66 616.320  40
   2  -2  -6 2056.30 570.407  40
  -2   0  -5 8368.39 1479.10  40
   2  -2  -5 5638.78 692.355  62
   2  -2  -5 4725.85 708.186  21
   2  -2  -5 5112.10 1051.08  40
   0   2  -5 6178.14 1030.54  42
   0   2  -5 5600.36 1165.57  45
   2  -2  -4 221033. 7471.34  40
   0   2  -4 188962. 6850.63  41
   0   2  -4 190176. 7368.10  45
   0   2  -4 216687. 6946.37  42
  -2   0  -4 234636. 5652.15   7
   2  -2  -4 194684. 5654.96  21
   0   2  -4 207819. 5694.04   7
  -2   0  -4 216566. 5001.74   4
   2  -2  -4 204219. 4853.05   9
   2  -2  -3 72474.6 2148.73   9
   0   2  -3 73339.9 2619.17   8
  -2   0  -3 71299.2 2147.34   4
  -2   0  -2 92310.7 2271.08   4
  -2   0  -2 90841.0 2415.14  19
  -2   0  -2 92573.9 2898.96  63
   0   2  -2 89663.3 2812.71   8
   2  -2  -2 99240.5 2327.20   9
  -2   0  -1 90582.2 2043.91   5
   2  -2  -1 89066.4 1982.79  10
   2  -2  -1 97753.7 2055.55  16
   0   2  -1 88930.3 2180.71   5
  -2   0  -1 96105.0 2088.07   3
  -2   0  -1 97817.1 2208.23  19
   0   2  -1 98569.4 2009.88  16
  -2   0   0 300321. 5627.89  17
  -2   0   0 283439. 5253.87  18
   0   2   0 283510. 5632.86   6
   2  -2   0 268212. 5168.35  10
  -2   0   0 298248. 5093.78   3
   0   2   0 302208. 5119.66  14
   2  -2   0 274585. 5174.82  65
   0   2   1 91608.9 2154.20   6
   2  -2   1 94807.6 2690.62  67
   0   2   1 93784.4 2101.25  13
   2  -2   1 86720.8 2048.76  10
  -2   0   2 485988. 9190.01  11
  -2   0   2 468070. 9880.47   2
   2  -2   3 87838.3 3565.41  67
  -2   0   3 88650.6 3283.84   2
   0   2   3 80225.8 2234.40  13
   2  -2   4 12499.1 1448.67  67
   2  -2   4 13387.6 944.494  49
   2  -2   4 12071.8 1290.65  25
   0   2   4 14006.1 1019.21  14
  -2   0   4 14602.7 1265.27  27
   0   2   4 13424.9 1151.13  30
  -2   0   4 16494.8 1468.12  12
   2  -2   5 12690.1 969.507  49
  -2   0   5 13994.0 1623.28  31
   2  -2   5 12572.7 1279.73  25
   0   2   5 15069.5 1191.27  26
  -2   0   5 12182.5 1215.91  27
   0   2   6 13156.6 876.049  26
  -2   0   6 13473.8 1269.03  31
   2  -2   6 14418.9 979.307  50
   0   2   6 13180.5 797.071  49
  -1  -1  -6 2172.14 605.813  41
  -1  -1  -6 2489.29 639.204  40
   2  -1  -6 2400.07 603.708  40
  -1   2  -6 2761.32 563.151  42
  -1   2  -5 10809.1 1709.10  45
  -1   2  -5 10002.4 1479.91  41
   2  -1  -5 9650.61 1410.10  40
   2  -1  -5 10304.5 945.102  62
   2  -1  -4 62768.3 2481.82  62
  -1   2  -4 73537.0 4001.61  41
  -1  -1  -4 66127.4 2996.75  35
  -1   2  -4 81393.8 4631.19  45
   2  -1  -4 59914.0 3458.73  40
  -1   2  -4 70320.5 2948.55   7
   2  -1  -4 58539.5 2564.40  21
  -1  -1  -4 70023.9 2625.33   7
  -1  -1  -3 35026.4 1351.10   4
  -1   2  -3 34208.0 1300.79   4
   2  -1  -3 33569.7 1517.98  66
  -1  -1  -3 37541.5 1571.30   7
  -1  -1  -2 10260.0 603.140   7
  -1  -1  -2 8764.41 750.705  63
   2  -1  -2 9096.11 464.808   9
  -1   2  -2 9123.33 720.957   8
  -1  -1  -2 8996.03 636.596  19
   2  -1  -2 7600.68 589.751  66
  -1   2  -2 10144.3 735.769   5
  -1   2  -2 8301.88 421.197  64
  -1  -1  -2 8904.65 513.768   4
  -1  -1  -1 148049. 3129.56  19
  -1   2  -1 146442. 2840.48  64
   2  -1  -1 148734. 3210.87  66
  -1  -1  -1 142842. 2850.61   4
   2  -1  -1 153256. 2675.77  16
  -1   2  -1 151776. 2981.32  16
  -1  -1   0 675310. 14008.7   1
  -1   2   0 646304. 13472.6  16
  -1  -1   0 739148. 13312.9  16
   2  -1   0 685390. 13991.2  67
   2  -1   1 44682.8 1592.41  67
  -1  -1   1 43787.4 979.387  18
  -1  -1   2 270830. 6246.85   2
  -1   2   2 276845. 5446.90  13
  -1   2   2 305057. 5829.14  12
   2  -1   2 284146. 6481.36  67
  -1  -1   2 293971. 6084.00  11
   2  -1   3 191734. 5556.06  67
  -1   2   3 195687. 4183.78  13
  -1  -1   3 192226. 4628.66  11
  -1  -1   4 69600.2 2963.73  27
  -1   2   4 72634.4 2894.68  30
  -1  -1   4 74313.0 3668.76  31
   2  -1   4 76305.0 3538.05  67
   2  -1   4 63502.6 2512.13  26
  -1   2   4 69484.5 2370.57  29
  -1  -1   4 73291.6 3088.56  12
  -1   2   5 24141.6 1439.38  26
  -1  -1   5 22496.7 2042.72  31
  -1  -1   5 22281.0 1746.11  47
   2  -1   5 19451.1 1329.91  26
  -1  -1   5 22073.1 1194.03  49
  -1   2   5 26469.9 1822.26  27
   2  -1   5 20773.5 1261.99  49
  -1   2   6 18239.2 891.123  49
  -1  -1   6 18502.3 1503.14  31
   2  -1   6 18414.9 1007.42  49
  -1   2   6 18814.6 1264.72  27
  -2   2  -6 11282.6 1377.93  45
   2   0  -6 11689.3 1244.63  40
  -2   2  -6 13481.3 1287.61  42
   0  -2  -6 13867.6 1425.19  40
   2   0  -6 11819.1 1256.96  36
   0  -2  -5 16120.9 1989.31  40
   0  -2  -5 18553.9 2069.03  41
   2   0  -5 10812.4 1471.61  40
  -2   2  -5 14696.9 2095.80  45
   0  -2  -5 13911.5 1249.34  21
  -2   2  -5 17109.5 1975.19  41
   2   0  -4 13740.6 1120.75  66
   0  -2  -4 14071.2 1199.16  34
   2   0  -4 11939.3 1470.16  40
   2   0  -4 14394.4 1124.20  62
   2   0  -4 13040.2 863.179  55
   0  -2  -4 12824.7 1309.37  35
  -2   2  -4 13116.9 913.280   4
   0  -2  -4 13011.9 929.981   9
   0  -2  -3 83967.8 2392.48   9
   2   0  -3 80436.2 2766.87  66
   0  -2  -2 470077. 8552.26   9
  -2   2  -2 442543. 8990.80   6
   2   0  -2 454374. 9104.87  66
  -2   2  -1 101714. 2408.97   6
   0  -2  -1 93723.1 2307.26  63
   0  -2  -1 99538.0 2151.46  16
   0  -2  -1 93086.7 2447.65   1
   2   0  -1 90199.2 2383.47  66
  -2   2  -1 97262.1 2234.11  63
  -2   2  -1 102841. 2211.07  16
   2   0  -1 91500.4 2179.61  15
   0  -2  -1 97445.7 2093.39   9
   0  -2  -1 91649.0 2336.04  19
  -2   2   0 288213. 5138.88  13
  -2   2   0 300571. 5172.61  16
   0  -2   0 285655. 5149.47  19
   2   0   0 290926. 5322.52  15
   2   0   0 256058. 5182.53  66
   2   0   0 287920. 5684.92  67
   2   0   0 283904. 5088.52   3
  -2   2   0 266279. 5082.21  64
   0  -2   0 289582. 5136.25  16
   2   0   1 93082.4 2111.05   3
  -2   2   1 95740.7 2275.07   2
   2   0   1 95111.0 2182.39  15
   0  -2   1 93305.2 2575.12  11
  -2   2   1 92865.8 2176.69  13
   0  -2   2 95986.9 2780.54  11
   2   0   2 92981.2 2818.16  67
   2   0   2 91396.4 2328.55  14
  -2   2   3 71598.3 2573.42  12
   2   0   3 72894.2 2858.47  67
  -2   2   3 69975.1 2046.55  13
   0  -2   3 65105.3 2503.04  12
   2   0   3 68553.5 2109.68  14
   0  -2   4 189454. 5846.89  47
   0  -2   4 191893. 6477.75  31
   0  -2   4 195658. 5423.25  12
   2   0   4 210274. 5359.77  26
   2   0   4 210046. 6086.04  67
  -2   2   4 208820. 5632.41  30
  -2   2   4 206406. 5583.72  12
   0  -2   4 208764. 5036.18  49
   0  -2   5 5649.52 626.000  49
   2   0   5 4973.24 680.526  26
  -2   2   5 6279.59 1059.26  31
   0  -2   5 5651.25 1001.35  31
  -2   2   5 6891.95 937.526  27
   0  -2   5 6382.53 725.518  50
  -2   2   5 5311.33 773.071  30
   2   0   6 2391.89 346.293  49
   0  -2   6 1941.26 437.641  25
  -2   2   6 2405.26 455.442  27
  -3   2  -6 34387.0 1935.76  41
   2   1  -6 35160.6 2116.61  36
   1  -3  -6 33759.5 1954.49  40
  -3   2  -6 39509.7 2404.80  45
   2   1  -5 7852.71 1188.17  40
   1  -3  -5 10440.3 1108.55  21
  -3   2  -5 12396.6 1648.90  41
   1  -3  -5 13185.8 1630.66  40
   1  -3  -4 78502.2 2565.88   9
   2   1  -4 70671.6 3003.88  66
   2   1  -4 61363.4 3534.01  40
   2   1  -4 70556.4 2366.66  55
   1  -3  -4 68643.6 3233.88  35
   1  -3  -4 86884.8 4576.32  40
  -3   2  -4 75060.7 2514.82   4
  -3   2  -3 1589.71 373.151   5
   1  -3  -3 1525.83 287.974   9
   2   1  -3 1562.70 395.804  66
  -3   2  -2 45515.1 1897.83  63
   1  -3  -2 47379.0 1481.79  10
  -3   2  -2 46352.7 1863.12   5
   1  -3  -2 47166.1 1534.31   9
   2   1  -2 48110.3 2009.28   8
   1  -3  -1 87976.5 2228.13  10
   2   1  -1 79967.1 2167.56  15
   2   1  -1 82902.5 2465.91   8
   1  -3  -1 84403.1 2040.99   9
  -3   2  -1 75149.4 1964.42  18
   2   1   0 335505. 6720.52   8
   1  -3   0 340146. 6875.99  11
   1  -3   0 361153. 6768.43  10
   2   1   0 368145. 6824.04  15
   2   1   0 332754. 6805.45  67
  -3   2   0 359596. 6380.96  16
   2   1   1 18953.9 962.006  67
  -3   2   1 18429.1 1102.88  17
   1  -3   1 19099.1 1057.78  11
  -3   2   1 18758.0 696.492  64
  -3   2   1 15699.1 967.645   2
   2   1   1 17618.9 869.985  15
   1  -3   1 17918.7 826.769  10
   1  -3   2 68742.3 2357.23  11
   1  -3   2 69628.0 2643.70  67
  -3   2   2 63821.9 2377.11   2
   1  -3   2 63666.0 1768.65  10
   2   1   2 62632.5 1892.62  15
  -3   2   2 61807.2 1990.84  13
   2   1   2 64390.8 2049.71  14
  -3   2   3 72920.1 2384.02  13
   2   1   3 79492.6 2556.82  14
   1  -3   3 80929.4 3457.46  67
   1  -3   4 63882.7 2896.13  47
  -3   2   4 63115.2 2841.05  12
   2   1   4 62151.0 2591.03  26
   1  -3   4 55690.5 3142.59  67
  -3   2   4 54470.8 2484.95  30
   1  -3   4 66664.4 2705.28  50
  -3   2   5 11394.8 1053.71  30
   1  -3   5 12839.1 1078.00  50
  -3   2   5 14790.6 1681.15  31
   1  -3   5 11849.9 1283.20  25
   2   1   5 12316.9 1068.13  26
  -3   2   5 11651.9 1159.35  27
   1  -3   6 54386.1 1834.90  50
   1  -3   6 62025.0 2338.92  25
  -3   2   6 61624.5 2600.17  31
  -3   2   6 61696.8 2267.28  27
   2   1   6 64526.5 1896.26  49
   2  -4  -5 1073.27 354.005  21
  -4   2  -5 951.390 457.457  41
   2   2  -5 1193.79 513.228  36
   2   2  -4 38700.0 3008.48  36
   2  -4  -4 39757.3 1982.82  22
   2   2  -4 40069.0 1727.90  55
   2  -4  -4 43792.4 2553.75  21
   2  -4  -3 39360.4 1984.22  22
  -4   2  -3 40297.9 1708.85   4
   2  -4  -3 38604.9 1662.04   9
   2   2  -3 36926.2 1647.55  55
  -4   2  -2 77933.3 2815.28  63
   2   2  -2 75551.3 2949.85   8
  -4   2  -1 96479.0 2607.02  18
   2  -4  -1 100110. 2684.91  10
   2   2  -1 99696.1 2802.11  15
   2   2  -1 90266.1 3011.72   8
   2  -4   0 6134.83 551.082  10
   2   2   0 6312.31 600.900  15
  -4   2   0 6593.75 721.824  17
   2   2   0 6083.53 581.009   8
  -4   2   1 6273.90 764.060   2
   2  -4   1 7559.70 612.350  10
  -4   2   1 7183.97 800.634  17
   2   2   1 7172.65 647.614  15
   2   2   2 19627.9 1112.78  15
  -4   2   2 21661.9 1556.15   2
   2  -4   2 20927.5 1034.05  10
   2   2   2 21439.8 1173.69  14
   2  -4   3 18703.1 1121.54  51
  -4   2   3 17791.5 1502.65   2
   2  -4   3 17032.7 1523.53  25
   2   2   3 16860.5 1153.00  38
   2  -4   3 16660.7 1196.69  24
  -4   2   3 16060.9 1114.60  13
   2   2   3 17313.4 1192.13  57
   2   2   3 17230.4 1216.42  26
   2  -4   3 17072.9 1303.97  50
   2   2   3 17572.7 1159.04  14
  -4   2   4 155901. 4679.16  27
   2   2   4 161784. 4642.08  26
   2   2   4 153035. 4304.26  38
   2  -4   4 148859. 5257.03  25
   2  -4   4 161288. 4797.26  50
  -4   2   5 11336.2 997.930  27
  -4   2   5 13318.2 1473.91  31
   2  -4   5 13508.4 1243.11  25
   2  -4   5 12821.5 1041.97  50
   2   2   5 12805.4 1020.42  26
  -5   2  -5 778.722 351.902  41
   3  -5  -5 951.761 272.822  21
   2   3  -5 1131.52 397.679  36
   3  -5  -4 46628.5 2456.04  21
   2   3  -4 45360.6 3098.51  36
   3  -5  -3 11833.4 1247.92  21
   3  -5  -3 11331.8 949.520  55
  -5   2  -3 12216.2 939.613   4
   2   3  -3 11080.3 1547.44  36
   3  -5  -3 10416.6 1049.51  22
   2   3  -2 21350.8 1569.90   8
  -5   2  -2 17535.7 1365.05  63
   3  -5  -2 21767.0 1357.38  23
   3  -5  -2 23882.7 1554.53  22
   2   3  -2 21194.2 1345.94  39
   2   3  -2 19499.4 1313.00  60
   2   3  -2 24419.8 2194.29  36
  -5   2  -1 7074.42 923.073  17
   2   3  -1 7374.08 737.592  15
   3  -5  -1 7725.91 716.897  10
   2   3  -1 7877.48 859.453   8
   3  -5   0 40302.7 1777.64  10
   2   3   0 42678.9 1899.94  15
  -5   2   0 40464.1 2203.95  17
   3  -5   1 17657.2 1099.73  10
   2   3   1 18214.5 1215.95  15
  -5   2   1 17967.6 1540.79   2
   3  -5   2 98337.2 3902.19  25
  -5   2   2 94578.0 3988.05   2
   3  -5   2 92005.3 3202.23  24
   3  -5   2 81982.7 2685.80  10
   3  -5   2 106786. 3131.13  51
   2   3   2 95704.1 3147.10  37
   2   3   2 83435.4 2910.84  15
   3  -5   2 82907.6 3154.98  50
   3  -5   3 4926.31 603.511  51
   3  -5   3 3609.73 622.155  50
   2   3   3 4924.37 654.082  57
   3  -5   3 4993.81 670.528  24
   2   3   3 4635.58 637.997  38
  -5   2   3 5293.87 910.938   2
  -5   2   3 4846.28 665.707  13
   3  -5   3 5391.68 891.226  25
   2   3   3 4537.80 607.936  26
   3  -5   4 37738.1 1575.55  51
   3  -5   4 36131.1 1942.04  50
   2   3   4 38794.0 1834.18  26
   2   3   4 37357.8 1772.48  38
   3  -5   4 40102.3 2354.75  25
   2   3   5 8617.71 681.939  26
   3  -5   5 8270.57 721.695  50
  -5   2   5 9410.29 1001.94  31
   3  -4  -5 814.615 253.388  62
  -4   1  -5 679.232 356.327  40
   3  -4  -5 1011.84 332.848  21
   1   3  -5 420.529 316.421  36
   3  -4  -4 151551. 4877.64  21
   1   3  -4 126937. 3934.76  39
  -4   1  -3 99055.5 2834.30   4
   1   3  -3 77758.2 2989.30  39
   1   3  -3 87493.5 3942.59  42
   3  -4  -3 104430. 3789.41  21
   3  -4  -3 87225.8 3121.97  22
   1   3  -3 94193.4 3575.87   8
   3  -4  -3 86225.4 2901.36  55
  -4   1  -2 12445.3 1083.55  63
   3  -4  -2 14129.8 875.338  65
   1   3  -2 13290.7 1142.80   8
  -4   1  -2 13775.7 842.319   4
   3  -4  -1 35317.2 1366.29  65
   3  -4  -1 30734.4 1281.40  10
  -4   1  -1 33716.6 1406.00  18
  -4   1  -1 36174.3 1754.56  17
   1   3  -1 33309.1 1700.87   8
  -4   1   0 128029. 3213.31  18
   1   3   0 122040. 3353.45   8
  -4   1   1 3999.19 649.985   2
   1   3   1 4740.86 461.087  14
   3  -4   1 4836.96 492.540  10
   1   3   2 356317. 7309.43  15
   3  -4   2 343917. 8310.69  67
   1   3   2 350246. 7266.81  14
  -4   1   2 337103. 8716.51   2
   3  -4   3 27163.8 1981.22  25
   1   3   3 23333.1 1345.46  14
   3  -4   3 25060.0 1340.84  51
   3  -4   3 24241.8 1885.95  67
   1   3   3 23528.5 1389.65  57
   1   3   3 23591.6 1370.79  38
   3  -4   3 24192.4 1524.76  50
  -4   1   3 23922.3 1963.32   2
   1   3   3 21832.4 1263.81  29
   3  -4   4 21681.2 1212.54  51
   3  -4   4 23009.3 1547.87  50
   1   3   4 24546.1 1556.09  26
   3  -4   4 23479.2 1873.16  25
   1   3   4 22422.5 1368.64  38
  -4   1   5 8640.36 801.331  27
   1   3   5 10485.3 907.017  26
   3  -4   5 9869.24 899.763  50
   3  -4   5 11045.1 1083.62  25
  -4   1   5 10397.7 1224.38  31
  -3   0  -6 5007.24 780.359  45
   0   3  -6 4395.55 704.326  36
  -3   0  -6 4260.69 630.804  40
  -3   0  -6 5537.42 803.904  41
   3  -3  -6 4832.03 450.964  62
   3  -3  -6 3579.53 598.491  40
   0   3  -5 14371.6 1479.89  42
   3  -3  -5 11884.9 1497.49  40
   3  -3  -5 14077.4 1205.18  21
   3  -3  -5 15469.3 1149.53  62
   0   3  -5 12449.4 1017.96  39
   0   3  -4 44708.1 2880.11  42
   3  -3  -4 42317.3 2986.51  40
   3  -3  -4 43161.3 2329.93  21
  -3   0  -4 46416.2 1889.98   4
  -3   0  -3 8674.45 691.676   4
   3  -3  -3 7576.65 647.286  65
   0   3  -3 9638.26 998.999   8
  -3   0  -3 8894.28 1102.16  63
  -3   0  -3 7816.76 756.288  19
   0   3  -2 487261. 10072.2   8
  -3   0  -2 444868. 9841.55  63
  -3   0  -2 491054. 8841.42   4
   3  -3  -2 466222. 8999.82  65
  -3   0  -2 467193. 9168.16  19
   3  -3  -1 22852.6 922.798  10
   3  -3  -1 28170.8 1342.90  67
   0   3  -1 26967.1 1427.66   8
  -3   0  -1 24893.3 1073.62  19
   3  -3  -1 25032.4 1039.19  65
   0   3   0 44168.4 1736.22   6
   3  -3   0 43075.4 1350.16  65
   3  -3   0 44791.1 1777.85  67
   3  -3   0 38007.5 1296.37  10
  -3   0   0 43113.0 1413.70  18
   0   3   0 39346.5 1188.19  14
   3  -3   1 164762. 4523.11  67
   0   3   1 169850. 3728.54  14
  -3   0   2 22959.6 1620.43   2
   3  -3   2 24797.5 1663.85  67
   0   3   2 24213.0 1156.67  14
  -3   0   3 33452.2 2213.49   2
   0   3   3 32610.6 1550.38  14
   3  -3   3 31986.5 2184.80  67
  -3   0   4 309756. 7622.68  27
   3  -3   4 304318. 6778.49  49
   3  -3   4 312966. 8319.98  25
   3  -3   4 307458. 8836.84  67
  -3   0   4 340738. 9255.78  31
   0   3   4 324384. 7130.33  14
  -3   0   4 332152. 8801.65  12
   3  -3   4 297949. 6627.12  51
   3  -3   5 2113.65 430.922  50
   0   3   5 2604.99 485.966  26
  -3   0   5 1233.14 422.654  47
   3  -3   5 1685.44 441.229  25
  -3   0   5 1501.25 379.436  27
  -3   0   5 1693.84 452.210  48
  -3   0   5 2437.30 651.282  31
   3  -3   6 4365.39 467.870  50
   0   3   6 4411.03 447.751  26
  -3   0   6 4406.49 611.180  31
  -1   3  -6 56552.4 2474.38  42
   3  -2  -6 54816.0 2753.13  40
  -2  -1  -6 70962.3 3146.94  41
  -2  -1  -6 71333.9 3111.53  40
   3  -2  -5 12411.4 1049.54  62
  -1   3  -5 11670.7 1605.51  45
   3  -2  -5 11035.1 1493.27  40
  -1   3  -5 14314.0 1597.22  42
   3  -2  -4 55723.1 2393.62  62
  -1   3  -4 56320.2 3723.33  45
  -1   3  -4 65271.5 3661.20  42
  -1   3  -4 54283.4 3330.15  41
   3  -2  -4 54173.8 3400.25  40
   3  -2  -4 51230.5 2466.59  21
  -1   3  -4 61512.7 2724.57   7
   3  -2  -4 53256.8 2021.89  55
  -2  -1  -4 58674.4 2861.87  35
   3  -2  -3 78007.1 2643.19  66
  -2  -1  -3 82607.0 2408.11   4
  -2  -1  -3 81173.4 2830.92  19
  -1   3  -3 78991.4 2942.77   8
  -1   3  -2 66323.1 2252.25   5
  -2  -1  -2 61472.1 2397.38  63
  -2  -1  -2 64691.5 2128.61  19
   3  -2  -2 62247.4 2116.95  66
  -2  -1  -2 65587.7 1817.45   4
  -1   3  -2 69572.1 2558.12   8
   3  -2  -1 18173.5 1110.79  67
  -2  -1  -1 17605.6 657.528   4
  -1   3  -1 18384.8 1124.21   6
  -2  -1  -1 19155.1 899.747  19
  -1   3   0 330664. 6148.70  13
   3  -2   0 346237. 6306.78  65
  -2  -1   0 336541. 7237.21   1
  -1   3   0 331956. 6800.88   6
   3  -2   0 342881. 7220.76  67
  -1   3   1 80801.0 2027.66  13
  -2  -1   1 84903.5 1994.49  18
   3  -2   1 84589.8 2797.17  67
   3  -2   1 87167.6 2001.14  65
  -2  -1   2 39743.0 2030.82   2
  -1   3   2 45031.1 1475.66  13
  -2  -1   2 45072.5 1956.91  11
   3  -2   2 47066.6 2251.52  67
  -1   3   3 2424.71 346.640  13
  -2  -1   3 1941.14 510.038   2
   3  -2   3 2144.50 541.002  67
   3  -2   4 73413.7 2391.56  51
   3  -2   4 72007.2 2418.56  49
  -2  -1   4 76686.0 3443.35  12
  -2  -1   4 72142.0 3055.89  27
  -1   3   4 70248.9 2911.05  30
  -2  -1   4 77367.4 3825.33  31
   3  -2   4 75728.6 3738.38  67
  -1   3   4 74333.3 2622.49  29
   3  -2   5 9969.29 813.194  49
  -1   3   5 11696.4 1024.26  26
  -2  -1   5 9759.80 1147.23  47
  -1   3   5 11760.6 1130.65  27
  -2  -1   5 10950.3 1134.76  48
  -2  -1   5 9675.33 1304.03  31
  -1   3   6 33754.1 1336.76  26
   3  -2   6 40033.5 1592.85  50
  -2  -1   6 37855.5 1619.13  47
  -2  -1   6 36609.5 1929.64  31
  -2   3  -6 73573.9 2914.34  42
   3  -1  -6 67641.9 3079.72  40
   3  -1  -5 29842.5 2429.24  40
  -2   3  -5 35610.1 2932.12  45
  -2   3  -5 31020.6 2386.38  41
   3  -1  -5 32953.6 1756.64  62
   3  -1  -4 48025.3 3199.04  40
   3  -1  -4 50949.0 2313.90  66
  -1  -2  -4 47988.4 1944.28   9
  -1  -2  -4 51017.2 2496.12  34
   3  -1  -4 52616.9 2321.74  62
   3  -1  -4 51968.6 1982.30  55
  -1  -2  -4 54217.3 2880.30  35
  -1  -2  -3 32267.3 1365.93   9
  -2   3  -3 35600.5 1875.33   5
   3  -1  -3 33214.7 1677.69  66
   3  -1  -2 7089.35 662.082  66
  -1  -2  -2 7201.16 668.098  19
  -2   3  -2 7968.42 789.820   6
  -2   3  -2 7511.55 500.436  64
  -1  -2  -2 6743.33 725.992  63
  -2   3  -2 8190.22 767.711   5
  -1  -2  -2 7080.23 501.894   9
  -1  -2  -1 47352.5 1284.12   9
   3  -1  -1 50997.3 2017.79  67
  -1  -2  -1 47399.3 1894.70   1
  -2   3  -1 49456.7 1850.34   6
   3  -1  -1 47668.2 1641.12  66
  -2   3  -1 53192.9 1442.27  64
  -1  -2  -1 51686.9 1639.21  19
  -1  -2   0 519444. 9216.39  16
  -2   3   0 512508. 9262.41  13
  -1  -2   0 522542. 10602.2   1
   3  -1   0 519666. 10381.4  67
   3  -1   0 521351. 9546.30  66
  -2   3   0 548038. 9929.25   6
  -1  -2   0 550202. 9516.49  19
  -2   3   1 182178. 3636.58  13
   3  -1   1 194583. 4568.12  67
  -1  -2   2 30937.8 1620.78  11
  -2   3   2 26928.0 1127.27  13
  -1  -2   2 26498.1 1478.48   2
   3  -1   2 30238.3 1663.71  67
  -2   3   3 13277.3 828.257  13
  -1  -2   3 14706.2 1160.12  11
   3  -1   3 14347.5 1302.53  67
  -1  -2   4 43035.5 2421.82  48
  -2   3   4 44504.7 1721.17  13
  -1  -2   4 39927.8 2469.00  47
  -1  -2   4 42715.2 2269.88  12
   3  -1   4 44006.3 2615.63  67
   3  -1   4 41065.0 2035.64  26
  -2   3   4 46553.6 2334.59  30
   3  -1   4 42458.5 1735.77  51
  -2   3   4 43956.9 1846.61  29
  -1  -2   4 44292.1 2795.36  31
  -2   3   5 15485.9 1384.51  27
   3  -1   5 13654.9 951.553  49
  -1  -2   5 14879.9 1244.28  48
  -1  -2   5 14369.8 1335.43  47
  -2   3   5 14719.9 1281.67  30
  -1  -2   5 13645.2 1515.43  31
   3  -1   6 90799.7 2339.05  49
  -2   3   6 90550.8 2849.23  27
  -3   3  -6 4028.60 651.262  45
  -3   3  -6 3742.81 579.813  42
   0  -3  -6 4420.20 628.878  40
   3   0  -6 3567.62 597.793  40
  -3   3  -5 1664.98 534.993  41
   3   0  -5 1325.63 523.892  40
   0  -3  -5 1734.95 620.702  40
   0  -3  -5 2153.39 498.054  21
  -3   3  -5 1652.93 635.498  45
   3   0  -5 2954.95 766.024  36
   3   0  -5 1980.06 334.918  55
  -3   3  -4 295230. 6774.19   4
   3   0  -4 275083. 8943.86  40
   0  -3  -4 309060. 6799.28   9
   0  -3  -4 317497. 8453.66  35
   3   0  -4 274577. 9314.11  36
   3   0  -4 329945. 6873.09  55
   0  -3  -4 306795. 7928.86  34
   3   0  -4 302610. 7629.82  66
   0  -3  -3 32107.9 1402.78   9
  -3   3  -3 29020.7 1255.12  64
  -3   3  -3 33654.1 1880.23   5
   3   0  -3 31134.8 1761.36  66
  -3   3  -2 25274.2 1457.46   5
   3   0  -2 24825.6 1395.81  66
  -3   3  -2 24329.9 1053.17  64
   0  -3  -2 24200.3 1049.11   9
  -3   3  -1 167593. 4035.10   6
  -3   3  -1 172407. 3648.21  64
   3   0  -1 157692. 3989.06  66
   0  -3  -1 164885. 3934.42  19
   0  -3  -1 168169. 3480.35   9
   0  -3   0 41039.3 1331.06  19
  -3   3   0 43330.7 1319.23  13
  -3   3   0 43041.8 1322.67  64
   3   0   0 40456.4 1379.66  66
   3   0   0 46546.5 1860.80  67
   3   0   0 37999.2 1457.70  15
   0  -3   1 26199.3 1400.69  11
  -3   3   1 24693.9 1068.85  13
   3   0   1 28101.3 1432.01  67
   3   0   1 23619.9 1110.42  15
   0  -3   2 436197. 9757.36  11
  -3   3   2 438209. 9733.70  17
  -3   3   3 8533.43 707.396  13
   0  -3   3 9203.04 933.095  11
   3   0   3 9166.29 976.520  67
  -3   3   4 44373.8 1773.16  13
   3   0   4 43993.6 2154.15  26
   0  -3   4 45477.3 2415.17  48
   0  -3   4 42197.5 2451.51  47
   0  -3   4 42027.0 2710.77  31
   0  -3   4 39734.4 2649.73  67
   3   0   4 44878.6 1835.32  51
  -3   3   4 45873.4 2337.48  30
  -3   3   5 16890.2 1405.34  27
   3   0   5 14352.7 1141.61  26
   0  -3   5 14521.6 1384.42  25
  -3   3   5 15055.4 1264.48  30
   3   0   6 4390.58 386.400  49
   0  -3   6 4380.51 542.567  25
  -3   3   6 4356.43 532.621  27
   3   1  -5 15384.2 1660.25  36
  -4   3  -5 17067.8 1874.30  45
   3   1  -5 13055.7 1411.73  40
   1  -4  -5 15209.4 1275.59  21
   1  -4  -4 20081.2 1656.19  35
   3   1  -4 22870.3 1296.01  55
   3   1  -4 22162.6 2276.67  36
   3   1  -4 18408.5 1920.04  40
   1  -4  -3 112373. 4058.27  34
   3   1  -3 108945. 5169.18  36
   3   1  -3 96952.3 4612.06  40
   1  -4  -3 115625. 3760.39  22
   3   1  -3 104002. 3837.82  66
   1  -4  -3 106657. 3110.45   9
   1  -4  -3 110113. 4089.70  35
   3   1  -3 109324. 3413.78  60
  -4   3  -3 113136. 3839.34   5
   3   1  -3 125058. 3436.34  55
   3   1  -2 233682. 6133.79  66
  -4   3  -2 254548. 6212.22   5
   1  -4  -2 252524. 5350.46   9
   1  -4  -2 251398. 5481.80  10
  -4   3  -1 24737.2 1096.59  64
  -4   3  -1 24979.1 1246.59   6
   3   1  -1 23799.2 1321.38  66
   3   1  -1 24071.3 1269.09  15
  -4   3  -1 23547.9 1060.62  18
   1  -4   0 27154.1 1385.12  11
   1  -4   0 30617.9 1349.76  10
  -4   3   0 27399.2 1116.22  64
   3   1   0 26336.6 1335.17  15
  -4   3   0 26731.9 1142.77  13
  -4   3   1 104216. 3510.87  17
   1  -4   1 107807. 3344.08  11
   1  -4   1 110773. 2888.26  10
  -4   3   1 101145. 2873.05  13
   3   1   1 101426. 3044.58  15
   1  -4   2 46265.8 2150.74  11
  -4   3   2 49118.5 1902.23  13
   3   1   2 46601.9 1852.39  15
  -4   3   3 14317.5 1011.41  13
   1  -4   3 13950.8 1214.55  50
   3   1   3 14913.7 1139.98  26
   1  -4   3 12468.5 1288.58  25
   3   1   3 13533.1 1028.50  38
   1  -4   3 15224.2 1014.39  51
   3   1   3 14980.6 1089.17  57
   1  -4   4 144965. 4443.98  50
   3   1   4 132053. 4159.96  26
   1  -4   4 130630. 4794.97  25
   3   1   4 138222. 3806.47  51
  -4   3   4 140958. 4326.51  30
   1  -4   5 15279.2 1068.81  50
  -4   3   5 16896.3 1259.78  27
   1  -4   5 17213.8 1387.60  25
   3   1   5 15212.3 1093.61  26
  -4   3   5 15325.7 1116.00  30
  -5   3  -5 627.537 375.171  45
   2  -5  -5 445.149 206.277  21
   3   2  -5 911.129 371.699  36
   2  -5  -4 22325.7 1405.97  22
   2  -5  -4 22408.7 1733.38  21
   3   2  -4 23430.9 2224.16  36
   3   2  -3 17166.1 1245.03  60
   2  -5  -3 19957.7 1486.22  22
   3   2  -3 17280.9 1461.27  66
   3   2  -3 20718.7 2189.61  36
  -5   3  -3 20088.8 1269.58   4
   3   2  -3 20151.7 1250.89  55
   2  -5  -2 81013.4 3209.28  34
   2  -5  -2 80236.2 2850.29  23
   3   2  -2 76032.0 3124.57  66
   3   2  -2 90116.0 4544.58  36
   3   2  -2 80791.6 3008.44  60
  -5   3  -2 89943.3 3242.85   5
   3   2  -2 93107.3 2848.16  55
   2  -5  -1 116528. 3315.72  10
  -5   3  -1 112116. 3065.74  64
   3   2  -1 107317. 3405.13  15
  -5   3  -1 112283. 3196.48  18
   3   2   0 48837.6 2127.74  15
   2  -5   0 49453.5 1963.53  10
  -5   3   0 51533.8 1804.49  64
  -5   3   0 48046.2 2457.23  17
   2  -5   1 14996.6 1013.06  10
   3   2   1 14023.2 1092.07  15
  -5   3   1 14096.6 1002.20  13
   2  -5   2 26415.2 1456.48  51
  -5   3   2 20760.6 1331.30  13
   2  -5   2 20405.7 1387.88  24
   3   2   2 22464.3 1336.95  38
   2  -5   2 21355.0 1193.58  10
   2  -5   2 22259.2 1674.73  25
   3   2   2 19794.5 1302.69  15
   2  -5   2 21738.0 1529.05  52
  -5   3   3 14272.6 1101.81  13
   2  -5   3 14362.2 1265.06  50
   2  -5   3 14018.4 1020.34  51
   2  -5   3 13435.6 1127.93  24
   3   2   3 13002.9 1062.63  38
   2  -5   3 13064.1 1340.42  25
   3   2   3 14074.4 1123.20  57
   2  -5   4 90343.7 3354.97  50
   3   2   4 95655.9 3131.65  26
  -5   3   4 96547.6 3245.58  27
   2  -5   4 102845. 3876.17  25
   2  -5   4 97034.2 3092.31  24
   3   2   4 96891.2 2938.54  51
   2  -5   5 18228.6 1228.09  25
   3   2   5 15457.6 923.936  26
  -5   3   5 15905.3 966.989  27
  -5   3   5 18579.6 1479.89  31
   3  -6  -4 3075.52 500.602  21
   3   3  -4 3671.93 747.134  36
   3  -6  -3 45521.3 2245.75  22
   3  -6  -3 52017.5 2465.52  21
   3  -6  -2 3403.95 554.112  23
   3  -6  -2 3378.54 610.541  22
   3   3  -2 3672.79 591.019  60
   3   3  -1 24058.0 1545.97  60
   3   3  -1 23243.1 1357.87  37
   3  -6  -1 23499.3 1567.78  22
   3   3  -1 25327.5 1503.51  39
   3  -6  -1 22486.9 1365.41  10
   3   3  -1 20622.9 1397.61  15
   3  -6  -1 22793.3 1500.34  23
   3   3   0 147911. 4265.69  37
   3  -6   0 155609. 4467.67  23
   3  -6   0 151342. 4248.86  10
   3   3   0 146093. 4439.42  15
   3  -6   0 154013. 4780.46  52
   3  -6   1 4571.14 682.124  24
   3  -6   1 3846.67 681.406  52
   3  -6   1 5223.38 665.777  23
   3   3   1 4071.95 600.513  37
   3   3   1 4808.06 684.240  15
   3  -6   1 3811.90 543.759  10
  -6   3   1 4738.57 624.339  13
   3  -6   2 18061.2 1204.95  51
   3  -6   2 15167.7 1226.18  24
   3   3   2 15109.3 1103.43  38
   3   3   2 15422.4 1163.23  57
   3  -6   2 16328.2 1343.97  52
   3  -6   3 15453.0 1037.99  51
   3  -6   3 14645.6 1128.11  24
   3   3   3 14611.1 1070.48  38
   3   3   3 14554.1 1101.52  57
   3  -6   4 15009.2 919.427  24
   3   3   4 14101.1 822.512  51
   4  -7  -3 1264.96 235.727  55
   3   4  -3 1383.19 301.069  58
   4  -7  -2 17448.4 1190.72  22
   4  -7  -2 18728.5 1176.03  55
   3   4  -2 16106.8 1151.96  58
   4  -7  -1 25669.0 1540.04  23
   4  -7  -1 25183.3 1445.15  22
   3   4  -1 25392.4 1369.05  37
   4  -7   0 1833.20 411.126  23
   3   4   0 2100.48 406.593  37
   4  -7   0 2018.97 410.488  61
   3   4   0 1260.95 316.711  56
   4  -7   0 1091.23 379.039  52
   4  -7   1 24646.4 1409.40  23
   3   4   1 27720.9 1552.11  37
   4  -7   1 27592.5 1555.92  61
   4  -7   1 26131.8 1676.43  52
   3   4   2 60033.7 2233.37  57
   3   4   2 58347.7 2071.62  38
   4  -7   2 62266.9 2306.89  61
   4  -7   2 62335.1 2520.03  52
   3   4   3 2324.78 337.337  38
   4  -7   3 2369.29 327.103  61
   4  -7   3 2679.52 396.670  52
   3   4   3 3116.25 410.463  57
   4  -6  -4 1262.01 304.882  21
   2   4  -4 1783.19 534.138  36
   2   4  -3 43320.5 1857.03  39
   4  -6  -3 36797.3 1748.67  55
   4  -6  -2 39204.1 2041.32  22
   2   4  -2 40815.5 1945.42  39
   4  -6  -2 36223.9 1880.55  55
   2   4  -2 34442.3 1593.54  37
   2   4  -1 36775.5 1841.65  15
   4  -6  -1 41226.4 2056.39  23
   4  -6  -1 42310.5 2048.01  22
   2   4  -1 44089.4 2069.87  39
  -6   2  -1 35586.8 1993.82  63
   4  -6  -1 43841.4 2134.87  52
   2   4  -1 39429.0 1807.32  37
   4  -6  -1 35967.5 1746.51  10
   4  -6  -1 40409.4 1875.42  61
   4  -6   0 170846. 5036.17  52
   4  -6   0 185925. 4938.94  23
   2   4   0 198649. 5104.29  39
   2   4   0 171360. 4612.39  37
   4  -6   0 173822. 4818.09  61
   4  -6   0 159450. 4514.45  10
   2   4   0 171843. 4767.37  15
  -6   2   0 145677. 5451.87   2
   4  -6   1 11393.7 883.089  51
   4  -6   1 10095.9 919.675  23
   2   4   1 10396.5 949.469  37
   4  -6   1 10261.6 982.324  61
   2   4   1 11024.5 998.565  15
   4  -6   1 9790.06 1049.70  52
  -6   2   1 10039.2 1324.45   2
   4  -6   2 10199.9 1066.81  52
   4  -6   2 12694.6 964.580  51
   2   4   2 11309.1 939.516  38
   2   4   2 11031.7 983.629  37
   4  -6   2 11351.7 996.331  61
   2   4   2 9856.84 923.072  57
   4  -6   3 23243.9 1271.43  51
   2   4   3 22210.1 1313.70  38
   4  -6   3 21121.2 1208.25  61
   2   4   3 23097.2 1353.08  57
   4  -6   3 20186.3 1382.24  52
   4  -6   4 32473.5 1252.50  51
   2   4   4 27591.4 1289.98  38
  -6   2   4 27914.9 1686.11  31
   4  -5  -5 917.133 230.133  62
   1   4  -5 1277.55 387.314  36
   4  -5  -4 27627.9 1733.31  21
   1   4  -4 27134.7 1439.62  39
   1   4  -4 31951.2 2411.09  36
   4  -5  -4 27366.0 1343.80  55
   4  -5  -3 14146.2 1272.47  21
   1   4  -3 13649.4 1118.38  39
   4  -5  -3 12869.1 1035.77  55
   1   4  -2 42524.1 1907.22  44
  -5   1  -2 38063.3 2194.73  63
   4  -5  -2 42652.6 2070.41  22
   1   4  -2 39352.2 1992.35  39
   4  -5  -2 48130.4 1913.22  65
   4  -5  -2 40768.4 1969.78  55
   1   4  -2 42386.3 2262.60   8
   1   4  -1 88888.1 2945.67  44
   4  -5  -1 88703.7 2973.92  23
   1   4  -1 82831.1 2966.85  39
  -5   1  -1 89740.9 2823.26  19
   1   4  -1 86489.0 2847.81  15
   1   4  -1 86368.5 3196.24   8
  -5   1   0 1614.31 446.866   1
   1   4   0 1857.40 383.440  15
   4  -5   1 12788.6 1019.74  61
   1   4   1 12662.4 1008.64  15
  -5   1   1 12165.8 1349.83   2
   1   4   1 12255.7 948.864  37
   4  -5   2 26533.2 1407.99  51
   4  -5   2 21776.4 1462.21  50
  -5   1   2 22848.6 1980.05   2
   4  -5   2 26003.8 1564.16  24
   1   4   2 21177.0 1233.68  14
   4  -5   2 24375.9 1429.51  61
   1   4   2 26066.2 1463.24  37
   1   4   2 23129.4 1272.35  28
   1   4   2 23377.1 1379.14  15
   4  -5   3 6308.21 674.757  51
   4  -5   3 5194.82 717.460  50
   1   4   3 6211.25 717.951  38
   1   4   3 6774.01 743.266  57
   4  -5   4 31992.7 1430.84  51
   4  -5   4 28826.9 1644.43  50
   1   4   4 34059.6 1651.21  26
   1   4   4 31082.1 1541.47  38
  -5   1   4 30972.5 2088.26  31
   4  -5   5 10798.2 562.825  51
   4  -5   5 10247.3 746.927  50
   1   4   5 10659.0 715.862  26
  -5   1   5 9719.81 837.346  48
  -5   1   5 9684.67 868.076  47
  -5   1   5 10284.4 903.110  31
   0   4  -5 2952.12 666.323  36
   0   4  -5 2518.05 389.639  39
   4  -4  -5 3080.92 460.577  62
   0   4  -4 8232.99 1213.13  42
   4  -4  -4 7600.33 937.875  21
   0   4  -4 8834.43 926.203  39
   4  -4  -4 8593.09 770.276  55
   4  -4  -3 39313.5 1665.01  65
   0   4  -3 36890.9 1771.97  44
   0   4  -3 37611.7 2571.63  42
   4  -4  -3 37353.1 2112.66  21
   0   4  -3 33995.8 1952.13  39
  -4   0  -3 35318.8 2368.18  63
   4  -4  -3 35391.6 1759.44  55
   0   4  -3 38686.9 2209.87   8
   0   4  -2 18244.7 1412.67   8
  -4   0  -2 16612.4 1092.10  19
   4  -4  -2 17569.1 1046.01  65
  -4   0  -2 16316.9 1339.80  63
   4  -4  -1 55674.2 1910.85  65
  -4   0  -1 51463.8 1949.77  19
   0   4  -1 52329.8 2360.52   8
   4  -4   0 284208. 5853.10  65
  -4   0   0 288672. 6052.72  18
   0   4   0 281157. 6475.23   8
   4  -4   1 72895.1 2973.01  67
  -4   0   1 72266.3 2379.74  18
  -4   0   1 79741.2 3277.75   1
   0   4   2 22965.3 1231.61  14
  -4   0   2 20481.1 1729.44   2
   4  -4   3 15801.6 1051.99  51
   4  -4   3 14537.2 1170.71  50
   4  -4   3 19155.5 1673.33  25
  -4   0   3 15382.7 1625.75   2
   4  -4   3 14100.0 1492.35  67
   0   4   3 14804.8 1066.74  14
   0   4   3 13128.5 973.178  29
   0   4   3 13590.9 1044.16  28
   4  -4   4 30978.1 1486.01  51
   4  -4   4 30344.6 1728.23  50
   0   4   4 32102.3 1597.14  38
  -4   0   4 30006.7 2200.83  31
   4  -4   5 2628.30 320.708  51
   4  -4   5 2506.09 413.496  50
   0   4   5 2419.34 407.944  26
  -4   0   5 2410.49 475.823  48
  -4   0   5 2508.69 515.978  47
  -4   0   5 2017.80 486.668  31
   4  -3  -5 17973.6 1186.43  62
  -1   4  -5 17061.0 1570.20  42
   4  -3  -5 15581.8 1610.70  40
  -1   4  -5 16131.2 1168.23  39
  -1   4  -4 135930. 5471.56  42
   4  -3  -4 125238. 5531.66  40
  -3  -1  -4 137004. 4621.83  35
   4  -3  -4 141257. 4175.85  62
   4  -3  -4 135995. 3821.39  55
  -1   4  -3 13698.2 1546.49  42
   4  -3  -3 11678.0 1106.04  21
  -3  -1  -3 13233.1 1104.18  19
   4  -3  -3 10237.1 835.213  65
   4  -3  -3 13090.6 977.345  55
  -1   4  -3 13360.3 1239.31   8
  -3  -1  -3 14156.8 1444.84  63
  -3  -1  -2 48637.5 1959.69  19
  -1   4  -2 52813.7 2434.94   8
  -3  -1  -2 49873.7 2304.88  63
  -3  -1  -1 104302. 3659.64   1
   4  -3  -1 110363. 3569.01  67
  -1   4  -1 111504. 3564.94   6
  -3  -1  -1 104072. 2894.20  19
  -1   4   0 26735.3 1497.59   6
   4  -3   0 26535.6 1119.40  65
   4  -3   0 27661.9 1657.45  67
  -3  -1   0 26023.7 1676.50   1
   4  -3   1 27742.7 1738.46  67
  -3  -1   1 30206.6 1979.30   1
  -3  -1   1 24988.5 1094.60  18
  -3  -1   2 218034. 6343.90   2
  -1   4   2 219495. 5006.57  13
  -3  -1   2 242855. 6084.88  11
   4  -3   2 238610. 6621.70  67
   4  -3   3 104546. 3135.55  51
   4  -3   3 112968. 3486.49  50
  -1   4   3 104909. 3252.41  14
  -3  -1   3 112487. 4473.05   2
   4  -3   3 118168. 4696.51  67
  -1   4   3 106755. 3201.80  29
  -1   4   3 111582. 3340.80  28
   4  -3   4 21350.5 1224.26  51
   4  -3   4 23805.0 1502.98  50
  -3  -1   4 21632.8 1847.50  47
  -1   4   4 19348.6 1359.53  30
  -1   4   4 21924.7 1335.88  29
  -3  -1   4 21239.9 1887.91  31
   4  -3   5 13659.5 808.523  51
   4  -3   5 15800.6 1100.02  50
  -1   4   5 15633.3 1118.09  26
  -3  -1   5 14800.6 1240.58  48
  -3  -1   5 13001.8 1225.72  47
  -3  -1   5 12785.0 1298.51  31
  -2   4  -5 13381.6 1454.21  42
   4  -2  -5 12131.7 1473.92  40
   4  -2  -5 13676.6 1048.77  62
   4  -2  -5 14022.9 866.621  55
  -2  -2  -5 11984.6 1151.50  35
   4  -2  -4 143401. 6064.48  40
   4  -2  -4 153542. 4459.41  62
  -2  -2  -4 150742. 4718.69  34
  -2  -2  -4 152295. 5274.97  35
   4  -2  -4 153378. 4137.01  55
   4  -2  -3 14427.0 1701.40  40
  -2  -2  -3 15008.6 1196.23  20
  -2  -2  -3 16563.8 1318.03  19
   4  -2  -3 16087.6 1213.96  66
  -2  -2  -3 16980.4 996.033   9
   4  -2  -3 15756.2 1137.10  62
  -2  -2  -3 19074.6 1395.68  34
  -2   4  -3 17909.4 1402.27   8
  -2   4  -3 18562.6 1371.33   5
   4  -2  -3 15980.9 1068.84  55
  -2  -2  -2 22305.7 1571.03   1
   4  -2  -2 21151.2 1278.17  66
  -2   4  -2 24668.6 1627.28   6
  -2  -2  -2 22973.3 1470.39  63
  -2  -2  -2 21193.9 1276.48  19
  -2   4  -2 23150.8 1412.41   5
  -2  -2  -1 6924.80 836.547   1
  -2   4  -1 7443.18 812.226   6
   4  -2  -1 7146.72 842.066  67
  -2  -2  -1 7152.68 623.533  19
  -2   4   0 6807.57 461.838  13
  -2  -2   0 7703.51 927.638   1
  -2   4   0 6601.49 701.646   6
   4  -2   0 5567.22 463.747  65
  -2  -2   0 5741.36 503.677  19
   4  -2   0 6939.74 818.262  67
  -2   4   1 102387. 2585.68  13
  -2   4   1 104894. 3075.00   6
  -2   4   2 80813.9 2370.78  13
  -2  -2   2 79078.5 3114.17  11
  -2   4   2 82482.9 2661.86   6
   4  -2   2 86376.4 3436.09  67
   4  -2   3 34023.2 1558.38  51
  -2   4   3 37026.4 1578.34  13
  -2  -2   3 32946.4 2188.94  48
  -2  -2   3 35334.2 2265.92  47
  -2  -2   3 40729.9 2178.64  11
   4  -2   3 41710.8 2505.69  67
  -2   4   3 35884.9 1646.93  29
  -2  -2   3 34235.1 2117.66   2
   4  -2   3 40550.2 2000.39  54
  -2   4   3 35275.9 1627.10  28
   4  -2   4 37475.1 1694.89  51
  -2  -2   4 38781.3 2411.87  48
  -2  -2   4 38994.4 2472.09  47
   4  -2   4 44292.8 2081.82  54
  -2  -2   4 37389.1 2537.37  31
  -2   4   4 41889.5 2171.36  30
  -2   4   4 40628.8 1862.04  29
  -2   4   5 1260.70 370.282  27
   4  -2   5 1027.69 283.658  50
   4  -2   5 926.926 220.081  49
  -2   4   5 1528.16 357.624  26
  -2  -2   5 1021.08 344.521  48
  -2  -2   5 1105.77 379.540  47
   4  -2   5 1170.15 241.292  51
  -2  -2   5 1059.29 379.423  31
  -2   4   5 983.648 322.277  30
  -3   4  -5 8976.84 1216.30  45
  -3   4  -5 12057.1 1358.35  42
   4  -1  -5 9729.02 1298.79  40
  -1  -3  -5 13524.7 1557.06  40
   4  -1  -5 11330.4 778.525  55
   4  -1  -4 18555.8 1999.07  40
  -1  -3  -4 20454.1 1780.41  35
   4  -1  -4 24020.7 1529.56  62
  -1  -3  -4 22377.9 1674.11  34
   4  -1  -4 22904.7 1322.39  55
  -1  -3  -3 21754.9 1173.56   9
   4  -1  -3 22619.0 1535.47  66
   4  -1  -3 20241.8 2038.53  40
  -1  -3  -3 22269.0 1564.14  20
   4  -1  -3 23228.7 1446.99  62
  -1  -3  -3 22804.2 1638.80  34
  -3   4  -3 21169.6 1562.16   5
   4  -1  -3 24779.3 1353.67  55
  -3   4  -2 352020. 8240.03   6
  -1  -3  -2 361394. 7844.42  19
   4  -1  -2 356150. 7826.88  66
  -1  -3  -2 362089. 6939.06   9
  -3   4  -2 352578. 7047.03  64
  -1  -3  -1 5236.75 547.715  19
  -3   4  -1 5064.76 667.229   6
   4  -1  -1 4689.53 541.533  66
  -3   4  -1 5449.93 484.417  64
  -1  -3  -1 5999.50 790.098   1
  -3   4   0 112535. 2655.60  13
  -3   4   0 118752. 3449.96   6
  -1  -3   0 113387. 2883.64  19
  -3   4   1 34642.4 1345.06  13
   4  -1   1 34184.1 1873.67  67
  -1  -3   1 32381.4 1746.09  11
  -3   4   2 12736.0 861.372  13
  -1  -3   2 13169.0 1188.05  11
   4  -1   2 13540.1 1225.40  67
   4  -1   3 91063.0 2873.71  51
   4  -1   3 84945.5 3101.61  26
  -3   4   3 95911.4 2840.22  13
  -1  -3   3 92961.3 3717.09  48
  -1  -3   3 92598.6 3776.39  47
  -1  -3   3 93536.3 3589.68  11
   4  -1   3 97393.5 3863.78  67
   4  -1   3 101239. 3064.13  56
  -1  -3   3 84370.3 3764.13  31
  -3   4   3 97730.5 2922.12  29
   4  -1   4 147669. 3998.91  51
  -1  -3   4 153847. 5028.79  48
  -1  -3   4 154782. 5197.61  47
  -1  -3   4 143326. 5302.35  31
  -3   4   4 155362. 4839.50  30
  -3   4   4 155918. 4068.25  29
  -3   4   5 823.300 309.624  27
   4  -1   5 825.052 205.492  51
  -1  -3   5 708.623 297.564  25
  -3   4   5 804.067 295.129  30
   4   0  -5 2771.36 356.794  55
  -4   4  -5 2304.81 570.602  42
   0  -4  -5 2669.11 500.913  21
   4   0  -5 2956.48 659.256  36
   4   0  -4 24572.2 2274.88  40
   4   0  -4 35792.5 2837.46  36
   0  -4  -4 30066.0 2080.21  35
   0  -4  -4 28998.4 1936.26  34
   4   0  -4 35146.6 1619.37  55
   0  -4  -3 13612.9 931.896   9
   4   0  -3 11810.8 1605.62  40
   0  -4  -3 14260.5 1348.61  34
   4   0  -3 17512.8 2030.70  36
   4   0  -3 14253.2 1299.96  66
   0  -4  -3 14768.3 1422.90  35
   4   0  -3 14557.9 1141.55  60
  -4   4  -3 13338.8 1250.34   5
   4   0  -3 14991.1 1057.64  55
   0  -4  -2 23994.7 1142.46   9
   4   0  -2 25269.6 1585.57  66
  -4   4  -2 24697.5 1235.27  64
  -4   4  -2 22511.2 1550.77   5
  -4   4  -1 68607.9 2623.37   6
   0  -4  -1 67975.5 2400.32  19
   4   0  -1 67171.7 2405.54  66
  -4   4  -1 71144.7 2206.76  64
  -4   4   0 269150. 6248.73   6
   0  -4   0 264831. 6321.55  11
   4   0   0 279733. 6771.05  67
  -4   4   1 53571.8 1904.15  13
   0  -4   1 53837.2 2401.61  11
   4   0   1 56566.7 2467.58  67
  -4   4   1 56442.2 2568.88  17
  -4   4   2 16360.3 1055.33  13
   0  -4   2 18733.4 1425.45  11
   4   0   2 16965.1 1343.91  67
  -4   4   3 40676.4 1800.97  13
   4   0   3 40594.0 1830.82  51
   4   0   3 36307.2 1876.14  26
   0  -4   3 36152.1 2214.88  25
   0  -4   3 41927.0 2226.85  11
   0  -4   3 39298.9 1798.86  32
   4   0   3 44208.7 1895.96  56
   4   0   4 9330.85 808.555  51
   4   0   4 8708.00 907.369  26
   0  -4   4 8020.48 1016.54  25
  -4   4   4 9291.41 1008.20  30
  -4   4   5 3216.60 539.752  27
   0  -4   5 2849.05 513.959  25
   0  -4   5 2650.26 383.057  24
  -4   4   5 3224.05 512.781  30
   4   0   5 2958.75 461.836  54
  -5   4  -5 3452.01 554.137  42
   1  -5  -5 3763.14 503.312  21
   4   1  -5 4196.39 706.884  36
   1  -5  -4 25728.5 1454.46  22
   4   1  -4 28456.4 1402.89  55
   1  -5  -3 74.8270 156.011  22
   4   1  -3 500.973 412.061  36
   4   1  -3 13.8576 163.407  60
   1  -5  -3 168.093 190.751  34
   4   1  -3 213.227 145.536  55
   4   1  -2 17824.5 1340.28  60
   1  -5  -2 18334.7 1164.50  10
   1  -5  -2 16440.5 1357.01  20
   4   1  -2 20067.2 2184.56  36
   4   1  -2 14874.7 1263.94  66
  -5   4  -2 16316.2 1368.12   5
   4   1  -2 19665.9 1189.86  55
   1  -5  -2 18224.5 1441.68  34
   1  -5  -1 3912.14 523.815  10
   4   1  -1 3818.58 585.437  60
   4   1  -1 2532.89 533.994  58
   1  -5  -1 3042.13 506.579  33
   1  -5   0 52322.6 2059.42  10
  -5   4   0 53384.2 1922.00  64
  -5   4   1 701.409 233.101  13
   1  -5   1 1587.19 338.733  46
   1  -5   1 261.061 200.333  11
   1  -5   1 407.127 185.486  10
   1  -5   1 1196.31 310.173  32
   4   1   1 41.0838 117.476  56
  -5   4   2 13905.9 1041.77  13
   1  -5   2 18344.4 1184.71  32
   1  -5   2 15330.8 1050.86  46
   1  -5   2 15403.4 1187.62  24
   1  -5   2 14699.8 1237.34  11
   4   1   2 15015.1 1082.96  38
   4   1   2 15841.4 1154.12  56
   4   1   2 15778.0 1111.29  57
   1  -5   3 8019.42 995.475  25
   1  -5   3 7038.05 810.704  24
   4   1   3 8295.64 817.756  57
   4   1   4 33235.5 1522.68  51
   1  -5   4 32302.3 1950.68  25
   1  -5   4 31765.3 1612.22  24
  -5   4   4 30563.5 1685.13  30
  -5   4   5 1205.80 277.655  27
   1  -5   5 1339.85 315.454  25
  -5   4   5 1184.36 380.465  31
  -5   4   5 1228.25 255.631  30
   4   1   5 1482.24 302.799  54
   2  -6  -4 135940. 3883.77  21
   4   2  -4 122565. 3633.58  58
   2  -6  -3 24784.5 1589.37  22
   4   2  -3 24191.4 1450.50  60
   2  -6  -2 13460.1 1071.77  23
   2  -6  -2 15269.4 1300.18  22
   4   2  -2 13450.0 1176.38  60
   4   2  -2 13921.0 1279.11  58
   2  -6  -1 30562.0 1703.23  23
   2  -6  -1 31382.7 1628.02  10
   4   2  -1 25692.6 1749.10  58
   4   2  -1 28457.3 1716.70  60
   2  -6   0 21379.9 1368.32  24
  -6   4   0 18710.0 1290.27   6
   2  -6   0 19562.6 1344.66  23
   2  -6   0 20565.6 1303.07  10
   4   2   0 20668.9 1337.95  37
   4   2   0 19194.5 1292.13  60
   4   2   0 17661.4 1354.78  58
   4   2   0 16111.2 1252.55  56
   4   2   0 18025.5 1392.44  15
  -6   4   1 7373.25 738.983  13
   2  -6   1 7907.69 851.093  24
   2  -6   1 6786.54 713.231  10
   4   2   1 6569.01 765.322  56
   4   2   1 7318.98 868.134  15
   2  -6   1 9329.24 1049.74  52
   2  -6   2 136791. 4225.32  24
   2  -6   2 143581. 3926.68  23
   4   2   2 139359. 3927.77  38
   4   2   2 139886. 4045.82  57
   2  -6   3 14084.4 1090.57  24
   4   2   3 14772.7 1066.27  57
   4   2   4 1177.69 238.759  51
   2  -6   4 1116.61 254.749  24
   3  -7  -3 1388.70 307.755  22
   4   3  -3 981.920 263.911  58
   3  -7  -2 51761.2 1992.75  55
   4   3  -2 51679.3 2283.43  58
   3  -7  -1 7962.54 824.279  23
   3  -7  -1 8281.93 849.417  22
   4   3  -1 7673.27 828.892  58
   3  -7   0 40387.5 1952.05  23
   4   3   0 42876.6 1926.02  37
   3  -7   1 4178.74 571.847  23
   4   3   1 4405.86 553.432  56
   3  -7   2 5550.05 668.971  24
   4   3   2 4946.26 582.778  57
   3  -7   2 5395.68 664.429  52
   3  -7   3 5300.19 497.739  61
   4   3   3 4972.36 509.381  57
   4   4  -2 37168.8 1373.13  56
   4  -8  -2 37526.6 1272.88  55
   4   4  -1 3386.05 414.766  56
   4  -8  -1 3711.21 438.455  55
   4  -8   0 7754.88 609.079  61
   4   4   0 6469.92 555.114  56
   4   4   1 875.966 211.962  57
   4  -8   1 859.327 212.593  61
   4  -8   2 3582.70 369.646  61
   4   4   2 3320.50 355.089  57
   3   5  -2 529.785 150.622  56
   5  -8  -2 587.305 154.732  55
   3   5  -1 7680.66 562.138  37
   3   5  -1 6436.87 529.144  56
   5  -8  -1 7149.47 602.164  55
   3   5   0 39468.5 1513.21  37
   5  -8   0 37726.4 1450.30  61
   5  -8   0 35959.6 1487.42  55
   5  -8   1 6222.23 547.813  61
   3   5   1 5898.85 520.111  57
   5  -8   2 2731.92 308.403  61
   3   5   2 2919.14 315.342  57
   2   5  -3 9218.16 642.127  39
   2   5  -3 7617.19 649.472  58
   5  -7  -3 9156.22 641.901  55
   2   5  -2 2747.54 432.128  39
   2   5  -2 2160.83 331.824  37
   5  -7  -2 2537.11 421.047  55
   2   5  -1 3526.08 483.660  37
   5  -7  -1 3534.83 534.667  55
   5  -7  -1 3216.59 464.888  61
   2   5   0 15826.0 1103.76  37
   5  -7   0 17831.0 1198.73  61
   5  -7   0 15974.2 1227.19  52
   2   5   1 9571.85 731.547  38
   2   5   1 8482.95 793.185  37
   5  -7   1 9573.06 875.642  61
   5  -7   1 8032.92 881.692  52
   5  -7   2 70688.1 2412.85  61
   2   5   2 70426.7 2274.26  38
   2   5   2 72331.1 2360.41  57
   5  -7   2 71107.4 2671.08  52
   5  -7   3 1902.01 341.464  52
   2   5   3 1985.73 294.905  38
   2   5   3 2127.27 304.598  57
   1   5  -4 30.3491 80.0648  39
   5  -6  -4 295.420 138.620  62
   5  -6  -4 357.024 128.567  55
   1   5  -3 7027.56 719.350  39
   5  -6  -3 6230.74 662.098  55
   1   5  -2 110954. 3594.95  39
   5  -6  -2 106960. 3478.18  55
   1   5  -1 11602.5 1037.46  39
   5  -6  -1 10780.2 929.934  61
   5  -6  -1 10190.0 960.124  55
   5  -6  -1 11377.3 1012.43  52
   1   5   0 18220.6 1325.76  39
   5  -6   0 18253.0 1293.81  61
   1   5   0 16279.5 1143.09  37
   5  -6   0 15977.4 1276.46  52
   5  -6   1 21470.4 1542.27  52
   5  -6   1 24793.2 1256.31  51
   1   5   1 22714.9 1379.76  37
   5  -6   1 25294.3 1557.24  61
   1   5   2 181.615 129.417  28
   5  -6   2 380.830 175.585  51
   1   5   2 228.426 159.897  37
   5  -6   2 529.585 235.688  61
   1   5   2 266.598 166.437  57
   5  -6   3 2679.44 404.845  51
   1   5   3 2437.16 403.168  38
   1   5   3 2607.95 395.536  57
   5  -6   4 9759.28 617.227  51
  -6   1   4 8966.89 817.243  47
   1   5   4 9723.10 652.830  38
   5  -6   4 8730.98 676.192  52
   0   5  -4 11725.8 954.367  39
   5  -5  -4 12055.7 922.481  62
   5  -5  -4 11925.6 833.716  55
   0   5  -3 38515.4 1773.61  44
   0   5  -3 41383.6 2059.16  39
   5  -5  -3 39354.7 1856.94  55
  -5   0  -2 14590.2 1616.72   1
   0   5  -2 12490.9 1032.49  44
   0   5  -2 11928.6 1093.86  39
   5  -5  -2 13106.2 967.660  65
   5  -5  -2 11640.2 1003.03  55
   0   5  -2 12825.0 1232.76   8
   0   5  -1 805.471 274.980  44
   0   5  -1 647.003 257.329  39
  -5   0  -1 887.467 276.197  19
   5  -5  -1 650.891 246.940  61
   5  -5  -1 1116.38 302.349  65
   5  -5  -1 648.609 241.887  55
  -5   0  -1 508.909 333.541   1
   0   5   0 235978. 5789.08  44
   0   5   0 230048. 5211.87  43
   0   5   0 240933. 5911.45  39
   5  -5   0 233203. 5716.41  61
  -5   0   0 223726. 6785.35   1
   5  -5   1 21382.6 1150.46  51
   0   5   1 18621.1 1107.00  43
   0   5   1 18369.4 1174.31  37
   5  -5   1 20944.1 1338.70  61
  -5   0   1 16067.3 1595.53   2
   5  -5   1 18745.0 1507.67  54
   5  -5   2 21251.0 1227.03  51
  -5   0   2 18762.5 1758.06   2
   5  -5   2 20977.0 1290.22  61
   5  -5   2 20930.0 1516.59  54
   0   5   2 19263.9 1259.97  15
   0   5   2 20063.0 1198.25  28
   5  -5   3 44865.2 1832.62  51
   0   5   3 38471.5 1658.67  29
   0   5   3 42225.7 1861.88  28
   5  -5   4 43705.2 1624.04  51
   5  -5   4 38871.2 1736.01  50
   0   5   4 45594.6 1827.48  26
  -5   0   4 38574.0 2116.38  47
   0   5   4 44170.1 1703.40  38
  -1   5  -5 1455.08 270.716  39
   5  -4  -5 1125.38 245.858  62
   5  -4  -5 1259.80 204.198  55
  -1   5  -4 30288.7 1749.34  39
  -4  -1  -4 30889.4 1793.49  35
   5  -4  -4 34384.4 1693.38  62
   5  -4  -4 35651.1 1601.73  55
  -1   5  -3 6574.51 767.310  44
  -1   5  -3 7266.34 903.065  39
   5  -4  -3 7712.62 793.282  62
   5  -4  -3 7137.80 750.406  55
  -4  -1  -2 18284.4 1749.59   1
  -1   5  -2 14192.6 1163.32  44
  -1   5  -2 14909.8 1250.60  39
  -4  -1  -2 14171.8 1113.03  19
   5  -4  -2 14443.9 1014.59  65
  -4  -1  -2 15941.6 1396.25  63
  -1   5  -2 16470.0 1438.53   8
   5  -4  -2 14540.6 1059.55  55
  -1   5  -1 112.175 185.903   8
  -1   5  -1 143.205 125.922  44
  -1   5  -1 399.417 226.699  39
   5  -4  -1 1112.42 265.126  65
  -4  -1  -1 1018.30 294.105  19
  -4  -1  -1 13.0013 176.661   1
   5  -4  -1 157.880 198.455  54
   5  -4   0 52322.8 2633.10  67
   5  -4   0 53558.2 1927.78  65
  -1   5   0 52406.6 2456.01   6
  -4  -1   0 49324.2 2055.18  19
  -4  -1   0 51241.5 2822.63   1
  -1   5   1 2360.74 373.910  43
   5  -4   1 3272.29 679.379  67
   5  -4   1 2265.89 394.932  61
  -4  -1   1 1881.54 515.129   2
   5  -4   1 2389.97 504.051  54
  -1   5   2 16454.5 1087.25  28
   5  -4   2 15539.1 1021.00  51
  -4  -1   2 13439.5 1426.26   2
  -1   5   2 14906.1 994.949  43
   5  -4   2 17239.8 1661.62  67
  -1   5   2 15491.3 1037.71  14
   5  -4   2 16137.9 1310.56  54
  -1   5   2 16334.7 1020.31  29
  -1   5   3 106.614 127.533  28
   5  -4   3 207.577 143.667  51
  -4  -1   3-138.495 241.432  47
   5  -4   3 151.131 153.203  54
  -1   5   3 103.492 129.588  29
   5  -4   4 28375.4 1350.94  51
  -4  -1   4 24103.6 1783.41  48
  -4  -1   4 25853.9 1854.97  47
  -1   5   4 26757.4 1371.37  29
   5  -4   5 3002.32 315.125  51
  -1   5   5 3212.57 413.979  26
  -4  -1   5 2887.51 437.092  48
  -4  -1   5 2669.32 441.290  47
  -4  -1   5 2983.91 336.435  32
  -2   5  -5 16637.1 1062.95  39
   5  -3  -5 17943.0 885.202  55
  -2   5  -4 90398.6 3128.64  44
  -2   5  -4 96670.0 4236.47  42
   5  -3  -4 91414.4 4455.78  40
  -3  -2  -4 97606.8 3771.01  35
   5  -3  -4 98039.2 3184.76  62
   5  -3  -4 99254.4 2988.13  55
  -2   5  -3 12339.2 1480.29  42
   5  -3  -3 12165.1 1608.42  40
   5  -3  -3 11528.2 942.679  65
   5  -3  -3 12909.9 1029.42  62
  -3  -2  -3 13290.7 1176.83  34
   5  -3  -3 13178.0 994.610  55
  -2   5  -3 12899.7 1266.86   8
  -2   5  -2 18935.1 1422.43  39
  -3  -2  -2 24148.9 1931.25   1
  -3  -2  -2 18546.2 1281.82  19
   5  -3  -2 18928.1 1170.07  65
  -3  -2  -2 22426.3 1592.67  63
   5  -3  -2 19793.3 1138.17  59
  -2   5  -2 21129.8 1656.40   8
   5  -3  -2 19601.7 1180.76  55
  -2   5  -1 16310.8 1401.00   6
  -3  -2  -1 15067.8 1047.20  19
   5  -3  -1 14417.5 938.276  65
  -3  -2  -1 16069.1 1515.84   1
  -2   5   0 49510.1 2445.21   6
   5  -3   0 56431.7 2781.94  67
   5  -3   0 50084.9 1780.43  65
  -3  -2   0 51338.0 1961.65  19
  -3  -2   0 56421.4 2984.02   1
  -2   5   1 104994. 2947.43  13
  -2   5   1 109640. 3747.79   6
  -3  -2   1 117204. 3207.42  19
  -3  -2   1 97983.6 3757.42   2
   5  -3   1 123955. 4449.85  67
   5  -3   2 77998.9 2535.38  51
  -2   5   2 77958.3 2577.67  13
  -3  -2   2 70536.9 3343.61  48
  -3  -2   2 77027.9 3400.79   2
  -3  -2   2 82623.3 3400.12  11
  -2   5   2 79525.9 2519.85  43
   5  -3   2 93373.6 3983.34  67
   5  -3   2 93808.4 2863.53  56
   5  -3   2 84052.4 3154.88  54
   5  -3   2 88679.3 2918.19  53
   5  -3   3 18640.4 1159.67  51
  -3  -2   3 17791.9 1644.06  48
  -3  -2   3 19102.5 1701.88  47
   5  -3   3 19223.1 1816.99  67
  -3  -2   3 20256.9 1705.30   2
   5  -3   3 19665.8 1423.49  54
  -2   5   3 18703.2 1193.87  29
  -2   5   3 19917.5 1261.29  28
   5  -3   4 21196.0 1185.25  51
  -3  -2   4 21710.3 1690.77  48
  -3  -2   4 20444.4 1680.99  47
  -2   5   4 20443.0 1324.37  30
  -2   5   4 21031.0 1250.40  29
   5  -3   5 629.021 166.361  51
  -2   5   5 895.423 236.970  26
  -3  -2   5 960.992 278.708  48
  -3  -2   5 796.236 260.303  47
  -3  -2   5 244.938 162.977  25
  -3   5  -5 8313.50 914.242  42
  -2  -3  -5 10116.2 1130.86  40
  -3   5  -5 7506.96 708.077  39
   5  -2  -5 9879.37 643.867  55
  -3   5  -4 39739.2 2574.59  42
   5  -2  -4 34059.4 2685.67  40
  -2  -3  -4 37818.5 2302.58  35
  -2  -3  -4 37955.4 2065.32  34
   5  -2  -4 39774.7 1782.66  60
   5  -2  -4 40020.6 1734.28  55
   5  -2  -3 3080.39 897.095  40
  -2  -3  -3 4256.59 667.846  20
   5  -2  -3 5418.29 663.847  62
  -2  -3  -3 4700.02 735.824  34
   5  -2  -3 4577.84 575.242  55
  -3   5  -3 4389.92 700.520   5
  -2  -3  -2 85498.2 3082.61  20
  -2  -3  -2 81004.8 3017.80  19
  -3   5  -2 94256.8 3702.04   6
  -3   5  -2 91201.1 3325.18   5
   5  -2  -2 85610.9 2747.38  59
  -2  -3  -2 84888.7 2780.13  33
   5  -2  -2 87531.7 2761.89  55
  -2  -3  -1 21507.9 1754.09   1
  -3   5  -1 19150.3 1525.87   6
  -2  -3  -1 16324.3 1090.82  19
   5  -2  -1 14954.8 960.734  65
  -3   5   0 42157.9 2201.32   6
   5  -2   0 45469.7 2466.42  67
  -2  -3   0 39408.3 1635.11  19
  -3   5   1 8073.86 669.359  13
  -2  -3   1 8638.39 964.606  11
  -3   5   1 8225.64 926.395   6
   5  -2   1 8980.38 1083.65  67
   5  -2   2 20864.6 1187.04  51
  -3   5   2 23851.4 1284.36  13
  -2  -3   2 21329.4 1638.39  48
  -2  -3   2 21533.1 1639.12  47
  -2  -3   2 20745.2 1638.44  11
  -3   5   2 24220.1 1570.56   6
   5  -2   2 22039.3 1780.24  67
   5  -2   2 22541.8 1323.57  56
   5  -2   2 26686.4 1693.78  54
   5  -2   2 22552.1 1370.72  53
   5  -2   3 10390.4 859.545  51
  -3   5   3 11535.9 904.250  13
  -2  -3   3 10583.9 1210.74  48
  -2  -3   3 11462.1 1261.09  47
  -2  -3   3 11160.3 931.612  46
  -2  -3   3 11978.8 1214.79  11
   5  -2   3 10968.2 1314.67  67
   5  -2   3 12894.2 1188.81  54
  -3   5   3 10926.9 904.733  29
  -3   5   3 10238.3 850.034  28
   5  -2   4 44089.6 1805.88  51
  -2  -3   4 45624.1 2426.04  48
  -2  -3   4 44474.1 2472.61  47
  -2  -3   4 46214.5 1947.88  32
  -3   5   4 45502.3 2204.98  30
  -3   5   4 44222.3 1880.57  29
   5  -2   4 47022.8 2187.48  54
  -3   5   5 933.444 275.302  27
   5  -2   5 948.122 198.394  51
  -3   5   5 983.726 233.863  26
  -2  -3   5 610.175 222.756  25
  -3   5   5 752.386 230.792  30
  -4   5  -5 10942.2 922.277  42
  -1  -4  -5 11961.7 879.976  21
   5  -1  -5 11667.4 671.511  55
  -4   5  -4 31902.6 2164.37  42
  -1  -4  -4 33563.6 2085.95  35
  -1  -4  -4 31662.8 1871.60  34
   5  -1  -4 32091.3 1570.50  60
   5  -1  -4 36272.4 1581.63  55
   5  -1  -3 6199.27 807.706  58
  -1  -4  -3 6031.99 842.326  20
  -1  -4  -3 6264.36 871.107  34
   5  -1  -3 5363.09 697.478  60
   5  -1  -3 7436.01 734.150  55
  -1  -4  -2 22752.3 1545.10  20
  -4   5  -2 25578.4 1814.69   6
   5  -1  -2 24201.5 1570.38  66
  -4   5  -2 24795.6 1687.21   5
  -1  -4  -2 23620.8 1429.45  33
   5  -1  -2 26252.7 1732.76  58
   5  -1  -2 26931.1 1368.71  55
   5  -1  -2 25569.6 1418.22  59
  -4   5  -1 11095.4 1154.46   6
  -1  -4  -1 11840.4 951.206  19
  -1  -4  -1 12836.2 987.226  33
   5  -1  -1 14212.4 1008.86  59
   5  -1  -1 13384.9 1201.79  58
  -1  -4   0 1683.67 406.435  11
   5  -1   0 3164.27 643.417  67
  -4   5   0 2704.11 549.080   6
  -4   5   1 90438.2 2643.02  13
  -1  -4   1 88639.0 2889.79  46
  -4   5   1 91029.3 3353.60   6
  -1  -4   1 82171.9 3326.85  11
  -1  -4   1 80266.6 2829.44  32
   5  -1   1 85576.5 2927.70  56
   5  -1   1 93623.5 3671.84  67
   5  -1   2 42298.1 1831.73  51
  -4   5   2 43743.3 1847.54  13
  -1  -4   2 44475.7 2352.87  48
  -1  -4   2 41837.4 1885.48  46
  -4   5   2 44415.9 2252.54   6
  -1  -4   2 47216.3 2476.54  11
   5  -1   2 45143.3 2499.78  67
  -1  -4   2 41405.2 1964.28  32
   5  -1   2 43486.5 1973.52  56
   5  -1   2 50573.5 2484.94  54
   5  -1   2 44160.0 1997.00  53
   5  -1   3 14383.5 1042.09  51
  -1  -4   3 16029.1 1424.98  48
  -1  -4   3 14438.8 1011.44  46
  -1  -4   3 15548.2 1137.78  32
   5  -1   3 16834.2 1177.66  56
   5  -1   3 18521.8 1486.85  54
  -4   5   3 14541.5 1028.69  29
   5  -1   4 28245.6 1391.10  51
  -1  -4   4 27927.5 1353.81  32
  -4   5   4 29465.5 1761.63  30
  -4   5   4 28550.0 1341.40  29
   5  -1   4 33155.4 1828.89  54
  -4   5   5 1419.83 327.719  27
   5  -1   5 1301.20 209.200  51
  -1  -4   5 891.817 252.743  25
  -1  -4   5 1047.49 221.809  24
  -4   5   5 1428.75 314.046  30
   5  -1   5 1207.02 260.310  54
   5   0  -4 39470.7 1842.14  58
   0  -5  -4 40787.9 2003.53  35
   5   0  -4 37422.7 1627.35  60
   0  -5  -3 44137.8 2342.40  35
   0  -5  -3 39419.1 2225.38  34
   5   0  -3 41835.1 2051.11  60
   5   0  -3 42192.2 2282.39  58
   5   0  -3 46765.5 1894.65  55
   0  -5  -2 22218.1 1296.09  10
   0  -5  -2 21660.9 1546.56  20
   5   0  -2 19674.0 1436.63  66
   0  -5  -2 23850.9 1639.81  34
  -5   5  -2 18881.7 1500.86   5
   5   0  -2 22140.5 1678.02  58
   5   0  -2 22835.3 1518.12  60
   5   0  -2 22913.6 1272.05  55
  -5   5  -1 18226.3 1430.25   6
   0  -5  -1 23625.9 1348.52  10
   0  -5  -1 20615.8 1384.21  20
   0  -5  -1 19559.7 1366.43  34
   0  -5  -1 21033.5 1358.01  33
   5   0  -1 23455.9 1472.18  60
   5   0  -1 21718.1 1636.47  58
   5   0  -1 19509.4 1367.27  56
   0  -5   0 225580. 5625.90  46
  -5   5   0 229112. 6149.98   6
   0  -5   0 254112. 5750.10  10
   0  -5   0 243570. 5715.05  33
   0  -5   0 224214. 5662.18  32
   5   0   0 245694. 6475.88  58
   5   0   0 232077. 5938.79  56
   0  -5   1 1472.40 345.659  46
   0  -5   1 863.241 283.712  24
   0  -5   1 755.299 317.940  11
   0  -5   1 805.201 252.557  10
  -5   5   1 776.168 289.378   6
   0  -5   1 1211.70 300.066  33
   0  -5   1 852.955 286.350  32
   5   0   1 887.763 291.061  56
  -5   5   2 13497.7 1006.60  13
   0  -5   2 12500.4 967.017  46
   0  -5   2 13222.2 1229.77  11
   0  -5   2 11838.3 986.621  32
   5   0   2 12559.1 1046.00  56
   5   0   2 13081.3 1014.16  53
   5   0   3 41968.1 1868.01  51
   0  -5   3 40582.1 1811.18  32
   5   0   3 46791.1 1957.71  56
   5   0   4 11088.0 794.342  51
   0  -5   4 10461.1 855.891  24
  -5   5   4 11079.3 977.650  30
   1  -6  -4 7110.60 564.484  22
   1  -6  -4 7588.46 729.037  21
   5   1  -4 6982.25 653.059  58
   1  -6  -3 16177.6 1167.40  22
   5   1  -3 14634.9 1087.94  60
   5   1  -3 14110.5 1196.09  58
   5   1  -3 12530.6 937.989  56
   1  -6  -2 32711.5 1830.70  34
   5   1  -2 32698.8 1827.72  60
   5   1  -2 31595.6 1989.78  58
   5   1  -2 34603.2 1507.32  55
   1  -6  -1 43835.8 2010.46  23
   5   1  -1 43642.3 2119.48  60
   5   1  -1 46360.3 2438.52  58
   5   1  -1 41219.8 2109.52  56
   5   1   0 11372.8 957.588  60
   1  -6   0 10878.6 943.660  33
   5   1   0 12786.2 1193.65  58
   5   1   0 10694.3 1024.12  56
   1  -6   1 17575.0 1222.61  24
   1  -6   1 17497.9 1229.54  32
   5   1   1 15882.8 1214.67  56
   1  -6   2 42367.4 2007.40  24
   1  -6   2 44820.8 1937.27  32
   5   1   2 43456.9 1848.63  57
   5   1   2 44042.6 1960.07  56
   5   1   3 5075.06 579.487  51
   1  -6   3 4932.34 616.615  24
   1  -6   3 4633.48 509.332  32
  -6   5   4 33892.1 1462.68  27
   5   1   4 34785.4 1296.89  51
   1  -6   4 33219.2 1381.78  24
  -6   5   4 33139.8 1428.30  30
   2  -7  -3 12570.2 849.030  22
   5   2  -3 13455.7 946.362  58
   5   2  -3 10648.7 721.251  56
   2  -7  -2 6191.02 597.823  23
   2  -7  -2 7087.29 743.347  22
   5   2  -2 7655.02 755.799  60
   5   2  -2 5779.83 714.622  58
   5   2  -2 5808.61 652.810  56
   2  -7  -1 7307.21 742.311  23
   2  -7  -1 7363.00 784.053  22
   5   2  -1 7910.99 787.120  60
   5   2  -1 7536.60 837.881  58
   5   2  -1 7081.88 768.799  56
   2  -7   0 40458.4 1881.86  23
   5   2   0 37957.4 1868.54  56
   2  -7   1 23945.3 1372.40  24
   2  -7   1 24519.0 1365.23  23
   5   2   1 23788.4 1266.58  57
   5   2   1 21536.1 1287.70  56
   2  -7   2 11912.8 924.806  24
   2  -7   2 10916.8 782.112  23
   5   2   2 12474.1 854.230  57
   5   2   2 11505.2 785.369  56
   5   2   3 7368.04 579.241  51
   2  -7   3 8072.63 663.193  24
   5   2   3 8033.86 655.951  54
   5   3  -2 7460.96 543.127  56
   3  -8  -1 4452.11 462.166  23
   5   3  -1 4183.85 461.036  56
   3  -8   0 1099.65 247.462  23
   3  -8   0 987.298 211.502  61
   5   3   0 926.066 207.148  57
   5   3   0 975.978 227.805  56
   3  -8   1 733.281 182.323  23
   3  -8   1 689.958 188.047  61
   5   3   1 727.123 178.360  57
   5   3   1 459.421 140.846  56
   5   3   2 14099.8 694.519  51
   3  -8   2 13473.3 713.806  61
   2   6  -1 6082.97 473.749  37
   6  -8  -1 6097.54 490.880  55
   2   6   0 1479.49 255.711  37
   6  -8   0 1589.73 255.201  55
   6  -8   1 6608.67 506.855  61
   2   6   1 6319.28 468.661  57
   1   6  -3 13562.1 741.880  39
   6  -7  -3 11540.5 651.512  55
   1   6  -2 15189.9 979.121  39
   1   6  -2 12999.8 796.159  37
   6  -7  -2 13732.6 893.758  55
   1   6  -1 5887.65 597.831  37
   6  -7  -1 5852.26 624.137  55
   1   6   0 190815. 4617.70  37
   6  -7   0 190753. 4726.14  61
   6  -7   0 179992. 4522.79  55
   6  -7   0 187231. 4790.49  52
   1   6   1 9183.60 753.191  37
   6  -7   1 9229.61 791.073  61
   6  -7   1 8676.57 831.335  52
   1   6   2 12833.3 794.194  38
   6  -7   2 12442.7 806.169  61
   6  -7   2 12456.5 935.571  52
   1   6   3 17080.2 792.228  38
   6  -7   3 17012.7 905.608  52
   0   6  -3 15817.5 1045.37  39
   6  -6  -3 14702.5 929.230  55
   0   6  -2 4741.45 601.470  44
   0   6  -2 4239.67 596.031  39
   6  -6  -2 4353.46 560.625  55
   0   6  -1 59898.2 2459.39  39
   6  -6  -1 54120.9 2205.07  55
   0   6   0 10387.7 958.125  39
   6  -6   0 8474.43 838.513  61
   6  -6   0 8565.72 786.855  55
   6  -6   0 9547.85 922.548  52
   0   6   1 8482.25 765.525  37
   6  -6   1 8383.83 824.076  61
   0   6   1 7755.14 662.340  28
   6  -6   1 8055.07 882.508  52
   6  -6   2 118015. 3068.12  51
   6  -6   2 118797. 3302.64  61
   0   6   2 112414. 3084.53  28
   6  -6   3 1868.09 294.952  51
  -6   0   3 1878.92 422.140  48
   0   6   3 2063.06 330.941  38
  -1   6  -4 35453.0 1513.39  39
   6  -5  -4 31633.3 1292.94  62
   6  -5  -4 35172.3 1333.02  55
  -1   6  -3 5744.87 640.236  44
  -1   6  -3 6379.40 741.761  39
   6  -5  -3 5328.77 582.534  55
  -1   6  -2 42964.1 2038.02  44
  -1   6  -2 46238.6 2200.15  39
   6  -5  -2 41784.6 1745.15  59
   6  -5  -2 41239.4 1864.92  55
  -1   6  -1 17513.6 1267.01  44
  -1   6  -1 16937.5 998.238  43
  -1   6  -1 19070.1 1330.28  39
   6  -5  -1 17149.2 1129.19  55
  -1   6   0 10205.4 932.581  44
  -1   6   0 10032.1 795.982  43
  -1   6   0 12241.2 1038.42  39
   6  -5   0 9377.07 1102.80  54
  -1   6   1 43766.3 1790.00  43
  -1   6   1 42981.1 1827.27  37
   6  -5   1 45127.4 1996.53  61
   6  -5   1 43583.5 2383.09  54
   6  -5   2 33060.4 1467.53  51
   6  -5   2 28679.0 1812.83  54
  -1   6   2 30568.4 1386.31  29
  -1   6   2 30026.5 1499.84  28
   6  -5   3 17130.4 990.696  51
  -5  -1   3 15303.8 1358.06  48
  -1   6   3 14460.0 902.977  29
   6  -5   3 13883.9 1092.84  54
  -1   6   3 16011.1 1031.16  28
   6  -5   4 7452.61 541.462  51
  -1   6   4 7476.48 607.103  26
  -5  -1   4 6981.80 721.968  48
  -5  -1   4 7339.37 697.616  47
  -2   6  -4 1033.05 241.703  44
  -2   6  -4 976.982 279.456  39
  -4  -2  -4 1047.60 312.676  35
   6  -4  -4 955.913 228.809  55
  -2   6  -3 13436.8 1091.78  44
  -2   6  -3 12706.3 1133.02  39
  -4  -2  -3 13138.5 1089.51  34
   6  -4  -3 13755.5 971.140  55
  -2   6  -2 139740. 4345.20  44
  -2   6  -2 138473. 4321.52  39
  -4  -2  -2 144654. 4126.17  20
   6  -4  -2 141346. 3771.64  59
   6  -4  -2 131129. 3751.94  55
  -2   6  -1 7210.84 817.856  44
  -2   6  -1 8181.22 858.768  39
  -4  -2  -1 8253.69 1239.99   1
  -4  -2  -1 6665.52 767.427  19
   6  -4  -1 7193.48 702.788  65
  -4  -2  -1 7138.14 899.831  63
   6  -4  -1 6657.61 689.745  59
  -2   6  -1 7078.43 985.339   8
   6  -4  -1 6544.04 648.483  55
   6  -4  -1 6324.13 891.814  54
  -2   6   0 18165.9 1237.64  44
  -2   6   0 19595.3 1157.38  43
   6  -4   0 19873.3 1758.20  67
  -2   6   0 21064.5 1683.13   6
  -4  -2   0 19834.1 1311.33  19
   6  -4   0 22902.2 1238.22  65
   6  -4   0 18538.5 1176.49  59
   6  -4   0 17532.9 1487.33  54
  -2   6   1 29468.1 1437.96  43
   6  -4   1 27200.5 2122.09  67
  -4  -2   1 31138.0 1645.02  19
  -4  -2   1 24413.3 1819.87   2
   6  -4   1 29881.1 1913.43  54
   6  -4   1 32154.9 1623.16  53
   6  -4   2 14159.0 951.856  51
  -4  -2   2 15666.4 1463.01  48
  -2   6   2 13083.4 931.335  43
   6  -4   2 12496.1 1205.68  54
  -2   6   2 12774.0 918.507  29
  -2   6   2 14147.6 1023.58  28
   6  -4   3 25142.0 1286.78  51
  -4  -2   3 24489.2 1769.72  48
  -4  -2   3 24921.8 1745.95  47
   6  -4   3 22354.0 1501.50  54
  -2   6   3 23882.2 1272.26  29
  -2   6   3 23165.3 1323.85  28
   6  -4   4 132620. 3208.75  51
  -4  -2   4 127956. 3875.20  48
  -4  -2   4 130039. 3855.16  47
  -4  -2   4 120304. 3070.80  46
  -4  -2   4 125674. 3372.75  32
  -2   6   4 125528. 3216.27  29
  -3   6  -4 15648.7 1027.04  44
  -3   6  -4 13957.1 1028.86  39
  -3  -3  -4 16457.3 1276.84  35
  -3  -3  -4 15990.2 1078.99  34
   6  -3  -4 16609.1 991.051  60
   6  -3  -4 16754.3 946.711  55
  -3  -3  -3 14293.2 1138.37  20
  -3   6  -3 12807.3 1138.65  39
  -3  -3  -3 14419.4 1210.75  34
   6  -3  -3 13910.9 965.696  55
  -3   6  -2 14925.9 1212.98  39
  -3  -3  -2 14335.3 1170.71  20
   6  -3  -2 15078.0 1039.22  59
   6  -3  -2 13881.6 972.156  55
  -3   6  -1 3890.58 619.501  44
  -3   6  -1 5560.65 912.556   6
  -3  -3  -1 4213.73 606.761  19
   6  -3  -1 3818.20 514.968  65
   6  -3  -1 4137.77 543.315  59
  -3  -3  -1 5792.41 1073.86   1
  -3  -3   0 157493. 4186.32  46
  -3   6   0 162462. 5349.93   6
   6  -3   0 154099. 5454.54  67
  -3  -3   0 149191. 4116.20  19
   6  -3   0 143035. 3958.70  59
   6  -3   0 150660. 4764.42  54
   6  -3   0 144121. 4082.37  53
  -3  -3   1 22241.6 1435.00  46
  -3  -3   1 22259.8 1683.91  11
  -3   6   1 22632.5 1242.16  43
  -3   6   1 23561.8 1796.40   6
   6  -3   1 25048.2 2000.72  67
   6  -3   1 21442.5 1228.15  59
  -3  -3   1 21842.0 1417.43  32
   6  -3   1 21872.3 1262.62  56
   6  -3   1 25461.8 1767.97  54
   6  -3   1 24094.4 1427.79  53
  -3   6   2 3839.90 530.561  28
   6  -3   2 3770.02 490.783  51
  -3  -3   2 4000.96 702.432  48
  -3   6   2 2996.64 434.594  43
   6  -3   2 3981.79 548.767  56
   6  -3   2 3544.27 654.416  54
   6  -3   2 3891.14 584.519  53
   6  -3   3 49216.9 1931.25  51
  -3  -3   3 52748.4 2624.01  48
  -3  -3   3 54409.8 2661.11  47
  -3  -3   3 48281.0 2050.77  46
  -3  -3   3 51080.2 2251.70  32
   6  -3   3 51554.0 2431.82  54
  -3   6   3 49810.4 1991.65  29
  -3   6   3 51714.1 2031.96  28
   6  -3   4 3292.97 405.088  51
  -3  -3   4 3034.42 522.127  48
  -3  -3   4 3202.11 426.374  32
  -3   6   4 3064.96 434.779  30
  -3   6   4 3263.12 421.479  29
   6  -3   4 3270.53 483.750  54
  -4   6  -4 25449.9 1332.46  39
  -2  -4  -4 28294.5 1643.90  35
  -2  -4  -4 29203.9 1519.25  34
   6  -2  -4 30305.6 1353.71  60
  -2  -4  -3 22073.0 1499.10  20
  -4   6  -3 19977.5 1345.58  39
  -2  -4  -3 21962.9 1528.84  34
   6  -2  -3 22523.6 1354.69  60
   6  -2  -3 23439.8 1233.42  55
  -2  -4  -2 11169.6 1057.32  20
  -2  -4  -2 10309.4 900.119  33
   6  -2  -2 11740.2 940.839  59
   6  -2  -2 12570.1 1124.46  58
   6  -2  -2 11360.3 839.365  55
  -4   6  -1 9779.01 1183.13   6
  -2  -4  -1 9166.92 889.267  19
  -2  -4  -1 9744.34 870.111  33
   6  -2  -1 9563.78 855.066  59
  -2  -4   0 172492. 4518.58  46
  -2  -4   0 168309. 5221.63  11
  -4   6   0 172323. 5647.47   6
   6  -2   0 184912. 5930.35  67
   6  -2   0 178871. 4532.89  59
  -2  -4   0 171783. 4509.71  32
   6  -2   0 171408. 4514.86  56
  -2  -4   1 41734.4 1946.16  46
  -2  -4   1 40604.3 2334.51  11
  -4   6   1 45452.5 2540.43   6
   6  -2   1 42145.9 2553.14  67
   6  -2   1 39979.9 1732.03  59
  -2  -4   1 39748.1 1923.16  32
   6  -2   1 41385.3 1884.35  56
   6  -2   1 45286.8 2353.62  54
   6  -2   1 40596.5 1965.27  53
  -4   6   2 38678.0 1699.74  28
   6  -2   2 38409.5 1697.61  51
  -2  -4   2 41732.0 1930.36  46
  -2  -4   2 42031.6 2012.69  32
   6  -2   2 41670.9 1912.03  56
   6  -2   2 45151.5 2364.79  54
   6  -2   2 42143.8 2005.96  53
   6  -2   3 41930.7 1749.92  51
  -2  -4   3 39076.9 1729.05  46
  -2  -4   3 42605.1 1919.13  32
   6  -2   3 46888.6 2308.68  54
  -4   6   3 43431.0 1814.45  29
   6  -2   4 1430.08 270.689  51
  -2  -4   4 1336.82 260.897  32
  -4   6   4 1741.33 357.182  30
  -4   6   4 1983.50 310.415  29
   6  -2   4 1421.09 335.389  54
  -1  -5  -4 9642.11 801.318  35
   6  -1  -4 9836.01 685.754  60
   6  -1  -4 10770.7 654.777  55
  -1  -5  -3 2301.52 503.085  35
  -1  -5  -3 2336.39 482.606  34
   6  -1  -3 2893.71 469.778  60
   6  -1  -3 2215.12 440.548  58
   6  -1  -3 2826.27 396.452  55
  -1  -5  -2 551.945 267.826  20
  -1  -5  -2 285.417 229.468  34
   6  -1  -2 954.916 325.173  60
   6  -1  -2 29.7618 132.394  58
   6  -1  -2 620.014 207.698  55
  -1  -5  -1 23416.1 1509.39  20
  -1  -5  -1 23194.2 1425.05  33
   6  -1  -1 28305.6 1585.60  60
   6  -1  -1 28394.7 1545.43  59
   6  -1  -1 28994.7 1892.91  58
   6  -1  -1 23809.9 1426.86  56
  -1  -5   0 16799.5 1149.56  46
  -1  -5   0 18257.1 1224.42  33
   6  -1   0 19745.1 1245.87  59
  -1  -5   0 17620.8 1197.48  32
   6  -1   0 18463.8 1280.26  56
  -1  -5   1 11340.7 950.953  46
   6  -1   1 11757.3 886.556  59
  -1  -5   1 10647.8 889.336  33
  -1  -5   1 11007.7 955.887  32
   6  -1   1 10313.8 945.153  56
   6  -1   1 11804.0 1127.22  54
   6  -1   1 11323.1 998.081  53
   6  -1   2 112565. 3305.20  51
  -1  -5   2 110838. 3373.63  46
  -1  -5   2 114386. 3536.58  32
   6  -1   2 118207. 3582.77  56
   6  -1   2 115982. 3550.91  53
   6  -1   3 7542.46 679.789  51
  -1  -5   3 7082.64 628.172  46
  -1  -5   3 7107.91 685.663  32
  -5   6   3 7843.45 671.151  29
   6  -1   3 8713.12 933.763  54
   6  -1   4-46.1488 91.7218  51
  -5   6   4 216.691 156.613  30
   6  -1   4 20.4791 96.5816  54
   0  -6  -3 2063.12 354.295  22
   0  -6  -3 1706.62 350.783  34
   6   0  -3 2269.35 387.552  60
   6   0  -3 2314.18 426.840  58
   6   0  -3 1862.22 279.765  55
   0  -6  -2 113094. 3568.70  34
   6   0  -2 118950. 3601.74  60
   6   0  -2 123426. 4053.89  58
   6   0  -2 111656. 3342.01  56
   0  -6  -1 7935.60 750.587  23
   0  -6  -1 7357.39 790.939  20
   6   0  -1 8000.75 819.851  60
   6   0  -1 9022.33 1021.05  58
   6   0  -1 7691.48 810.635  56
   0  -6   0 8814.08 816.895  33
   6   0   0 8338.23 864.261  56
   0  -6   1 50358.8 1989.02  33
   0  -6   1 54159.3 2198.49  32
   6   0   1 54916.2 2274.83  56
   6   0   1 52024.4 2144.23  53
   6   0   2 4406.60 528.796  51
   0  -6   2 4528.63 563.374  24
   0  -6   2 4194.99 539.848  32
   6   0   2 4090.57 545.722  56
   6   0   2 5145.34 676.351  54
   6   0   2 4681.74 536.726  53
   6   0   3 14822.2 888.553  51
   0  -6   3 14323.1 953.240  24
   0  -6   3 13878.1 850.847  32
   6   0   3 16981.9 1156.56  54
   1  -7  -3 7821.10 564.062  22
   6   1  -3 8179.17 634.403  58
   1  -7  -2 7816.76 710.272  22
   6   1  -2 7958.22 691.537  60
   6   1  -2 8440.40 800.647  58
   6   1  -2 6672.00 611.927  56
   1  -7  -1 2831.79 410.775  23
   6   1  -1 3855.58 497.366  60
   6   1  -1 3344.43 536.630  58
   6   1  -1 3766.92 519.065  56
   1  -7   0 92361.5 2875.88  23
   6   1   0 91729.0 2970.60  56
   1  -7   1 397.289 169.084  23
   6   1   1 348.242 176.815  56
   6   1   2 28662.8 1229.30  51
   1  -7   2 30797.8 1365.71  24
   1  -7   2 27712.8 1218.23  23
   6   1   2 30277.0 1290.50  56
   6   1   3 18638.8 819.238  51
   1  -7   3 19285.6 913.569  24
   2  -8  -1 5958.25 469.671  23
   6   2  -1 6341.42 511.172  56
   2  -8   0 18099.9 916.744  23
   6   2   0 18939.3 930.996  56
   2  -8   1 12255.3 688.500  23
   2  -8   1 11342.7 652.635  61
   6   2   1 12367.6 662.584  56
   0   7  -2 46643.7 1463.57  37
   7  -7  -2 44169.4 1413.89  55
   0   7  -1 1634.32 280.072  37
   7  -7  -1 1777.49 272.905  59
   7  -7  -1 1485.63 249.641  55
   0   7   0 13802.2 840.501  37
   7  -7   0 13993.6 847.135  59
   0   7   1 19879.7 949.042  37
   7  -7   1 19965.2 989.204  59
   7  -7   1 20439.4 1070.06  52
   7  -7   2 764.079 187.805  52
   0   7   2 891.874 177.244  38
  -1   7  -3 22971.0 1040.12  39
   7  -6  -3 19632.9 872.303  55
  -1   7  -2 35282.5 1552.95  39
   7  -6  -2 28441.6 1248.90  55
  -1   7  -1 548.973 216.963  39
   7  -6  -1 780.666 213.838  59
   7  -6  -1 494.334 176.183  55
  -1   7   0 89896.6 2492.98  28
  -1   7   0 87749.4 2673.76  37
   7  -6   0 87495.7 2728.75  59
   7  -6   1 3151.50 430.362  59
  -1   7   1 3681.13 423.809  28
   7  -6   1 3432.91 499.346  52
   7  -6   2 7210.29 693.768  52
   7  -6   2 6917.96 547.135  59
  -1   7   2 6921.11 568.167  28
  -6  -1   3 7581.19 545.045  46
  -1   7   3 7789.84 512.015  38
   7  -6   3 6986.26 574.933  52
  -2   7  -3 8536.06 678.772  44
  -2   7  -3 8877.50 710.856  39
  -5  -2  -3 9002.77 840.420  35
   7  -5  -3 7791.12 583.017  55
  -2   7  -2 12747.9 973.904  44
  -2   7  -2 12241.0 940.194  39
   7  -5  -2 10850.9 771.806  59
   7  -5  -2 11437.3 790.708  55
  -2   7  -1 24723.5 1425.92  44
  -2   7  -1 25591.0 1218.96  43
  -2   7  -1 25099.0 1384.39  39
   7  -5  -1 23650.7 1283.26  59
  -2   7   0 42176.3 1685.17  43
   7  -5   0 40003.4 1745.38  59
   7  -5   0 38767.5 2230.31  54
  -2   7   1 7051.91 660.087  28
  -5  -2   1 9549.99 888.166  46
  -2   7   1 7094.56 640.235  43
   7  -5   1 7550.52 689.845  59
   7  -5   1 7106.89 899.277  54
   7  -5   2 6631.02 544.089  51
   7  -5   2 5640.64 737.735  54
  -2   7   2 5745.37 519.377  29
  -2   7   2 6059.98 595.426  28
   7  -5   3 13944.6 741.806  51
  -5  -2   3 14924.0 994.217  48
  -5  -2   3 13374.4 829.149  46
  -5  -2   3 13837.2 884.133  32
  -2   7   3 12311.7 705.318  29
   7  -5   3 12163.7 889.398  54
  -3   7  -3 5479.90 589.383  44
  -3   7  -3 5201.56 552.903  39
  -4  -3  -3 6259.67 667.658  34
   7  -4  -3 5796.56 503.764  55
  -3   7  -2 5017.29 639.961  44
  -4  -3  -2 4767.28 625.658  20
   7  -4  -2 4773.07 532.919  59
   7  -4  -2 4158.72 464.055  55
  -3   7  -1 4290.69 593.728  44
  -4  -3  -1 4753.20 575.648  33
   7  -4  -1 4389.12 537.907  59
  -4  -3   0 40764.4 1793.77  46
  -3   7   0 43122.5 1767.08  43
   7  -4   0 37484.2 1699.13  59
   7  -4   0 40085.3 2270.27  54
   7  -4   0 40492.7 1752.33  53
  -4  -3   1 9048.24 870.631  46
  -3   7   1 7928.09 698.000  43
   7  -4   1 8129.47 718.688  59
  -4  -3   1 9939.29 879.593  32
   7  -4   1 8403.26 999.586  54
   7  -4   1 9528.34 838.229  53
   7  -4   2 55652.0 1893.73  51
  -4  -3   2 63517.0 2381.01  46
  -4  -3   2 65479.7 2434.28  32
   7  -4   2 58768.6 2636.70  54
  -3   7   2 57872.4 2010.25  29
  -3   7   2 58596.6 2106.95  28
   7  -4   3 1673.57 273.142  51
  -4  -3   3 1234.20 261.215  46
  -4  -3   3 1424.80 296.606  32
   7  -4   3 1125.25 301.061  54
  -3   7   3 1177.45 238.184  29
  -3   7   3 1429.02 269.360  28
  -4   7  -3 2532.39 409.374  44
  -3  -4  -3 2760.05 455.716  34
   7  -3  -3 2748.76 397.162  60
   7  -3  -3 2650.56 327.721  55
  -4   7  -2 61957.1 2420.18  44
  -3  -4  -2 57459.2 2387.09  20
  -3  -4  -2 59079.0 2453.67  34
  -3  -4  -2 55795.4 2057.98  33
   7  -3  -2 60665.0 2121.67  59
  -4   7  -1 25407.4 1461.10  44
  -3  -4  -1 24432.7 1375.50  33
   7  -3  -1 26597.4 1384.98  59
   7  -3  -1 25922.7 1377.51  53
  -3  -4   0 2012.82 377.041  46
  -3  -4   0 2424.16 440.869  33
   7  -3   0 1749.62 349.656  59
   7  -3   0 1385.73 412.830  54
   7  -3   0 1285.07 326.500  53
  -3  -4   1 27784.0 1501.47  46
  -4   7   1 26563.1 1301.16  43
   7  -3   1 26188.8 1311.37  59
  -3  -4   1 25922.8 1459.10  32
   7  -3   1 28156.0 1397.17  56
   7  -3   1 25462.2 1724.31  54
   7  -3   1 26872.3 1496.68  53
   7  -3   2 17956.7 984.426  51
  -3  -4   2 18298.5 1160.40  46
  -3  -4   2 20000.9 1242.58  32
   7  -3   2 20001.5 1463.10  54
  -4   7   2 19043.3 1088.53  29
  -4   7   2 18115.2 1060.79  28
   7  -3   3 1679.10 273.202  51
  -3  -4   3 1694.09 295.274  46
  -3  -4   3 1979.06 338.918  32
  -4   7   3 1365.33 276.784  30
  -4   7   3 1615.21 284.890  29
   7  -3   3 1172.71 324.441  54
  -5   7  -3 1769.62 321.661  44
  -2  -5  -3 1903.29 371.228  35
  -2  -5  -3 1664.84 335.781  34
   7  -2  -3 1818.29 310.233  60
   7  -2  -3 2279.89 277.124  55
  -5   7  -2 67931.4 2485.24  44
  -2  -5  -2 70709.3 2624.33  20
  -2  -5  -2 72933.1 2665.59  34
   7  -2  -2 71212.6 2448.36  60
  -2  -5  -1 8097.67 823.322  20
  -2  -5  -1 8328.15 775.834  33
   7  -2  -1 8492.36 768.926  60
  -2  -5   0 16752.2 1076.42  46
  -2  -5   0 15913.9 1109.42  33
   7  -2   0 18754.2 1125.28  59
  -2  -5   0 15906.2 1036.52  32
   7  -2   0 16667.5 1065.74  56
   7  -2   0 16371.5 1166.76  53
  -2  -5   1 4031.11 527.617  46
  -5   7   1 3056.12 405.874  43
   7  -2   1 3799.34 458.979  59
  -2  -5   1 3462.25 486.917  33
  -2  -5   1 3883.25 527.776  32
   7  -2   1 3534.06 495.545  56
   7  -2   1 3076.38 548.116  54
   7  -2   1 3047.58 482.092  53
   7  -2   2 2705.85 363.308  51
  -2  -5   2 2603.03 402.120  46
  -2  -5   2 2346.24 347.917  33
  -2  -5   2 2624.50 420.778  32
   7  -2   2 2665.15 416.734  56
   7  -2   2 2493.98 495.082  54
  -5   7   2 2412.75 374.119  29
   7  -2   2 2791.37 438.286  53
   7  -2   3 9347.68 626.130  51
  -2  -5   3 8491.17 590.715  46
  -2  -5   3 9318.77 688.822  24
  -2  -5   3 9232.09 675.910  32
   7  -2   3 10148.7 863.299  54
  -5   7   3 10730.0 679.834  29
   7  -1  -3 16190.5 830.080  60
  -6   7  -2 10801.9 767.234  44
  -1  -6  -2 11181.1 849.106  34
   7  -1  -2 11965.9 832.551  60
  -1  -6  -1 8429.69 667.408  23
  -1  -6  -1 9051.25 810.766  20
   7  -1  -1 8371.26 713.664  60
   7  -1  -1 9271.11 728.845  56
  -1  -6   0 188478. 4599.17  20
  -1  -6   0 185807. 4592.76  33
   7  -1   0 193936. 4660.66  56
  -1  -6   1 5666.40 564.147  33
  -1  -6   1 5738.12 608.029  32
   7  -1   1 5744.34 615.346  56
   7  -1   1 5843.34 624.926  53
   7  -1   2 13371.6 762.797  51
  -1  -6   2 13820.0 891.190  32
   7  -1   2 15022.3 918.870  56
   7  -1   2 12952.4 958.878  54
  -6   7   2 14775.0 832.015  29
   7  -1   2 16406.9 927.838  53
   7  -1   3 10583.0 584.349  51
  -1  -6   3 10662.3 621.786  32
  -6   7   3 12238.7 792.692  30
   7  -1   3 11719.4 781.648  54
   0  -7  -2 764.348 189.812  22
   7   0  -2 718.343 169.423  60
   0  -7  -1 19172.5 912.895  23
   7   0  -1 18013.1 893.736  60
   7   0  -1 20919.5 1006.58  56
   0  -7   0 14039.5 847.149  23
   7   0   0 13739.9 865.422  56
   7   0   0 13071.0 840.668  53
   0  -7   1 1572.57 279.458  23
   7   0   1 1439.29 268.919  56
   7   0   1 1444.17 251.513  53
   0  -7   2 42235.7 1386.74  23
   7   0   2 50643.4 1510.19  56
  -2   8  -1 13576.2 726.429  37
   8  -6  -1 14535.3 745.799  59
   8  -6   0 20268.0 949.697  59
  -2   8   0 19547.6 859.491  28
   8  -6   1 6132.72 465.068  59
  -2   8   1 5993.62 449.554  28
  -3   8  -2 16534.4 848.622  44
  -5  -3  -2 18152.6 1032.59  34
   8  -5  -2 15917.6 816.748  60
  -3   8  -1 808.192 178.195  43
  -5  -3  -1 725.260 230.358  20
   8  -5  -1 978.046 208.596  59
  -3   8   0 937.328 202.989  43
  -5  -3   0 1540.06 290.923  33
   8  -5   0 1150.25 238.213  59
  -5  -3   1 5487.64 510.984  46
   8  -5   1 4662.56 436.043  59
   8  -5   1 4146.98 581.921  54
  -3   8   1 4697.12 447.148  28
  -5  -3   2 9378.44 613.219  46
   8  -5   2 8615.98 729.058  54
  -3   8   2 9503.59 578.417  28
  -4   8  -2 3561.19 378.544  44
  -4   8  -2 3513.38 325.102  43
  -4  -4  -2 3605.71 441.550  20
  -4  -4  -2 3855.05 484.706  34
   8  -4  -2 4495.44 429.272  60
  -4   8  -1 1097.05 221.869  43
  -4  -4  -1 1109.22 279.085  20
  -4  -4  -1 1100.11 239.794  33
   8  -4  -1 1130.45 234.483  59
  -4   8   0 9146.11 641.269  43
  -4  -4   0 9016.18 731.936  33
   8  -4   0 8009.98 629.470  59
  -4  -4   1 4728.93 485.573  46
  -4   8   1 4746.68 434.360  43
   8  -4   1 4489.54 427.488  59
  -4  -4   1 4819.55 516.344  33
   8  -4   1 4351.36 588.892  54
  -4   8   1 4399.46 416.312  29
  -4   8   1 4020.17 422.276  28
  -4  -4   2 46258.1 1527.77  46
  -4  -4   2 46139.1 1512.76  33
  -4  -4   2 45112.3 1508.37  32
   8  -4   2 41078.6 1770.48  54
  -4   8   2 43209.9 1386.99  29
  -4   8   2 43804.1 1410.75  28
  -5   8  -2 3133.64 306.646  43
  -3  -5  -2 3251.75 412.016  20
  -3  -5  -2 3241.98 411.870  34
   8  -3  -2 3004.36 336.741  60
  -5   8  -1 6347.36 507.352  43
  -3  -5  -1 6836.80 650.312  20
  -3  -5  -1 6884.68 645.689  34
  -3  -5  -1 6259.96 560.451  33
   8  -3  -1 6500.83 533.267  53
  -5   8   0 40097.2 1413.11  43
  -3  -5   0 40161.3 1683.21  20
  -3  -5   0 38935.4 1582.12  33
   8  -3   0 41351.5 1578.15  53
  -5   8   1 7956.92 523.151  43
  -3  -5   1 8069.42 639.742  33
  -3  -5   1 7529.79 589.682  32
   8  -3   1 6974.46 676.239  54
   8  -3   1 9217.24 689.908  53
  -5   8   1 7897.31 548.073  28
  -3  -5   2 507.972 147.242  32
   8  -3   2 452.812 174.880  54
  -5   8   2 542.562 143.130  29
  -6   8  -1 6737.13 458.389  43
  -2  -6  -1 6400.61 561.552  20
   8  -2  -1 6502.27 510.922  53
  -6   8   0 1697.36 228.084  43
  -2  -6   0 1617.75 278.797  20
  -2  -6   0 1587.30 272.246  33
   8  -2   0 1981.04 305.818  53
  -2  -6   1 5988.04 476.397  33
   8  -2   1 6833.28 541.543  53
   0   0   0    0.00    0.00   0
TITL hexa_775 in P3(1)
REM P3(1) (#144 in standard setting)
CELL 1.54184   7.005515   7.005515   5.477362  90.0000  90.0000 120.0000
ZERR    3.00   0.000253   0.000253   0.000210   0.0000   0.0000   0.0000
LATT -1
SYMM -y, x-y, z+1/3
SYMM -x+y,-x, z+2/3
SFAC C H N O
UNIT 6.00 15.00 3.00 6.00
TREF
HKLF 4
END
;
_shelx_hkl_checksum              72476
#END Tags that were not found in dictionaries
loop_
_space_group_symop_operation_xyz
'x, y, z'
'-y, x-y, z+1/3'
'-x+y, -x, z+2/3'
loop_
_atom_site_label
_atom_site_type_symbol
_atom_site_fract_x
_atom_site_fract_y
_atom_site_fract_z
_atom_site_U_iso_or_equiv
_atom_site_adp_type
_atom_site_occupancy
_atom_site_site_symmetry_order
_atom_site_calc_flag
_atom_site_refinement_flags_posn
_atom_site_refinement_flags_adp
O1 O 0.3211(3) -0.1125(3) 0.6881(3) 0.0183(8) Uani 1 1 d . .
O2 O 0.3350(3) 0.2110(3) 0.7206(4) 0.0249(9) Uani 1 1 d . .
N1 N 0.3046(3) -0.1166(4) 0.1997(5) 0.0154(8) Uani 1 1 d . .
H1A H 0.3213 -0.0926 0.0358 0.023 Uiso 1 1 calc R U
H1B H 0.3965 -0.1646 0.2527 0.023 Uiso 1 1 calc R U
H1C H 0.1626 -0.2205 0.2329 0.023 Uiso 1 1 calc R U
C1 C 0.3335(4) 0.0599(5) 0.6005(6) 0.0160(9) Uani 1 1 d . .
C2 C 0.3586(5) 0.0901(4) 0.3254(6) 0.0192(9) Uani 1 1 d . .
H2A H 0.2602 0.1433 0.2651 0.023 Uiso 1 1 calc R U
H2B H 0.5122 0.2035 0.2863 0.023 Uiso 1 1 calc R U
loop_
_atom_site_aniso_label
_atom_site_aniso_U_11
_atom_site_aniso_U_22
_atom_site_aniso_U_33
_atom_site_aniso_U_23
_atom_site_aniso_U_13
_atom_site_aniso_U_12
O1 0.0265(13) 0.0193(14) 0.0127(13) 0.0000(11) -0.0017(11) 0.0141(11)
O2 0.0406(15) 0.0255(15) 0.0164(14) -0.0053(10) -0.0049(9) 0.0224(13)
N1 0.0187(15) 0.0174(14) 0.0107(14) 0.0018(12) 0.0009(12) 0.0095(13)
C1 0.0137(19) 0.0172(19) 0.0161(15) -0.0010(18) -0.0031(15) 0.0070(15)
C2 0.024(2) 0.0150(19) 0.0178(16) -0.0009(12) -0.0002(15) 0.0092(16)
loop_
_atom_type_symbol
_atom_type_description
_atom_type_scat_dispersion_real
_atom_type_scat_dispersion_imag
_atom_type_scat_source
C C 0.0181 0.0091 'International Tables Vol C Tables 4.2.6.8 and 6.1.1.4'
H H 0.0000 0.0000 'International Tables Vol C Tables 4.2.6.8 and 6.1.1.4'
N N 0.0311 0.0180 'International Tables Vol C Tables 4.2.6.8 and 6.1.1.4'
O O 0.0492 0.0322 'International Tables Vol C Tables 4.2.6.8 and 6.1.1.4'
loop_
_geom_angle_atom_site_label_1
_geom_angle_atom_site_label_2
_geom_angle_atom_site_label_3
_geom_angle
C2 N1 H1A 109.5
C2 N1 H1B 109.5
H1A N1 H1B 109.5
C2 N1 H1C 109.5
H1A N1 H1C 109.5
H1B N1 H1C 109.5
O2 C1 O1 125.6(3)
O2 C1 C2 117.1(3)
O1 C1 C2 117.3(3)
N1 C2 C1 111.8(2)
N1 C2 H2A 109.2
C1 C2 H2A 109.2
N1 C2 H2B 109.2
C1 C2 H2B 109.2
H2A C2 H2B 107.9
loop_
_geom_bond_atom_site_label_1
_geom_bond_atom_site_label_2
_geom_bond_distance
O1 C1 1.261(4)
O2 C1 1.242(4)
N1 C2 1.472(4)
N1 H1A 0.9100
N1 H1B 0.9100
N1 H1C 0.9100
C1 C2 1.520(4)
C2 H2A 0.9900
C2 H2B 0.9900
loop_
_geom_torsion_atom_site_label_1
_geom_torsion_atom_site_label_2
_geom_torsion_atom_site_label_3
_geom_torsion_atom_site_label_4
_geom_torsion
O2 C1 C2 N1 -167.1(2)
O1 C1 C2 N1 15.4(4)
