#------------------------------------------------------------------------------
#$Date: 2016-03-26 22:59:10 +0200 (Sat, 26 Mar 2016) $
#$Revision: 180525 $
#$URL: svn://www.crystallography.net/cod/cif/7/21/94/7219471.cif $
#------------------------------------------------------------------------------
#
# This file is available in the Crystallography Open Database (COD),
# http://www.crystallography.net/
#
# All data on this site have been placed in the public domain by the
# contributors.
#
data_7219471
loop_
_publ_author_name
'Safin, Damir A.'
'Tumanov, Nikolay A.'
'Leitch, Alicea A.'
'Brusso, Jaclyn L.'
'Filinchuk, Yaroslav'
'Murugesu, Muralee'
_publ_section_title
;
 Elucidating the elusive crystal structure of
 2,4,6-tris(2-pyrimidyl)-1,3,5-triazine
;
_journal_issue                   10
_journal_name_full               CrystEngComm
_journal_page_first              2190
_journal_paper_doi               10.1039/C5CE00097A
_journal_volume                  17
_journal_year                    2015
_chemical_formula_moiety         'C5 H6 N4'
_chemical_formula_sum            'C5 H6 N4'
_chemical_formula_weight         122.14
_chemical_name_common
; 
pyrimidine-2-carboximidamide
;
_chemical_name_systematic
; 
pyrimidine-2-carboximidamide
;
_space_group_IT_number           2
_symmetry_cell_setting           triclinic
_symmetry_space_group_name_Hall  '-P 1'
_symmetry_space_group_name_H-M   'P -1'
_audit_update_record
;
2014-07-15 deposited with the CCDC.
2015-02-04 downloaded from the CCDC.
;
_cell_angle_alpha                84.431(2)
_cell_angle_beta                 71.913(3)
_cell_angle_gamma                80.163(2)
_cell_formula_units_Z            2
_cell_length_a                   5.55795(14)
_cell_length_b                   7.25941(12)
_cell_length_c                   7.7260(2)
_cell_measurement_temperature    295
_cell_volume                     291.642(13)
_computing_structure_refinement  FULLPROF
_computing_structure_solution    FOX
_diffrn_ambient_temperature      295
_diffrn_radiation_type           synchrotron
_diffrn_radiation_wavelength     0.68884
_diffrn_source                   synchrotron
_exptl_absorpt_correction_type   none
_exptl_crystal_colour            yellow
_exptl_crystal_description       powder
_exptl_crystal_recrystallization_method powder
_pd_char_colour                  yellow
_pd_instr_location               ' ?'
_pd_meas_2theta_range_inc        0.007948
_pd_meas_2theta_range_max        39.50700
_pd_meas_2theta_range_min        4.50180
_pd_meas_number_of_points        4406
_pd_meas_scan_method             fixed
_pd_proc_2theta_range_inc        0.007948
_pd_proc_2theta_range_max        39.5064
_pd_proc_2theta_range_min        4.5012
_pd_proc_ls_pref_orient_corr     ' ?'
_pd_proc_ls_prof_R_factor        6.3926
_pd_proc_ls_prof_wR_expected     0.0733
_pd_proc_ls_prof_wR_factor       6.8328
_pd_proc_number_of_points        4406
_pd_proc_wavelength              0.688840
_pd_spec_mounting                'glass capillary'
_pd_spec_mount_mode              transmission
_pd_spec_shape                   cylinder
_refine_ls_goodness_of_fit_all   93.25
_refine_ls_number_parameters     11
_refine_ls_number_reflns         671
_refine_ls_number_restraints     0
_refine_ls_R_I_factor            16.3048
_refine_ls_shift/su_max          0.01
_cod_data_source_file            c5ce00097a2.cif
_cod_data_source_block           carboximidamide
_cod_depositor_comments
;
The following automatic conversions were performed:

'_symmetry_cell_setting' value 'Triclinic' changed to 'triclinic'
according to
/usr/data/users/saulius/crontab/automatic-downloads/rss-feeds/RSC/lib/dictionaries/cif_core.dic
dictionary named 'cif_core.dic' version 2.4.2 from 2011-04-26.

Automatic conversion script
Id: cif_fix_values 3008 2015-01-20 13:52:24Z robertas 

 Adding full bibliography for 7219470--7219473.cif.
;
_cod_original_cell_volume        291.643(12)
_cod_database_code               7219471
#BEGIN Tags that were not found in dictionaries:
_pd_proc_ls_prof_cr_factor       18.5791
_pd_proc_ls_prof_cwr_factor      23.4274
_pd_proc_ls_prof_cwr_expected    0.2512
_pd_proc_ls_prof_chi2            8694.9746
_pd_proc_ls_prof_echi2           8778.4414
#END Tags that were not found in dictionaries
loop_
_symmetry_equiv_pos_as_xyz
x,y,z
-x,-y,-z
loop_
_atom_site_label
_atom_site_fract_x
_atom_site_fract_y
_atom_site_fract_z
_atom_site_U_iso_or_equiv
_atom_site_occupancy
_atom_site_adp_type
_atom_site_type_symbol
N1 0.2240(6) 0.5879(3) 0.7742(3) 0.0523(6) 1.00000 Uiso N
H12 0.3513(6) 0.5468(3) 0.6842(3) 0.0523(6) 1.00000 Uiso H
H11 0.2361(6) 0.5747(3) 0.8830(3) 0.0523(6) 1.00000 Uiso H
N2 -0.2119(6) 0.6800(3) 0.8822(3) 0.0523(6) 1.00000 Uiso N
H21 -0.3351(6) 0.7399(3) 0.8445(3) 0.0523(6) 1.00000 Uiso H
N3 -0.2087(6) 0.8135(3) 0.5339(3) 0.0523(6) 1.00000 Uiso N
N4 0.2249(6) 0.6840(3) 0.4368(3) 0.0523(6) 1.00000 Uiso N
C1 -0.0026(6) 0.6544(3) 0.7480(3) 0.0523(6) 1.00000 Uiso C
C2 0.0075(6) 0.7253(3) 0.5567(3) 0.0523(6) 1.00000 Uiso C
C3 -0.1959(6) 0.8652(3) 0.3588(3) 0.0523(6) 1.00000 Uiso C
H3 -0.3431(6) 0.9260(3) 0.3328(3) 0.0523(6) 1.00000 Uiso H
C4 0.0228(6) 0.8289(3) 0.2190(3) 0.0523(6) 1.00000 Uiso C
H4 0.0282(6) 0.8649(3) 0.0991(3) 0.0523(6) 1.00000 Uiso H
C5 0.2345(6) 0.7350(3) 0.2614(3) 0.0523(6) 1.00000 Uiso C
H5 0.3867(6) 0.7057(3) 0.1688(3) 0.0523(6) 1.00000 Uiso H
loop_
_atom_type_symbol
_atom_type_scat_Cromer_Mann_a1
_atom_type_scat_Cromer_Mann_b1
_atom_type_scat_Cromer_Mann_a2
_atom_type_scat_Cromer_Mann_b2
_atom_type_scat_Cromer_Mann_a3
_atom_type_scat_Cromer_Mann_b3
_atom_type_scat_Cromer_Mann_a4
_atom_type_scat_Cromer_Mann_b4
_atom_type_scat_Cromer_Mann_c
_atom_type_scat_dispersion_real
_atom_type_scat_dispersion_imag
_atom_type_scat_source
n 12.21260 0.00570 3.13220 9.89330 2.01250 28.99750 1.16630 0.58260 -11.52900
0.00400 0.00300
International_Tables_for_Crystallography_Vol.C(1991)_Tables_6.1.1.4_and_6.1.1.5
h 0.49300 10.51090 0.32291 26.12570 0.14019 3.14236 0.04081 57.79970 0.00304
0.00000 0.00000
International_Tables_for_Crystallography_Vol.C(1991)_Tables_6.1.1.4_and_6.1.1.5
c 2.31000 20.84390 1.02000 10.20750 1.58860 0.56870 0.86500 51.65120 0.21560
0.00200 0.00200
International_Tables_for_Crystallography_Vol.C(1991)_Tables_6.1.1.4_and_6.1.1.5
loop_
_geom_angle_atom_site_label_1
_geom_angle_atom_site_label_2
_geom_angle_atom_site_label_3
_geom_angle
_geom_angle_site_symmetry_1
_geom_angle_site_symmetry_3
H12 N1 H11 120.2(5) 1_555 1_555
H12 N1 C1 119.8(5) 1_555 1_555
H11 N1 C1 119.5(5) 1_555 1_555
H21 N2 C1 110.5(5) 1_555 1_555
C2 N3 C3 114.4(4) 1_555 1_555
C2 N4 C5 116.1(3) 1_555 1_555
N1 C1 N2 122.1(4) 1_555 1_555
N1 C1 C2 115.5(4) 1_555 1_555
N2 C1 C2 121.8(3) 1_555 1_555
N3 C2 N4 128.9(4) 1_555 1_555
N3 C2 C1 116.1(4) 1_555 1_555
N4 C2 C1 114.9(3) 1_555 1_555
N3 C3 H3 118.8(5) 1_555 1_555
N3 C3 C4 122.4(3) 1_555 1_555
H3 C3 C4 118.8(5) 1_555 1_555
C3 C4 H4 121.4(4) 1_555 1_555
C3 C4 C5 117.3(4) 1_555 1_555
H4 C4 C5 121.3(5) 1_555 1_555
N4 C5 C4 120.8(4) 1_555 1_555
N4 C5 H5 119.5(4) 1_555 1_555
C4 C5 H5 119.6(5) 1_555 1_555
loop_
_geom_bond_atom_site_label_1
_geom_bond_atom_site_label_2
_geom_bond_distance
_geom_bond_site_symmetry_2
N1 H12 0.858(3) 1_555
N1 H11 0.859(4) 1_555
N1 C1 1.339(5) 1_555
N2 H21 0.860(4) 1_555
N2 C1 1.295(3) 1_555
N3 C2 1.316(4) 1_555
N3 C3 1.352(3) 1_555
N4 C2 1.282(4) 1_555
N4 C5 1.357(3) 1_555
C1 C2 1.504(3) 1_555
C3 H3 0.931(4) 1_555
C3 C4 1.358(3) 1_555
C4 H4 0.930(3) 1_555
C4 C5 1.371(4) 1_555
C5 H5 0.930(3) 1_555
loop_
_pd_proc_point_id
_pd_proc_2theta_corrected
_pd_proc_intensity_total
_pd_calc_intensity_total
_pd_proc_intensity_bkg_calc
1 4.5012 544(3) 510.5500 510.5500
2 4.5090 545(3) 511.5381 511.5381
3 4.5171 545(3) 512.5388 512.5388
4 4.5250 546(3) 513.5270 513.5270
5 4.5329 548(3) 514.5276 514.5276
6 4.5409 549(3) 515.5158 515.5158
7 4.5489 550(3) 516.5165 516.5165
8 4.5568 551(3) 517.5046 517.5046
9 4.5648 552(3) 523.0104 518.5053
10 4.5726 553(3) 524.0869 519.4935
11 4.5806 553(3) 525.1796 520.4941
12 4.5886 555(3) 526.2615 521.4823
13 4.5965 555(3) 527.3599 522.4830
14 4.6045 556(3) 528.4476 523.4711
15 4.6123 556(3) 529.5383 524.4593
16 4.6203 557(3) 530.6461 525.4599
17 4.6284 557(3) 531.7574 526.4606
18 4.6363 558(3) 532.8583 527.4488
19 4.6442 560(3) 533.9628 528.4370
20 4.6522 560(3) 535.0851 529.4376
21 4.6600 561(3) 536.1974 530.4258
22 4.6681 562(3) 537.3280 531.4265
23 4.6760 564(3) 538.4488 532.4146
24 4.6839 565(3) 539.5884 533.4153
25 4.6919 567(3) 540.7186 534.4034
26 4.6999 567(3) 543.1512 535.4041
27 4.7077 567(3) 544.3163 536.3922
28 4.7158 568(3) 545.5026 537.3929
29 4.7236 568(3) 546.6805 538.3811
30 4.7316 570(3) 547.8802 539.3817
31 4.7396 570(3) 549.0721 540.3699
32 4.7474 570(3) 550.2713 541.3580
33 4.7555 572(3) 551.4938 542.3588
34 4.7634 573(3) 552.7092 543.3469
35 4.7713 575(3) 553.9488 544.3475
36 4.7793 576(3) 555.1821 545.3358
37 4.7873 577(3) 556.4407 546.3364
38 4.7952 578(3) 557.6937 547.3246
39 4.8032 579(3) 558.9733 548.3253
40 4.8110 580(3) 560.2482 549.3134
41 4.8190 581(3) 561.5512 550.3140
42 4.8270 581(3) 562.8506 551.3022
43 4.8349 582(3) 564.1798 552.3029
44 4.8429 581(3) 565.5065 553.2911
45 4.8507 583(3) 566.8478 554.2792
46 4.8587 583(3) 568.2220 555.2798
47 4.8668 583(3) 569.6135 556.2806
48 4.8747 585(3) 571.0051 557.2687
49 4.8826 585(3) 572.4155 558.2569
50 4.8906 587(3) 573.8639 559.2576
51 4.8984 588(3) 575.3156 560.2457
52 4.9065 589(3) 576.8087 561.2464
53 4.9144 590(3) 578.3073 562.2346
54 4.9223 590(3) 579.8511 563.2352
55 4.9303 591(3) 581.4033 564.2234
56 4.9383 592(3) 583.0051 565.2241
57 4.9462 593(3) 584.6185 566.2122
58 4.9542 594(3) 586.2869 567.2129
59 4.9620 594(3) 587.9710 568.2010
60 4.9700 595(3) 589.7162 569.2017
61 4.9780 596(3) 591.4822 570.1899
62 4.9858 596(3) 593.2933 571.1780
63 4.9939 597(3) 595.1776 572.1787
64 5.0017 598(3) 597.0917 573.1669
65 5.0097 599(3) 599.0886 574.1675
66 5.0177 601(3) 601.1235 575.1557
67 5.0257 601(3) 603.2534 576.1564
68 5.0336 602(3) 605.4312 577.1445
69 5.0416 603(3) 607.7189 578.1452
70 5.0494 604(3) 610.0668 579.1333
71 5.0575 605(3) 612.5436 580.1340
72 5.0654 606(3) 615.0963 581.1222
73 5.0733 608(3) 617.8008 582.1228
74 5.0813 609(3) 620.6020 583.1110
75 5.0893 610(3) 623.5844 584.1117
76 5.0971 611(3) 626.6893 585.0998
77 5.1052 613(3) 630.0141 586.1005
78 5.1130 614(3) 633.4956 587.0887
79 5.1210 616(3) 637.1982 588.0768
80 5.1290 617(3) 641.2003 589.0775
81 5.1368 618(3) 645.4335 590.0656
82 5.1449 618(3) 650.0430 591.0663
83 5.1528 619(3) 654.9562 592.0545
84 5.1607 620(3) 660.3494 593.0551
85 5.1687 622(3) 666.1481 594.0433
86 5.1767 623(3) 672.5714 595.0440
87 5.1846 626(3) 679.5447 596.0322
88 5.1926 628(3) 687.3488 597.0328
89 5.2004 630(3) 695.9139 598.0210
90 5.2084 632(3) 705.6128 599.0216
91 5.2164 634(3) 716.3920 600.0098
92 5.2242 636(3) 728.5972 600.9979
93 5.2323 639(3) 742.7102 601.9987
94 5.2401 643(3) 758.7498 602.9868
95 5.2481 647(3) 777.6112 603.9874
96 5.2561 652(3) 799.4484 604.9756
97 5.2641 656(3) 825.6546 605.9763
98 5.2720 663(3) 856.7167 606.9645
99 5.2800 672(3) 895.1638 607.9651
100 5.2878 686(3) 943.1355 608.9532
101 5.2959 712(3) 1009.0190 609.9540
102 5.3038 760(3) 1109.4392 610.9421
103 5.3117 896(3) 1294.7021 611.9427
104 5.3197 1140(3) 1668.4189 612.9310
105 5.3277 1758(4) 2455.2195 613.9316
106 5.3356 3143(6) 3968.9111 614.9198
107 5.3436 5478(8) 6640.4141 615.9205
108 5.3514 8918(10) 10635.2246 616.9086
109 5.3594 13437(12) 15760.5029 617.8968
110 5.3674 17806(14) 21195.2227 618.8975
111 5.3752 20708(15) 25279.0488 619.8856
112 5.3833 21558(15) 26466.3848 620.8863
113 5.3911 19608(14) 24168.6016 621.8745
114 5.3991 15952(13) 19403.7461 622.8751
115 5.4071 11492(11) 13984.8877 623.8633
116 5.4151 7513(9) 9136.4844 624.8640
117 5.4230 4418(7) 5631.1494 625.8521
118 5.4310 2481(5) 3412.3687 626.8528
119 5.4388 1472(4) 2219.8027 627.8409
120 5.4469 1065(3) 1637.6902 628.8416
121 5.4548 953(3) 1399.9683 629.8298
122 5.4627 981(3) 1354.8118 630.8179
123 5.4707 1171(3) 1478.8201 631.8186
124 5.4785 1542(4) 1825.3134 632.8068
125 5.4865 2137(5) 2501.3215 633.8074
126 5.4945 3030(5) 3560.4045 634.7956
127 5.5024 3888(6) 4984.7988 635.7963
128 5.5104 4643(7) 6511.0273 636.7844
129 5.5184 5242(7) 7757.7773 637.7851
130 5.5262 5345(7) 8220.9473 638.7732
131 5.5343 5112(7) 7684.6899 639.7739
132 5.5422 4549(7) 6402.3477 640.7621
133 5.5501 3692(6) 4823.5977 641.7627
134 5.5581 2815(5) 3393.2500 642.7509
135 5.5661 2061(4) 2297.0454 643.7516
136 5.5740 1504(4) 1596.9685 644.7397
137 5.5820 1108(3) 1195.4237 645.7404
138 5.5898 901(3) 992.5305 646.7285
139 5.5978 797(3) 892.9841 647.7167
140 5.6058 740(3) 841.7650 648.7174
141 5.6136 711(3) 812.5253 649.7055
142 5.6217 695(3) 792.4694 650.7062
143 5.6295 685(3) 777.4761 651.6943
144 5.6375 679(3) 765.3063 652.6950
145 5.6455 675(3) 755.4223 653.6832
146 5.6535 672(2) 747.0783 654.6838
147 5.6614 669(2) 740.1479 655.6721
148 5.6694 666(2) 734.2042 656.6727
149 5.6772 665(2) 729.2059 657.6608
150 5.6853 664(2) 724.8754 658.6616
151 5.6932 664(2) 721.2047 659.6497
152 5.7011 665(2) 718.0423 660.6379
153 5.7091 664(2) 715.2816 661.6385
154 5.7169 664(2) 712.9297 662.6267
155 5.7249 663(2) 710.8753 663.6273
156 5.7329 663(2) 709.1275 664.6155
157 5.7408 664(2) 707.6063 665.6162
158 5.7488 664(2) 706.3197 666.6044
159 5.7568 664(2) 705.2097 667.6050
160 5.7646 664(2) 704.2825 668.5931
161 5.7727 664(2) 703.4958 669.5939
162 5.7806 664(2) 702.8535 670.5820
163 5.7885 664(2) 702.3250 671.5826
164 5.7965 665(2) 701.9117 672.5709
165 5.8045 666(2) 701.5925 673.5715
166 5.8124 667(2) 701.3659 674.5597
167 5.8204 667(2) 701.2182 675.5604
168 5.8282 668(2) 701.1456 676.5485
169 5.8362 668(2) 701.1398 677.5367
170 5.8442 668(2) 701.1959 678.5374
171 5.8521 670(2) 701.3076 679.5255
172 5.8601 670(2) 701.4730 680.5262
173 5.8679 671(2) 701.6838 681.5143
174 5.8759 671(2) 701.9420 682.5150
175 5.8839 670(2) 702.2374 683.5032
176 5.8918 671(2) 702.5745 684.5038
177 5.8998 671(2) 702.9423 685.4920
178 5.9078 672(2) 703.3475 686.4927
179 5.9156 673(2) 703.7777 687.4808
180 5.9237 673(2) 704.2418 688.4815
181 5.9316 675(2) 704.7261 689.4696
182 5.9395 675(2) 705.2347 690.4578
183 5.9475 676(2) 705.7729 691.4585
184 5.9553 677(2) 706.3257 692.4466
185 5.9634 677(2) 706.8132 693.3546
186 5.9713 678(2) 707.2014 694.1393
187 5.9792 679(2) 707.6125 694.9340
188 5.9872 680(2) 708.0351 695.7188
189 5.9952 681(2) 708.4789 696.5135
190 6.0030 682(2) 708.9318 697.2982
191 6.0111 683(2) 709.4046 698.0930
192 6.0189 683(2) 709.8846 698.8777
193 6.0269 683(2) 710.3832 699.6724
194 6.0349 684(2) 710.8873 700.4572
195 6.0429 684(2) 711.4091 701.2518
196 6.0508 685(2) 711.9348 702.0366
197 6.0588 686(2) 712.4773 702.8313
198 6.0666 686(2) 713.0224 703.6160
199 6.0746 687(2) 713.5765 704.4008
200 6.0826 688(2) 714.1462 705.1955
201 6.0905 688(2) 714.7170 705.9803
202 6.0985 689(2) 715.3027 706.7750
203 6.1063 690(2) 715.8885 707.5597
204 6.1143 691(2) 716.4888 708.3544
205 6.1223 692(2) 717.0883 709.1392
206 6.1302 693(2) 717.7017 709.9338
207 6.1382 694(2) 718.3137 710.7186
208 6.1462 695(2) 718.9391 711.5133
209 6.1540 696(2) 719.5624 712.2980
210 6.1621 697(2) 720.1989 713.0928
211 6.1700 697(2) 720.8324 713.8775
212 6.1779 699(2) 721.4708 714.6623
213 6.1859 699(2) 722.1220 715.4570
214 6.1937 700(2) 722.7695 716.2417
215 6.2018 701(2) 723.4295 717.0364
216 6.2097 701(2) 719.6953 717.8212
217 6.2176 703(2) 720.4470 718.6158
218 6.2256 703(2) 721.1907 719.4006
219 6.2336 704(2) 721.9451 720.1953
220 6.2414 705(2) 722.6915 720.9800
221 6.2495 706(2) 723.4485 721.7747
222 6.2573 708(2) 724.1974 722.5594
223 6.2653 708(2) 724.9569 723.3542
224 6.2733 709(2) 725.7079 724.1389
225 6.2812 709(2) 726.4696 724.9336
226 6.2892 709(2) 727.2228 725.7184
227 6.2970 710(2) 727.9769 726.5031
228 6.3050 711(2) 728.7415 727.2978
229 6.3130 713(2) 729.4974 728.0826
230 6.3210 713(2) 730.2638 728.8773
231 6.3289 715(2) 731.0215 729.6620
232 6.3369 716(2) 731.7895 730.4567
233 6.3447 717(2) 732.5486 731.2415
234 6.3528 718(2) 733.3182 732.0362
235 6.3607 719(2) 732.8209 732.8209
236 6.3686 719(2) 733.6156 733.6156
237 6.3766 720(2) 734.4004 734.4004
238 6.3846 721(2) 735.1951 735.1951
239 6.3924 721(2) 735.9798 735.9798
240 6.4005 721(2) 736.7745 736.7745
241 6.4083 722(2) 737.5593 737.5593
242 6.4163 723(2) 738.3539 738.3539
243 6.4243 725(2) 739.1387 739.1387
244 6.4321 727(2) 739.9235 739.9235
245 6.4402 729(2) 740.7182 740.7182
246 6.4481 730(2) 741.5029 741.5029
247 6.4560 731(2) 742.2976 742.2976
248 6.4640 732(2) 743.0824 743.0824
249 6.4720 733(2) 743.8771 743.8771
250 6.4799 735(2) 744.6619 744.6619
251 6.4879 736(2) 745.4565 745.4565
252 6.4957 737(2) 746.2413 746.2413
253 6.5037 737(2) 747.0359 747.0359
254 6.5117 738(2) 747.8207 747.8207
255 6.5196 738(2) 748.6154 748.6154
256 6.5276 738(2) 749.4002 749.4002
257 6.5354 738(2) 750.1849 750.1849
258 6.5434 739(2) 750.9796 750.9796
259 6.5514 742(2) 751.7644 751.7644
260 6.5594 743(2) 752.5591 752.5591
261 6.5673 745(2) 753.3438 753.3438
262 6.5753 745(2) 754.1385 754.1385
263 6.5831 745(2) 754.9232 754.9232
264 6.5912 746(2) 755.7180 755.7180
265 6.5991 747(2) 756.5027 756.5027
266 6.6070 749(2) 757.2974 757.2974
267 6.6150 752(2) 758.0822 758.0822
268 6.6230 753(2) 758.8768 758.8768
269 6.6308 755(2) 759.6616 759.6616
270 6.6389 756(2) 760.4563 760.4563
271 6.6467 758(2) 761.3660 761.2410
272 6.6547 759(2) 762.1630 762.0357
273 6.6627 760(2) 762.9501 762.8205
274 6.6705 761(2) 769.1466 763.6052
275 6.6786 762(2) 770.0424 764.4000
276 6.6865 763(2) 770.9297 765.1847
277 6.6944 764(2) 771.8311 765.9794
278 6.7024 764(2) 772.7241 766.7642
279 6.7104 765(2) 773.6316 767.5588
280 6.7183 766(2) 774.5309 768.3436
281 6.7263 767(2) 775.4448 769.1383
282 6.7341 769(2) 776.3508 769.9230
283 6.7422 770(2) 777.2719 770.7178
284 6.7501 772(2) 778.1851 771.5025
285 6.7580 773(2) 779.1138 772.2972
286 6.7660 773(2) 780.0349 773.0820
287 6.7738 775(2) 780.9600 773.8667
288 6.7818 777(2) 781.9012 774.6614
289 6.7899 778(2) 782.8472 775.4561
290 6.7977 779(2) 783.7859 776.2408
291 6.8057 779(2) 784.7295 777.0256
292 6.8137 780(2) 785.6902 777.8203
293 6.8215 781(2) 786.6442 778.6050
294 6.8296 782(2) 787.6160 779.3998
295 6.8375 783(2) 788.5813 780.1845
296 6.8454 784(2) 789.5649 780.9792
297 6.8534 786(2) 790.5427 781.7639
298 6.8614 788(2) 791.5396 782.5587
299 6.8693 790(2) 792.5308 783.3434
300 6.8773 791(2) 793.5420 784.1381
301 6.8851 793(2) 794.5482 784.9229
302 6.8931 794(2) 795.5751 785.7175
303 6.9011 794(2) 796.5976 786.5023
304 6.9089 795(2) 797.6287 787.2870
305 6.9170 796(2) 798.6822 788.0817
306 6.9248 797(2) 799.7321 788.8665
307 6.9328 799(2) 800.8056 789.6611
308 6.9408 801(2) 801.8765 790.4459
309 6.9488 803(2) 802.9721 791.2406
310 6.9567 804(2) 804.0660 792.0254
311 6.9647 805(2) 805.9842 792.8201
312 6.9725 807(2) 807.1178 793.6048
313 6.9806 808(2) 808.2803 794.3995
314 6.9885 810(2) 809.4432 795.1843
315 6.9964 812(2) 810.8628 795.9789
316 7.0044 814(2) 812.0624 796.7637
317 7.0122 817(2) 813.2797 797.5485
318 7.0202 818(2) 814.5315 798.3431
319 7.0283 819(2) 815.8038 799.1379
320 7.0361 821(2) 817.0814 799.9226
321 7.0441 822(2) 818.3813 800.7074
322 7.0521 824(2) 819.7219 801.5021
323 7.0599 826(2) 821.0712 802.2868
324 7.0680 828(2) 822.4651 803.0815
325 7.0759 830(2) 823.8702 803.8663
326 7.0838 832(2) 825.3243 804.6609
327 7.0918 834(2) 826.7932 805.4457
328 7.0998 835(2) 828.3160 806.2404
329 7.1077 836(2) 829.8575 807.0252
330 7.1157 839(2) 831.4590 807.8199
331 7.1235 839(2) 833.0837 808.6046
332 7.1315 841(2) 834.7759 809.3993
333 7.1395 843(2) 836.4967 810.1841
334 7.1473 844(2) 838.2708 810.9688
335 7.1554 846(2) 840.1259 811.7635
336 7.1632 848(2) 842.0201 812.5483
337 7.1712 850(2) 844.0067 813.3430
338 7.1792 852(2) 846.0414 814.1277
339 7.1872 854(2) 848.1824 814.9224
340 7.1951 856(2) 850.3827 815.7072
341 7.2031 857(2) 852.7058 816.5018
342 7.2109 859(2) 855.1023 817.2866
343 7.2190 861(2) 857.6425 818.0813
344 7.2269 863(2) 860.2733 818.8661
345 7.2348 866(2) 863.0735 819.6608
346 7.2428 867(2) 865.9867 820.4455
347 7.2506 869(2) 869.0617 821.2302
348 7.2587 871(2) 872.3582 822.0250
349 7.2667 873(2) 875.8579 822.8196
350 7.2745 875(2) 879.5356 823.6044
351 7.2825 877(2) 883.4589 824.3892
352 7.2905 879(2) 887.7113 825.1838
353 7.2983 883(2) 892.2197 825.9686
354 7.3064 885(2) 897.1381 826.7633
355 7.3142 888(2) 902.3873 827.5480
356 7.3222 891(2) 908.1539 828.3427
357 7.3302 893(2) 914.3550 829.1275
358 7.3382 897(2) 921.2201 829.9222
359 7.3461 900(2) 928.6636 830.7070
360 7.3541 904(2) 936.9763 831.5016
361 7.3619 907(2) 946.0723 832.2864
362 7.3700 911(2) 956.3318 833.0811
363 7.3779 916(2) 967.6752 833.8658
364 7.3858 921(2) 980.6123 834.6605
365 7.3938 929(2) 995.0894 835.4453
366 7.4016 936(2) 1011.5884 836.2300
367 7.4096 944(2) 1030.7848 837.0247
368 7.4176 953(2) 1052.7355 837.8095
369 7.4255 964(2) 1080.2480 840.1497
370 7.4335 978(2) 1112.1946 842.6071
371 7.4415 998(2) 1150.6086 845.0955
372 7.4493 1025(2) 1196.7239 847.5527
373 7.4574 1066(2) 1255.9169 850.0413
374 7.4653 1134(2) 1335.5137 852.4985
375 7.4732 1250(3) 1457.7568 854.9869
376 7.4812 1456(3) 1663.7511 857.4443
377 7.4892 1861(3) 2051.7959 859.9327
378 7.4971 2554(4) 2782.1333 862.3901
379 7.5050 3889(4) 4126.3149 864.8473
380 7.5129 6028(6) 6467.3379 867.3357
381 7.5209 9468(7) 10064.6465 869.7931
382 7.5289 14221(9) 15086.0117 872.2815
383 7.5367 19385(10) 21007.3926 874.7388
384 7.5448 24938(11) 26970.3301 877.2273
385 7.5526 28661(12) 31330.9062 879.6845
386 7.5606 29960(12) 32650.5723 882.1729
387 7.5686 28441(12) 30324.7773 884.6303
388 7.5766 23777(11) 25220.5703 887.1187
389 7.5845 17774(9) 19092.2852 889.5761
390 7.5925 12096(8) 13234.7227 892.0645
391 7.6003 7315(6) 8639.1084 894.5217
392 7.6084 4332(5) 5430.6675 897.0103
393 7.6163 2639(4) 3499.5977 899.4675
394 7.6242 1849(3) 2423.5056 901.9559
395 7.6322 1464(3) 1879.5161 904.4133
396 7.6400 1247(2) 1605.0803 906.8705
397 7.6481 1147(2) 1457.4417 909.3591
398 7.6560 1097(2) 1370.0302 911.8163
399 7.6639 1066(2) 1309.4106 914.3047
400 7.6719 1047(2) 1264.5389 916.7621
401 7.6799 1034(2) 1228.8970 919.2505
402 7.6877 1024(2) 1200.7991 921.7078
403 7.6958 1018(2) 1177.9875 924.1963
404 7.7036 1014(2) 1160.0106 926.6536
405 7.7116 1013(2) 1145.6644 929.1420
406 7.7196 1011(2) 1134.7798 931.5994
407 7.7276 1011(2) 1126.7103 934.0877
408 7.7355 1012(2) 1121.4319 936.5451
409 7.7435 1015(2) 1118.7255 939.0335
410 7.7513 1021(2) 1118.7646 941.4907
411 7.7593 1032(2) 1121.9730 943.9481
412 7.7673 1046(2) 1129.8363 946.4365
413 7.7752 1070(2) 1145.7075 948.8939
414 7.7832 1112(2) 1178.5156 951.3823
415 7.7910 1188(2) 1244.9950 953.8396
416 7.7990 1327(3) 1378.9821 956.3279
417 7.8070 1562(3) 1624.3433 958.7853
418 7.8149 1943(3) 2042.7000 961.2737
419 7.8229 2466(3) 2662.6497 963.7311
420 7.8309 3073(4) 3489.8259 966.2195
421 7.8387 3716(4) 4416.5518 968.6768
422 7.8468 4234(4) 5294.0591 971.1653
423 7.8547 4651(5) 5881.6333 973.6226
424 7.8626 4879(5) 6025.4751 976.0800
425 7.8706 4884(5) 5728.5503 978.5684
426 7.8784 4704(5) 5161.1914 981.0256
427 7.8865 4269(4) 4485.7983 983.5142
428 7.8944 3753(4) 3823.1296 985.9714
429 7.9023 3255(4) 3197.6082 988.4598
430 7.9103 2741(4) 2646.8718 990.9172
431 7.9183 2293(3) 2177.1699 993.4056
432 7.9261 1905(3) 1810.5754 995.8628
433 7.9342 1570(3) 1537.2294 998.3513
434 7.9420 1347(2) 1353.7734 1000.8086
435 7.9500 1212(2) 1237.5192 1003.2970
436 7.9580 1140(2) 1170.8574 1005.7544
437 7.9660 1101(2) 1133.5422 1008.2428
438 7.9739 1079(2) 1113.3007 1010.7002
439 7.9819 1067(2) 1101.4520 1013.1885
440 7.9897 1061(2) 1094.0542 1015.6458
441 7.9977 1057(2) 1088.9315 1018.1032
442 8.0056 1055(2) 1085.1454 1020.5916
443 8.0135 1054(2) 1082.3647 1023.0490
444 8.0215 1053(2) 1080.2876 1025.5372
445 8.0294 1053(2) 1078.8198 1027.9946
446 8.0374 1054(2) 1077.8184 1030.4832
447 8.0453 1056(2) 1077.2280 1032.9403
448 8.0533 1057(2) 1076.9692 1035.4288
449 8.0612 1059(2) 1076.9977 1037.8862
450 8.0692 1061(2) 1077.2722 1040.3744
451 8.0771 1062(2) 1077.7524 1042.8318
452 8.0851 1064(2) 1078.4220 1045.3203
453 8.0931 1066(2) 1079.2411 1047.7777
454 8.1010 1068(2) 1080.2104 1050.2660
455 8.1089 1069(2) 1081.2898 1052.7234
456 8.1168 1072(2) 1082.4764 1055.1808
457 8.1248 1074(2) 1083.7754 1057.6691
458 8.1327 1075(2) 1085.1442 1060.1265
459 8.1407 1077(2) 1086.6083 1062.6150
460 8.1486 1078(2) 1088.1232 1065.0720
461 8.1566 1079(2) 1089.7209 1067.5605
462 8.1645 1082(2) 1091.3557 1070.0181
463 8.1725 1084(2) 1093.0631 1072.5062
464 8.1804 1087(2) 1094.7965 1074.9636
465 8.1884 1089(2) 1096.5956 1077.4521
466 8.1963 1092(2) 1098.4114 1079.9093
467 8.2043 1094(2) 1100.2872 1082.3978
468 8.2122 1095(2) 1102.1732 1084.8552
469 8.2201 1098(2) 1104.0898 1087.3126
470 8.2281 1100(2) 1106.0594 1089.8008
471 8.2360 1102(2) 1108.0314 1092.2583
472 8.2441 1103(2) 1110.0532 1094.7468
473 8.2519 1105(2) 1112.0725 1097.2039
474 8.2599 1107(2) 1114.1394 1099.6924
475 8.2678 1110(2) 1116.2006 1102.1498
476 8.2758 1113(2) 1118.3066 1104.6381
477 8.2837 1115(2) 1120.4042 1107.0955
478 8.2917 1117(2) 1122.5452 1109.5840
479 8.2996 1119(2) 1124.6746 1112.0410
480 8.3076 1121(2) 1126.8463 1114.5297
481 8.3155 1124(2) 1129.0046 1116.9871
482 8.3235 1126(2) 1131.2035 1119.4753
483 8.3314 1128(2) 1133.3875 1121.9326
484 8.3393 1130(2) 1135.5833 1124.3900
485 8.3473 1133(2) 1137.8180 1126.8783
486 8.3552 1137(2) 1140.0359 1129.3357
487 8.3632 1139(2) 1142.2922 1131.8242
488 8.3712 1140(2) 1144.5302 1134.2816
489 8.3791 1143(2) 1146.8058 1136.7699
490 8.3870 1144(2) 1149.0623 1139.2273
491 8.3951 1146(2) 1151.3562 1141.7158
492 8.4029 1148(2) 1153.6296 1144.1729
493 8.4109 1151(2) 1155.9404 1146.6614
494 8.4188 1154(2) 1158.2305 1149.1189
495 8.4268 1156(2) 1160.4340 1151.6071
496 8.4347 1158(2) 1162.7415 1154.0645
497 8.4427 1161(2) 1165.0858 1156.5530
498 8.4506 1163(2) 1167.4078 1159.0101
499 8.4586 1166(2) 1164.4734 1161.4987
500 8.4665 1168(2) 1166.9021 1163.9561
501 8.4744 1170(2) 1169.3356 1166.4131
502 8.4824 1173(2) 1171.8053 1168.9016
503 8.4903 1175(2) 1174.2496 1171.3591
504 8.4983 1178(2) 1176.7302 1173.8473
505 8.5062 1180(2) 1179.1860 1176.3047
506 8.5142 1182(2) 1181.6794 1178.7932
507 8.5222 1184(2) 1184.1486 1181.2506
508 8.5301 1187(2) 1186.6562 1183.7389
509 8.5380 1189(2) 1189.1410 1186.1963
510 8.5460 1192(2) 1191.6663 1188.6846
511 8.5539 1195(2) 1194.1703 1191.1418
512 8.5619 1196(2) 1196.7180 1193.6305
513 8.5698 1199(2) 1199.2471 1196.0879
514 8.5778 1199(2) 1201.8240 1198.5762
515 8.5857 1202(2) 1204.3892 1201.0334
516 8.5936 1204(2) 1206.9829 1203.4908
517 8.6016 1206(2) 1209.6548 1205.9791
518 8.6095 1209(2) 1212.3700 1208.4365
519 8.6175 1212(2) 1215.2521 1210.9250
520 8.6254 1214(2) 1218.3079 1213.3822
521 8.6334 1218(2) 1221.7092 1215.8707
522 8.6413 1221(2) 1225.4415 1218.3281
523 8.6493 1224(2) 1229.5966 1220.8164
524 8.6572 1227(2) 1233.9486 1223.2737
525 8.6652 1231(2) 1238.3484 1225.7622
526 8.6732 1235(2) 1242.3491 1228.2197
527 8.6811 1240(2) 1245.7911 1230.7079
528 8.6890 1246(2) 1248.6902 1233.1653
529 8.6969 1252(2) 1251.7102 1235.6227
530 8.7049 1263(2) 1256.0872 1238.1110
531 8.7128 1280(2) 1263.6453 1240.5684
532 8.7208 1308(2) 1277.6476 1243.0569
533 8.7287 1357(2) 1301.9397 1245.5139
534 8.7367 1429(2) 1341.8928 1248.0024
535 8.7446 1524(2) 1399.7233 1250.4600
536 8.7526 1648(2) 1475.7710 1252.9481
537 8.7605 1775(3) 1559.4126 1255.4055
538 8.7685 1883(3) 1638.6105 1257.8940
539 8.7764 1954(3) 1690.1156 1260.3512
540 8.7844 1960(3) 1697.6543 1262.8397
541 8.7923 1907(3) 1659.0363 1265.2971
542 8.8003 1814(3) 1588.3706 1267.7854
543 8.8082 1693(3) 1508.5555 1270.2428
544 8.8161 1575(2) 1435.2993 1272.7002
545 8.8241 1473(2) 1377.4406 1275.1884
546 8.8321 1400(2) 1338.3416 1277.6770
547 8.8400 1350(2) 1315.4902 1280.1343
548 8.8479 1319(2) 1303.6993 1282.5917
549 8.8559 1302(2) 1298.6016 1285.0800
550 8.8638 1294(2) 1297.1895 1287.5374
551 8.8719 1290(2) 1297.5443 1290.0259
552 8.8797 1288(2) 1297.5953 1291.3634
553 8.8877 1288(2) 1296.1912 1290.8657
554 8.8956 1288(2) 1295.0148 1290.3741
555 8.9036 1289(2) 1293.9579 1289.8765
556 8.9115 1292(2) 1293.0088 1289.3849
557 8.9195 1293(2) 1292.1216 1288.8872
558 8.9274 1295(2) 1291.3035 1288.3956
559 8.9354 1296(2) 1290.5225 1287.8979
560 8.9433 1297(2) 1289.7894 1287.4064
561 8.9513 1297(2) 1289.0796 1286.9087
562 8.9592 1298(2) 1288.4048 1286.4171
563 8.9671 1300(2) 1287.7523 1285.9257
564 8.9751 1303(2) 1287.1105 1285.4280
565 8.9830 1304(2) 1286.4927 1284.9364
566 8.9910 1306(2) 1285.8809 1284.4386
567 8.9990 1308(2) 1285.2887 1283.9471
568 9.0069 1308(2) 1284.6993 1283.4495
569 9.0148 1309(2) 1284.1261 1282.9579
570 9.0229 1311(2) 1283.5535 1282.4601
571 9.0307 1312(2) 1282.9949 1281.9686
572 9.0387 1314(2) 1282.4352 1281.4708
573 9.0466 1316(2) 1281.8881 1280.9794
574 9.0546 1317(2) 1281.3386 1280.4817
575 9.0625 1319(2) 1280.8048 1279.9901
576 9.0704 1320(2) 1280.2701 1279.4985
577 9.0784 1322(2) 1279.7323 1279.0009
578 9.0863 1322(2) 1279.2042 1278.5094
579 9.0943 1323(2) 1278.6720 1278.0116
580 9.1022 1325(2) 1278.1492 1277.5201
581 9.1102 1327(2) 1277.6217 1277.0223
582 9.1181 1329(2) 1277.1030 1276.5309
583 9.1261 1330(2) 1276.5796 1276.0331
584 9.1340 1331(2) 1276.0645 1275.5416
585 9.1420 1332(2) 1275.5443 1275.0438
586 9.1500 1332(2) 1275.0321 1274.5524
587 9.1579 1333(2) 1274.5146 1274.0546
588 9.1658 1334(2) 1274.0050 1273.5631
589 9.1737 1336(2) 1273.4962 1273.0715
590 9.1817 1336(2) 1272.9822 1272.5739
591 9.1896 1338(2) 1272.4755 1272.0823
592 9.1976 1340(2) 1271.9633 1271.5846
593 9.2055 1341(2) 1271.4583 1271.0931
594 9.2135 1344(2) 1270.9475 1270.5953
595 9.2214 1345(2) 1270.4438 1270.1038
596 9.2294 1346(2) 1269.9346 1269.6061
597 9.2373 1348(2) 1269.4321 1269.1145
598 9.2453 1350(2) 1268.9241 1268.6168
599 9.2532 1352(2) 1268.4229 1268.1254
600 9.2612 1354(2) 1267.9156 1267.6276
601 9.2691 1356(2) 1267.4153 1267.1360
602 9.2771 1358(2) 1266.9091 1266.6383
603 9.2850 1359(2) 1266.4097 1266.1469
604 9.2929 1358(2) 1265.9105 1265.6553
605 9.3010 1359(2) 1265.4054 1265.1575
606 9.3089 1360(2) 1264.9006 1264.6598
607 9.3168 1358(2) 1264.4026 1264.1683
608 9.3247 1359(2) 1263.9048 1263.6768
609 9.3327 1359(2) 1263.4010 1263.1791
610 9.3406 1359(2) 1262.9037 1262.6875
611 9.3486 1359(2) 1262.4003 1262.1897
612 9.3565 1360(2) 1261.9036 1261.6982
613 9.3645 1360(2) 1261.4009 1261.2006
614 9.3724 1360(2) 1260.9045 1260.7090
615 9.3804 1360(2) 1260.4022 1260.2113
616 9.3883 1360(2) 1259.9062 1259.7197
617 9.3963 1359(2) 1259.4043 1259.2220
618 9.4042 1359(2) 1258.9087 1258.7305
619 9.4122 1359(2) 1258.4071 1258.2328
620 9.4201 1359(2) 1257.9304 1257.7412
621 9.4281 1358(2) 1257.4294 1257.2435
622 9.4360 1359(2) 1256.9348 1256.7520
623 9.4439 1360(2) 1256.4404 1256.2605
624 9.4519 1359(2) 1255.9401 1255.7628
625 9.4598 1359(2) 1255.4458 1255.2712
626 9.4678 1360(2) 1254.9456 1254.7734
627 9.4757 1359(2) 1254.4518 1254.2820
628 9.4837 1360(2) 1253.9518 1253.7843
629 9.4916 1361(2) 1253.4581 1253.2927
630 9.4997 1361(2) 1252.9584 1252.7949
631 9.5075 1362(2) 1252.4651 1252.3035
632 9.5155 1362(2) 1251.9656 1251.8057
633 9.5234 1363(2) 1251.4725 1251.3142
634 9.5314 1363(2) 1250.9734 1250.8165
635 9.5393 1363(2) 1250.4805 1250.3250
636 9.5472 1363(2) 1249.9877 1249.8334
637 9.5552 1362(2) 1249.4889 1249.3357
638 9.5631 1361(2) 1249.0227 1248.8442
639 9.5711 1360(2) 1248.5244 1248.3464
640 9.5791 1361(2) 1248.0326 1247.8549
641 9.5870 1362(2) 1247.5347 1247.3572
642 9.5949 1362(2) 1247.0432 1246.8657
643 9.6029 1363(2) 1246.5442 1246.3679
644 9.6108 1363(2) 1246.0530 1245.8765
645 9.6188 1362(2) 1245.5555 1245.3787
646 9.6267 1362(2) 1245.0646 1244.8872
647 9.6347 1363(2) 1244.5675 1244.3894
648 9.6426 1362(2) 1244.0769 1243.8979
649 9.6505 1362(2) 1243.5863 1243.4064
650 9.6585 1361(2) 1243.0898 1242.9087
651 9.6664 1360(2) 1242.5996 1242.4171
652 9.6744 1360(2) 1242.1035 1241.9194
653 9.6823 1360(2) 1241.6138 1241.4280
654 9.6903 1360(2) 1241.1179 1240.9302
655 9.6982 1360(2) 1240.6285 1240.4386
656 9.7062 1357(2) 1240.0583 1239.9409
657 9.7141 1356(2) 1239.5709 1239.4495
658 9.7221 1355(2) 1239.0773 1238.9517
659 9.7300 1355(2) 1238.5903 1238.4602
660 9.7380 1356(2) 1238.0973 1237.9624
661 9.7459 1356(2) 1237.6107 1237.4708
662 9.7539 1356(2) 1237.1185 1236.9731
663 9.7618 1357(2) 1236.6329 1236.4817
664 9.7697 1356(2) 1236.1476 1235.9901
665 9.7778 1356(2) 1235.6566 1235.4923
666 9.7857 1356(2) 1235.1664 1234.9946
667 9.7936 1356(2) 1234.6830 1234.5032
668 9.8015 1356(2) 1234.2001 1234.0116
669 9.8095 1356.0(20) 1234.0040 1233.5139
670 9.8174 1354.0(20) 1233.5277 1233.0223
671 9.8254 1352.1(20) 1233.0468 1232.5247
672 9.8333 1350.9(20) 1232.5731 1232.0331
673 9.8413 1348.8(20) 1232.0952 1231.5354
674 9.8492 1347.0(20) 1231.6251 1231.0438
675 9.8572 1346.5(20) 1231.1514 1230.5461
676 9.8651 1344.9(20) 1230.6862 1230.0546
677 9.8731 1343.9(20) 1230.2184 1229.5569
678 9.8810 1344.0(20) 1229.7604 1229.0654
679 9.8890 1342.2(20) 1229.3013 1228.5676
680 9.8969 1341.1(20) 1228.8541 1228.0760
681 9.9049 1339.7(20) 1228.4105 1227.5784
682 9.9128 1338.3(20) 1227.9867 1227.0869
683 9.9207 1337.5(20) 1227.5892 1226.5953
684 9.9288 1336.4(20) 1227.2424 1226.0975
685 9.9366 1335.8(20) 1227.0146 1225.6061
686 9.9446 1335.2(20) 1227.0139 1225.1083
687 9.9525 1334.4(20) 1227.4230 1224.6168
688 9.9605 1334.0(20) 1228.5020 1224.1191
689 9.9684 1333.5(19) 1230.4758 1223.6276
690 9.9764 1334.4(19) 1233.5343 1223.1298
691 9.9843 1335.2(19) 1237.4694 1222.6383
692 9.9923 1336.7(19) 1241.8558 1222.1406
693 10.0002 1338.1(19) 1245.6719 1221.6490
694 10.0082 1337.8(19) 1247.8575 1221.1514
695 10.0161 1337.1(19) 1247.4622 1220.6598
696 10.0240 1334.0(19) 1244.4966 1220.1682
697 10.0320 1331.0(19) 1239.7462 1219.6705
698 10.0399 1327.1(19) 1234.4692 1219.1791
699 10.0479 1323.4(19) 1229.4811 1218.6813
700 10.0559 1320.9(19) 1225.4498 1218.1897
701 10.0638 1317.4(19) 1222.4292 1217.6920
702 10.0717 1315.5(19) 1220.3693 1217.2006
703 10.0798 1314.4(19) 1218.9653 1216.7028
704 10.0876 1313.3(19) 1218.0042 1216.2113
705 10.0956 1311.7(19) 1219.4714 1215.7135
706 10.1035 1309.7(19) 1218.9053 1215.2220
707 10.1115 1308.5(19) 1218.3925 1214.7242
708 10.1194 1307.3(19) 1217.9166 1214.2328
709 10.1274 1306.7(19) 1217.4525 1213.7350
710 10.1353 1306.1(19) 1217.0066 1213.2435
711 10.1433 1305.0(19) 1216.5649 1212.7457
712 10.1512 1303.0(19) 1216.1378 1212.2543
713 10.1591 1301.6(19) 1215.7188 1211.7628
714 10.1671 1300.5(19) 1215.3025 1211.2650
715 10.1750 1298.8(19) 1214.8994 1210.7734
716 10.1830 1297.5(19) 1214.6801 1210.2758
717 10.1909 1295.9(19) 1214.2971 1209.7843
718 10.1989 1294.9(19) 1213.9187 1209.2865
719 10.2069 1293.1(19) 1213.5554 1208.7949
720 10.2148 1292.1(19) 1213.1991 1208.2972
721 10.2227 1291.6(19) 1212.8602 1207.8057
722 10.2307 1289.7(19) 1212.5321 1207.3080
723 10.2386 1288.5(19) 1212.2253 1206.8165
724 10.2466 1288.0(19) 1211.9353 1206.3187
725 10.2545 1287.4(19) 1211.6738 1205.8271
726 10.2624 1286.6(19) 1211.4443 1205.3357
727 10.2704 1285.9(19) 1211.2578 1204.8380
728 10.2783 1284.5(19) 1211.1473 1204.3464
729 10.2863 1282.5(18) 1211.1768 1203.8488
730 10.2942 1281.2(18) 1211.4897 1203.3572
731 10.3022 1280.1(18) 1212.3928 1202.8595
732 10.3101 1281.3(18) 1214.3894 1202.3679
733 10.3181 1284.4(18) 1218.3547 1201.8702
734 10.3260 1292.9(18) 1225.2074 1201.3787
735 10.3340 1308.1(19) 1236.0642 1200.8810
736 10.3419 1329.6(19) 1250.7462 1200.1665
737 10.3499 1358.0(19) 1268.8939 1199.3984
738 10.3578 1384.7(19) 1287.6194 1198.6400
739 10.3658 1403.9(19) 1303.3982 1197.8721
740 10.3737 1412.6(19) 1311.3276 1197.1135
741 10.3816 1413.8(19) 1308.7274 1196.3551
742 10.3896 1401.2(19) 1296.1816 1195.5872
743 10.3975 1376.6(19) 1277.8918 1194.8287
744 10.4056 1346.8(19) 1257.9432 1194.0607
745 10.4134 1313.5(18) 1240.2697 1193.3022
746 10.4214 1288.6(18) 1226.3224 1192.5343
747 10.4293 1272.5(18) 1216.8912 1191.7758
748 10.4373 1262.9(18) 1211.2863 1191.0078
749 10.4452 1257.5(18) 1209.0082 1190.2494
750 10.4532 1254.2(18) 1209.7260 1189.4813
751 10.4611 1254.0(18) 1213.8035 1188.7230
752 10.4691 1253.7(18) 1222.3346 1187.9550
753 10.4770 1255.2(18) 1236.2327 1187.1965
754 10.4850 1258.1(18) 1256.3596 1186.4285
755 10.4929 1262.6(18) 1281.2059 1185.6700
756 10.5009 1270.0(18) 1308.2094 1184.9020
757 10.5088 1276.6(18) 1331.4397 1184.1437
758 10.5167 1281.1(18) 1344.9862 1183.3853
759 10.5247 1280.9(18) 1344.0631 1182.6172
760 10.5326 1274.9(18) 1328.8922 1181.8588
761 10.5406 1264.4(18) 1304.1260 1181.0907
762 10.5485 1253.6(18) 1276.6859 1180.3323
763 10.5566 1243.8(18) 1251.0645 1179.5642
764 10.5644 1236.4(18) 1230.8607 1178.8059
765 10.5724 1231.2(18) 1216.3979 1178.0378
766 10.5803 1228.7(18) 1207.3544 1177.2794
767 10.5883 1227.1(18) 1202.1141 1176.5115
768 10.5962 1225.3(17) 1199.4379 1175.7529
769 10.6042 1224.5(17) 1198.2079 1174.9849
770 10.6121 1223.6(17) 1197.8143 1174.2266
771 10.6201 1222.2(17) 1197.9062 1173.4585
772 10.6280 1221.6(17) 1198.3364 1172.7001
773 10.6359 1221.3(17) 1199.0625 1171.9417
774 10.6439 1220.3(17) 1200.1121 1171.1737
775 10.6518 1219.7(17) 1201.5065 1170.4152
776 10.6598 1218.9(17) 1203.3729 1169.6472
777 10.6677 1218.5(17) 1205.8403 1168.8888
778 10.6757 1218.2(17) 1209.3589 1168.1207
779 10.6837 1218.9(17) 1214.7142 1167.3623
780 10.6916 1222.4(17) 1224.0219 1166.5944
781 10.6995 1230.0(17) 1241.0566 1165.8359
782 10.7076 1247.4(17) 1273.7129 1165.0679
783 10.7154 1284.6(18) 1332.7816 1164.3094
784 10.7234 1356.3(18) 1435.5383 1163.5414
785 10.7313 1492.3(19) 1594.0492 1162.7830
786 10.7393 1691(2) 1820.3773 1162.0150
787 10.7472 1944(2) 2100.0474 1161.2566
788 10.7551 2222(2) 2403.6086 1160.4980
789 10.7631 2455(2) 2678.9065 1159.7301
790 10.7710 2559(2) 2849.6987 1158.9717
791 10.7790 2523(2) 2863.5068 1158.2036
792 10.7869 2357(2) 2715.2520 1157.4453
793 10.7949 2087(2) 2452.1987 1156.6772
794 10.8028 1833(2) 2150.6138 1155.9188
795 10.8108 1596.8(20) 1862.6335 1155.1509
796 10.8187 1426.3(18) 1631.2556 1154.3923
797 10.8267 1321.7(18) 1462.8721 1153.6243
798 10.8347 1267.6(17) 1355.8984 1152.8658
799 10.8426 1240.0(17) 1292.8336 1152.0979
800 10.8505 1225.8(17) 1259.7253 1151.3395
801 10.8585 1219.2(17) 1243.3372 1150.5715
802 10.8664 1217.8(17) 1236.2041 1149.8130
803 10.8743 1218.5(17) 1233.7391 1149.0546
804 10.8823 1220.7(17) 1233.8705 1148.2865
805 10.8902 1225.5(17) 1235.7002 1147.5282
806 10.8982 1229.2(17) 1238.9688 1146.7601
807 10.9061 1236.0(17) 1243.5156 1146.0017
808 10.9141 1245.6(17) 1249.5498 1145.2338
809 10.9220 1257.7(17) 1257.0892 1144.4752
810 10.9300 1273.4(17) 1266.5857 1143.7073
811 10.9379 1293.3(17) 1278.1742 1142.9489
812 10.9459 1321.0(18) 1292.7445 1142.1808
813 10.9538 1354.1(18) 1310.9666 1141.4224
814 10.9618 1402.9(18) 1335.4780 1140.6544
815 10.9697 1474.5(18) 1370.4974 1139.8960
816 10.9777 1579.3(19) 1428.0117 1139.1279
817 10.9857 1747(2) 1529.6636 1138.3695
818 10.9935 2014(2) 1719.5725 1137.6111
819 11.0015 2460(2) 2076.3472 1136.8430
820 11.0094 3199(3) 2694.9912 1136.0846
821 11.0174 4313(3) 3709.8796 1135.3167
822 11.0253 6134(4) 5181.8442 1134.5582
823 11.0333 8307(4) 7138.8433 1133.7902
824 11.0412 10778(5) 9367.3750 1133.0317
825 11.0492 13468(6) 11575.3330 1132.2637
826 11.0571 15116(6) 13221.9512 1131.5052
827 11.0651 15471(6) 13854.0967 1130.7373
828 11.0730 14817(6) 13237.6367 1129.9789
829 11.0810 12821(5) 11581.8711 1129.2108
830 11.0889 10335(5) 9422.1611 1128.4524
831 11.0969 8027(4) 7199.1719 1127.6843
832 11.1048 5954(4) 5323.6904 1126.9259
833 11.1128 4311(3) 3939.1682 1126.1675
834 11.1207 3361(3) 3052.9377 1125.3995
835 11.1286 2838(3) 2597.9453 1124.6411
836 11.1366 2560(2) 2426.6470 1123.8732
837 11.1445 2436(2) 2407.6094 1123.1146
838 11.1525 2379(2) 2423.3440 1122.3467
839 11.1604 2284(2) 2392.3125 1121.5881
840 11.1684 2158(2) 2280.2771 1120.8202
841 11.1763 1977(2) 2104.3862 1120.0618
842 11.1844 1773.2(20) 1897.6382 1119.2937
843 11.1922 1606.4(19) 1700.9152 1118.5354
844 11.2002 1456.8(18) 1533.4576 1117.7673
845 11.2081 1353.8(17) 1409.1785 1117.0088
846 11.2161 1289.2(17) 1323.0111 1116.2408
847 11.2240 1244.1(17) 1268.7424 1115.4824
848 11.2319 1215.3(16) 1235.3374 1114.7240
849 11.2399 1194.2(16) 1214.4263 1113.9561
850 11.2478 1179.6(16) 1200.8967 1113.1976
851 11.2558 1169.1(16) 1191.0493 1112.4296
852 11.2637 1162.1(16) 1183.4055 1111.6711
853 11.2717 1156.8(16) 1176.9191 1110.9031
854 11.2796 1150.4(16) 1171.3534 1110.1447
855 11.2876 1143.9(16) 1166.3596 1109.3767
856 11.2955 1138.8(16) 1161.9421 1108.6183
857 11.3035 1135.3(16) 1157.9012 1107.8502
858 11.3115 1131.5(16) 1154.2769 1107.0918
859 11.3194 1128.9(16) 1150.9261 1106.3237
860 11.3273 1126.4(16) 1147.8917 1105.5653
861 11.3354 1123.0(16) 1145.0625 1104.7972
862 11.3432 1119.8(16) 1142.4636 1104.0389
863 11.3511 1117.2(16) 1140.5021 1103.2805
864 11.3591 1114.4(15) 1138.2598 1102.5125
865 11.3670 1110.9(15) 1136.2024 1101.7540
866 11.3750 1109.4(15) 1134.2684 1100.9861
867 11.3829 1107.9(15) 1132.5062 1100.2275
868 11.3909 1106.1(15) 1130.8889 1099.4596
869 11.3988 1102.9(15) 1129.5034 1098.7012
870 11.4068 1101.0(15) 1133.6543 1097.9331
871 11.4147 1099.1(15) 1133.1199 1097.1748
872 11.4227 1095.7(15) 1133.2573 1096.4067
873 11.4306 1095.1(15) 1134.2742 1095.6482
874 11.4386 1095.1(15) 1136.3145 1094.8802
875 11.4465 1094.4(15) 1141.1360 1094.1218
876 11.4545 1095.7(15) 1144.5992 1093.3538
877 11.4625 1096.5(15) 1147.7496 1092.5953
878 11.4703 1096.5(15) 1149.6738 1091.8370
879 11.4783 1095.4(15) 1149.5181 1091.0690
880 11.4862 1094.4(15) 1147.0576 1090.3104
881 11.4942 1092.2(15) 1142.8961 1089.5425
882 11.5021 1088.9(15) 1138.0813 1088.7841
883 11.5101 1086.1(15) 1133.3853 1088.0160
884 11.5180 1083.8(15) 1129.5090 1087.2577
885 11.5260 1082.6(15) 1126.6053 1086.4896
886 11.5339 1081.7(15) 1124.7255 1085.7312
887 11.5419 1082.6(15) 1123.9066 1084.9631
888 11.5498 1082.9(15) 1123.4553 1084.2047
889 11.5578 1083.0(15) 1123.4458 1083.4366
890 11.5657 1082.8(15) 1123.7766 1082.6783
891 11.5737 1084.3(15) 1124.4158 1081.9103
892 11.5816 1086.1(15) 1125.3567 1081.1519
893 11.5896 1088.6(15) 1126.6599 1080.3934
894 11.5975 1092.3(15) 1128.4696 1079.6254
895 11.6054 1097.4(15) 1130.9990 1078.8669
896 11.6135 1104.0(15) 1134.9031 1078.0989
897 11.6213 1114.8(15) 1141.3794 1077.3406
898 11.6293 1133.5(15) 1153.3461 1076.5725
899 11.6372 1161.8(15) 1175.6050 1075.8141
900 11.6452 1206.5(16) 1217.2954 1075.0461
901 11.6531 1277.2(16) 1289.2295 1074.2876
902 11.6611 1371.1(17) 1406.7240 1073.5195
903 11.6690 1506.9(17) 1576.6553 1072.7612
904 11.6770 1682.7(18) 1802.6625 1071.9932
905 11.6849 1856.0(19) 2061.1260 1071.2347
906 11.6929 2037(2) 2319.8755 1070.4668
907 11.7008 2147(2) 2518.0522 1069.7084
908 11.7087 2174(2) 2603.2656 1068.9498
909 11.7167 2130(2) 2545.1426 1068.1819
910 11.7246 1983.6(20) 2365.1780 1067.4235
911 11.7326 1812.5(19) 2113.2886 1066.6554
912 11.7406 1633.9(18) 1852.1813 1065.8970
913 11.7485 1465.1(17) 1617.4281 1065.1290
914 11.7564 1347.5(16) 1437.1936 1064.3706
915 11.7644 1260.8(16) 1310.3008 1063.6025
916 11.7723 1204.3(15) 1231.5125 1062.8441
917 11.7803 1170.2(15) 1185.5762 1062.0760
918 11.7882 1151.4(15) 1161.3308 1061.3176
919 11.7962 1144.4(15) 1148.8112 1060.3938
920 11.8041 1143.8(15) 1142.6162 1059.1223
921 11.8122 1145.4(15) 1140.1349 1057.8347
922 11.8200 1147.3(15) 1140.4196 1056.5634
923 11.8279 1145.6(15) 1143.4015 1055.2919
924 11.8359 1143.3(15) 1149.5730 1054.0043
925 11.8438 1144.4(15) 1159.0985 1052.7329
926 11.8518 1147.4(15) 1171.9913 1051.4453
927 11.8597 1154.0(15) 1186.7961 1050.1737
928 11.8677 1160.6(15) 1201.7061 1048.8862
929 11.8756 1167.0(15) 1213.4562 1047.6147
930 11.8836 1166.6(15) 1219.5359 1046.3271
931 11.8916 1162.0(15) 1218.7461 1045.0557
932 11.8995 1157.4(15) 1212.6128 1043.7682
933 11.9074 1151.9(15) 1204.2899 1042.4967
934 11.9154 1149.3(15) 1196.5822 1041.2092
935 11.9233 1152.4(15) 1191.8427 1039.9377
936 11.9313 1158.9(15) 1191.1373 1038.6500
937 11.9392 1168.5(15) 1194.8037 1037.3785
938 11.9471 1184.9(15) 1202.6472 1036.1072
939 11.9551 1207.1(15) 1214.6315 1034.8196
940 11.9630 1237.8(15) 1230.5778 1033.5481
941 11.9710 1276.9(16) 1251.8337 1032.2606
942 11.9789 1333.1(16) 1280.5209 1030.9891
943 11.9869 1409.6(16) 1323.8639 1029.7014
944 11.9948 1525.8(17) 1394.9412 1028.4302
945 12.0028 1707.5(18) 1524.7704 1027.1425
946 12.0107 1988.4(19) 1762.0283 1025.8710
947 12.0187 2486(2) 2195.8428 1024.5835
948 12.0266 3257(2) 2923.5415 1023.3120
949 12.0346 4410(3) 4076.1379 1022.0244
950 12.0425 5994(3) 5687.8462 1020.7531
951 12.0505 8192(4) 7761.6455 1019.4654
952 12.0584 10534(4) 10043.2686 1018.1939
953 12.0663 12283(5) 12190.7109 1016.9224
954 12.0743 13597(5) 13734.2500 1015.6349
955 12.0822 13667(5) 14183.4414 1014.3634
956 12.0903 12620(5) 13392.7012 1013.0758
957 12.0981 10876(5) 11645.2910 1011.8044
958 12.1061 8604(4) 9390.7285 1010.5168
959 12.1140 6307(3) 7149.8203 1009.2453
960 12.1220 4712(3) 5194.0361 1007.9578
961 12.1299 3563(3) 3723.1538 1006.6863
962 12.1379 2766(2) 2704.9482 1005.3987
963 12.1458 2252(2) 2080.7903 1004.1274
964 12.1538 1912.7(19) 1718.8304 1002.8397
965 12.1617 1698.3(18) 1526.4263 1001.5682
966 12.1697 1559.9(17) 1424.5756 1000.2808
967 12.1776 1469.1(16) 1371.5630 999.0093
968 12.1855 1408.4(16) 1342.3392 997.7377
969 12.1935 1366.3(16) 1325.5251 996.4503
970 12.2014 1339.7(16) 1316.5232 995.1788
971 12.2094 1323.2(16) 1312.9705 993.8911
972 12.2174 1313.7(16) 1314.1265 992.6196
973 12.2253 1313.2(15) 1319.7815 991.3322
974 12.2332 1317.6(16) 1329.9366 990.0607
975 12.2413 1327.9(16) 1345.3870 988.7730
976 12.2491 1346.8(16) 1366.8748 987.5017
977 12.2571 1371.2(16) 1397.2512 986.2141
978 12.2650 1410.8(16) 1440.1536 984.9426
979 12.2730 1470.4(16) 1504.8762 983.6551
980 12.2809 1557.2(17) 1603.3049 982.3835
981 12.2889 1704.8(18) 1758.1333 981.0959
982 12.2968 1914.1(19) 1990.5510 979.8246
983 12.3047 2222(2) 2328.2390 978.5531
984 12.3127 2672(2) 2800.3088 977.2654
985 12.3206 3227(2) 3413.0032 975.9941
986 12.3286 4031(3) 4206.5723 974.7065
987 12.3365 5035(3) 5214.2295 973.4350
988 12.3445 6565(3) 6575.3574 972.1475
989 12.3524 8847(4) 8453.5479 970.8760
990 12.3604 12017(5) 11165.5117 969.5884
991 12.3684 16723(5) 14855.0801 968.3169
992 12.3763 22181(6) 19591.2500 967.0294
993 12.3842 28906(7) 24866.8496 965.7579
994 12.3923 34262(8) 30026.3965 964.4703
995 12.4001 39528(8) 33906.5781 963.1989
996 12.4081 41902(9) 35677.1055 961.9113
997 12.4160 40957(9) 35052.6055 960.6398
998 12.4239 38173(8) 32606.0605 959.3684
999 12.4319 32673(8) 29083.6465 958.0808
1000 12.4398 27430(7) 25174.6602 956.8093
1001 12.4478 22159(6) 21092.4199 955.5219
1002 12.4557 17610(6) 17121.9707 954.2503
1003 12.4637 13600(5) 13379.3418 952.9627
1004 12.4716 10305(4) 10163.1260 951.6913
1005 12.4796 7802(4) 7524.5918 950.4037
1006 12.4875 5846(3) 5579.3789 949.1322
1007 12.4955 4648(3) 4250.8320 947.8447
1008 12.5034 3931(3) 3479.9741 946.5732
1009 12.5114 3591(2) 3110.4175 945.2856
1010 12.5194 3438(2) 3000.6843 944.0141
1011 12.5273 3344(2) 3001.2141 942.7266
1012 12.5352 3214(2) 2990.7742 941.4551
1013 12.5431 2988(2) 2891.7512 940.1836
1014 12.5511 2711(2) 2684.4465 938.8962
1015 12.5590 2402(2) 2407.7166 937.6246
1016 12.5670 2105.2(19) 2105.9834 936.3370
1017 12.5749 1847.0(18) 1830.1418 935.0657
1018 12.5829 1637.7(17) 1600.0659 933.7781
1019 12.5908 1482.0(16) 1430.1389 932.5065
1020 12.5988 1369.4(15) 1310.9653 931.2191
1021 12.6067 1292.9(15) 1233.5542 929.9476
1022 12.6147 1236.4(15) 1182.7847 928.6599
1023 12.6226 1192.7(14) 1149.3951 927.3885
1024 12.6306 1161.7(14) 1125.2855 926.1010
1025 12.6385 1136.9(14) 1106.8644 924.8295
1026 12.6465 1116.7(14) 1091.3931 923.5420
1027 12.6544 1099.4(14) 1078.1354 922.2705
1028 12.6623 1085.2(14) 1066.3260 920.9990
1029 12.6703 1072.6(13) 1055.5327 919.7115
1030 12.6782 1061.5(13) 1045.8289 918.4400
1031 12.6862 1051.9(13) 1036.8284 917.1523
1032 12.6941 1044.3(13) 1028.6475 915.8809
1033 12.7021 1036.8(13) 1020.7346 914.5934
1034 12.7100 1027.7(13) 1013.7169 913.3219
1035 12.7181 1021.1(13) 1007.0954 912.0342
1036 12.7259 1014.2(13) 1000.9827 910.7629
1037 12.7339 1006.0(13) 995.1755 909.4753
1038 12.7418 1000.1(13) 989.7803 908.2038
1039 12.7498 995.1(13) 984.6257 906.9163
1040 12.7577 989.4(13) 979.8094 905.6448
1041 12.7657 984.0(13) 975.1836 904.3572
1042 12.7736 979.5(13) 970.8411 903.0858
1043 12.7816 974.8(13) 966.6501 901.7982
1044 12.7895 970.2(13) 962.6982 900.5267
1045 12.7975 966.8(13) 958.9156 899.2552
1046 12.8054 963.0(13) 955.2437 897.9677
1047 12.8133 958.5(13) 951.7606 896.6962
1048 12.8213 954.2(13) 948.3673 895.4088
1049 12.8292 951.1(12) 945.1376 894.1372
1050 12.8372 948.3(12) 941.9808 892.8496
1051 12.8451 944.2(12) 938.9674 891.5781
1052 12.8531 940.9(12) 936.0138 890.2906
1053 12.8610 937.9(12) 933.1863 889.0191
1054 12.8691 933.2(12) 930.4073 887.7315
1055 12.8769 930.1(12) 927.7278 886.4601
1056 12.8849 927.8(12) 925.1013 885.1725
1057 12.8928 924.6(12) 922.5756 883.9010
1058 12.9008 921.7(12) 920.0826 882.6135
1059 12.9087 918.9(12) 917.6805 881.3420
1060 12.9166 915.9(12) 915.3346 880.0706
1061 12.9246 913.0(12) 913.0131 878.7831
1062 12.9325 911.0(12) 910.7708 877.5115
1063 12.9405 909.4(12) 908.5488 876.2239
1064 12.9484 906.1(12) 906.4005 874.9526
1065 12.9564 903.4(12) 904.2689 873.6649
1066 12.9643 900.8(12) 902.2062 872.3934
1067 12.9723 898.5(12) 900.1587 871.1060
1068 12.9802 895.8(12) 898.1761 869.8345
1069 12.9882 893.9(12) 896.2078 868.5469
1070 12.9962 892.0(12) 894.3025 867.2753
1071 13.0041 890.2(12) 892.4122 865.9879
1072 13.0120 888.0(12) 890.5844 864.7164
1073 13.0201 886.1(12) 888.7739 863.4287
1074 13.0279 884.8(12) 887.0284 862.1573
1075 13.0358 882.4(12) 885.3278 860.8859
1076 13.0438 881.2(12) 883.6569 859.5983
1077 13.0517 879.3(12) 882.0676 858.3269
1078 13.0597 875.9(12) 880.5404 857.0393
1079 13.0676 873.8(12) 879.1599 855.7678
1080 13.0756 872.7(12) 875.7508 854.4803
1081 13.0835 871.5(12) 875.0825 853.2088
1082 13.0915 870.1(12) 875.2749 851.9211
1083 13.0994 870.3(12) 877.0202 850.6498
1084 13.1074 872.8(12) 881.4016 849.3622
1085 13.1153 878.2(12) 889.5443 848.0907
1086 13.1233 889.5(12) 902.7728 846.8032
1087 13.1312 905.3(12) 921.1450 845.5317
1088 13.1392 926.5(12) 944.1309 844.2441
1089 13.1472 952.0(12) 968.3877 842.9726
1090 13.1550 978.7(12) 989.7212 841.7012
1091 13.1630 996.4(12) 1002.8289 840.4136
1092 13.1709 1004.6(12) 1002.9871 839.1421
1093 13.1789 997.9(12) 989.6105 837.8546
1094 13.1868 975.9(12) 966.7060 836.5831
1095 13.1948 944.1(12) 939.2194 835.2955
1096 13.2027 909.3(12) 912.6824 834.0242
1097 13.2107 879.1(12) 889.6825 832.7365
1098 13.2186 858.3(11) 872.1840 831.4650
1099 13.2266 845.8(11) 859.6293 830.1776
1100 13.2345 838.5(11) 851.3403 828.9060
1101 13.2425 833.7(11) 845.8425 827.6184
1102 13.2504 829.9(11) 842.1818 826.3470
1103 13.2584 827.2(11) 839.7363 825.3212
1104 13.2663 825.4(11) 837.9217 824.3943
1105 13.2743 824.0(11) 836.3640 823.4674
1106 13.2822 823.0(11) 834.9216 822.5289
1107 13.2901 821.7(11) 833.5977 821.6021
1108 13.2982 820.7(11) 832.2821 820.6634
1109 13.3060 818.5(11) 831.0192 819.7366
1110 13.3140 817.1(11) 829.7693 818.7980
1111 13.3219 816.0(11) 828.5587 817.8712
1112 13.3299 814.4(11) 827.3531 816.9326
1113 13.3378 813.0(11) 826.1797 816.0058
1114 13.3458 811.8(11) 825.0066 815.0671
1115 13.3537 810.1(11) 823.4391 814.1404
1116 13.3617 808.5(11) 822.2975 813.2018
1117 13.3696 807.0(11) 821.1803 812.2749
1118 13.3776 805.8(11) 820.0583 811.3364
1119 13.3855 804.1(11) 818.9584 810.4095
1120 13.3934 803.0(11) 817.8658 809.4827
1121 13.4014 801.5(11) 816.7664 808.5441
1122 13.4093 799.6(11) 810.4963 807.6173
1123 13.4173 797.8(11) 809.4905 806.6786
1124 13.4253 796.3(11) 808.5009 805.7518
1125 13.4332 795.3(11) 807.5019 804.8133
1126 13.4411 793.8(11) 806.5182 803.8864
1127 13.4491 792.5(11) 803.6443 802.9479
1128 13.4570 791.6(11) 802.6955 802.0211
1129 13.4650 790.2(11) 801.7360 801.0824
1130 13.4729 789.1(11) 800.7900 800.1555
1131 13.4809 788.2(11) 799.8335 799.2170
1132 13.4888 786.9(11) 798.8900 798.2902
1133 13.4969 785.3(11) 797.9355 797.3516
1134 13.5047 784.1(11) 797.0072 796.4248
1135 13.5126 782.4(11) 796.0668 795.4979
1136 13.5206 780.8(11) 795.1153 794.5593
1137 13.5285 779.7(11) 794.1766 793.6325
1138 13.5365 778.4(11) 793.2266 792.6939
1139 13.5444 777.4(11) 792.0347 791.7670
1140 13.5524 776.4(11) 791.1165 790.8286
1141 13.5603 775.0(11) 790.1846 789.9017
1142 13.5683 773.5(11) 789.2413 788.9631
1143 13.5762 771.4(11) 788.3104 788.0363
1144 13.5842 769.8(11) 787.3680 787.0977
1145 13.5921 768.7(11) 786.4377 786.1708
1146 13.6001 768.3(11) 785.4962 785.2323
1147 13.6080 767.3(10) 784.6167 784.3054
1148 13.6160 766.4(10) 783.6766 783.3668
1149 13.6240 765.5(10) 782.7485 782.4399
1150 13.6318 764.1(10) 781.8209 781.5132
1151 13.6398 763.2(10) 780.9172 780.5745
1152 13.6477 762.5(10) 779.9907 779.6477
1153 13.6557 761.1(10) 779.0527 778.7092
1154 13.6636 759.4(10) 778.1268 777.7823
1155 13.6716 758.4(10) 777.1894 776.8437
1156 13.6795 757.5(10) 776.2642 775.9169
1157 13.6875 756.9(10) 775.3273 774.9783
1158 13.6954 756.3(10) 774.4026 774.0515
1159 13.7034 755.1(10) 773.4664 773.1129
1160 13.7113 753.4(10) 772.5422 772.1860
1161 13.7193 752.3(10) 771.6066 771.2474
1162 13.7272 751.3(10) 770.6830 770.3207
1163 13.7352 750.3(10) 769.7480 769.3821
1164 13.7431 749.2(10) 768.8249 768.4552
1165 13.7510 747.1(10) 767.9021 767.5283
1166 13.7590 746.3(10) 766.9680 766.5898
1167 13.7669 744.8(10) 766.0458 765.6630
1168 13.7750 743.7(10) 765.1122 764.7243
1169 13.7828 743.9(10) 764.1908 763.7975
1170 13.7908 743.1(10) 763.2579 762.8589
1171 13.7987 742.0(10) 762.3370 761.9321
1172 13.8067 741.4(10) 761.4049 760.9935
1173 13.8146 739.7(10) 760.4847 760.0667
1174 13.8226 738.3(10) 759.5533 759.1281
1175 13.8305 737.8(10) 758.6340 758.2013
1176 13.8385 737.5(10) 757.7033 757.2627
1177 13.8464 736.4(10) 756.7847 756.3358
1178 13.8544 735.9(10) 755.8550 755.3973
1179 13.8623 735.5(10) 754.9374 754.4705
1180 13.8702 734.6(10) 754.0201 753.5436
1181 13.8782 733.8(10) 753.0919 752.6050
1182 13.8861 732.4(10) 752.1758 751.6782
1183 13.8941 731.6(10) 751.2495 750.7396
1184 13.9021 730.2(10) 750.3345 749.8127
1185 13.9100 729.2(10) 749.4087 748.8742
1186 13.9179 729.1(10) 748.4950 747.9473
1187 13.9260 728.5(10) 747.5705 747.0087
1188 13.9338 728.8(10) 746.6583 746.0819
1189 13.9418 729.3(10) 745.7354 745.1433
1190 13.9497 729.7(10) 744.8248 744.2164
1191 13.9577 729.8(10) 743.9037 743.2780
1192 13.9656 730.3(10) 742.9951 742.3511
1193 13.9736 733.6(10) 742.0761 741.4125
1194 13.9815 734.9(10) 741.1698 740.4857
1195 13.9894 737.2(10) 740.2646 739.5588
1196 13.9974 739.5(10) 739.3493 738.6202
1197 14.0053 739.1(10) 738.4470 737.6934
1198 14.0133 740.1(10) 737.5347 736.7548
1199 14.0212 740.2(10) 736.6356 735.8279
1200 14.0292 739.2(10) 735.7272 734.8895
1201 14.0371 736.6(10) 734.8320 733.9626
1202 14.0451 733.8(10) 733.9278 733.0239
1203 14.0531 730.1(10) 733.0375 732.0971
1204 14.0610 725.8(10) 732.1511 731.1586
1205 14.0689 722.5(10) 731.2667 730.2317
1206 14.0769 719.6(10) 730.3748 729.2932
1207 14.0848 717.1(10) 729.4976 728.3663
1208 14.0928 715.3(10) 728.6138 727.4277
1209 14.1007 713.2(10) 727.7458 726.5009
1210 14.1086 712.0(10) 726.8834 725.5741
1211 14.1166 710.8(10) 726.3755 724.6354
1212 14.1245 709.9(10) 725.5319 723.7086
1213 14.1325 709.2(10) 724.6861 722.7701
1214 14.1404 708.2(10) 723.8605 721.8432
1215 14.1484 707.7(10) 723.0357 720.9046
1216 14.1563 707.1(10) 722.2346 719.9778
1217 14.1643 706.9(10) 721.4388 719.0392
1218 14.1722 705.8(10) 720.6718 718.1124
1219 14.1802 704.9(10) 719.9178 717.1738
1220 14.1881 703.9(10) 719.1756 716.2469
1221 14.1961 702.8(10) 718.4871 715.3083
1222 14.2041 702.5(10) 717.8588 714.3815
1223 14.2120 702.5(10) 717.3066 713.4430
1224 14.2199 702.3(10) 716.9120 712.5161
1225 14.2278 702.3(10) 716.8100 711.5892
1226 14.2358 703.1(10) 717.2937 710.6507
1227 14.2437 704.6(10) 718.8633 709.7239
1228 14.2517 706.4(10) 722.3853 708.7852
1229 14.2596 709.3(10) 728.8766 707.8585
1230 14.2676 714.1(10) 739.7372 706.9199
1231 14.2755 721.8(10) 755.5971 705.9930
1232 14.2835 734.3(10) 776.8466 705.0544
1233 14.2914 751.8(10) 801.4645 704.1276
1234 14.2994 774.6(10) 826.7717 703.1890
1235 14.3073 786.9(10) 847.3180 702.2622
1236 14.3153 791.9(10) 858.2491 701.3236
1237 14.3232 788.8(10) 855.7418 700.3967
1238 14.3312 775.1(10) 840.3159 699.4583
1239 14.3391 760.0(10) 816.6159 698.5314
1240 14.3470 744.4(10) 789.8130 697.6045
1241 14.3550 725.8(10) 764.0435 696.6660
1242 14.3629 712.8(9) 742.7818 695.7391
1243 14.3709 706.0(9) 726.6217 694.8005
1244 14.3788 701.0(9) 715.7378 693.8736
1245 14.3868 698.2(9) 708.8992 692.9351
1246 14.3947 697.2(9) 705.2340 692.0082
1247 14.4028 698.4(9) 703.9100 691.0696
1248 14.4106 700.8(9) 704.7253 690.1428
1249 14.4186 704.6(9) 707.9431 689.2042
1250 14.4265 711.9(9) 714.0078 688.2773
1251 14.4345 723.2(10) 723.5653 687.3389
1252 14.4424 739.1(10) 736.4136 686.4120
1253 14.4504 759.7(10) 752.0821 685.4734
1254 14.4583 782.4(10) 768.4160 684.5466
1255 14.4662 801.3(10) 783.0468 683.6198
1256 14.4742 811.7(10) 793.3065 682.6812
1257 14.4821 811.7(10) 797.2732 681.7544
1258 14.4901 802.0(10) 795.9253 680.8157
1259 14.4980 784.6(10) 792.3856 679.8889
1260 14.5060 769.3(10) 790.1447 678.9504
1261 14.5139 757.0(10) 791.7892 678.0235
1262 14.5219 750.7(10) 798.3394 677.0848
1263 14.5299 753.0(10) 809.0051 676.1580
1264 14.5378 762.7(10) 822.3955 675.2195
1265 14.5457 779.0(10) 836.6525 674.2926
1266 14.5538 802.1(10) 851.2068 673.3540
1267 14.5616 827.7(10) 864.6808 672.4272
1268 14.5696 847.2(10) 875.7248 671.4886
1269 14.5775 859.5(10) 882.5014 670.5618
1270 14.5854 864.6(10) 885.8225 669.6350
1271 14.5934 863.2(10) 889.9952 668.6964
1272 14.6013 863.8(10) 901.0154 667.7695
1273 14.6093 873.4(10) 923.8273 666.8310
1274 14.6172 890.4(10) 958.6371 665.9041
1275 14.6252 923.0(11) 1002.2613 664.9655
1276 14.6331 961.5(11) 1045.1825 664.0388
1277 14.6411 1004.9(11) 1078.2131 663.1001
1278 14.6490 1053.8(11) 1092.1670 662.1732
1279 14.6570 1090.3(11) 1085.7039 661.2347
1280 14.6649 1111.5(12) 1060.5735 660.3079
1281 14.6729 1108.6(12) 1018.4199 659.3693
1282 14.6809 1070.3(11) 964.2424 658.4424
1283 14.6888 1005.9(11) 903.3533 657.5039
1284 14.6967 932.2(11) 844.5685 656.5770
1285 14.7046 856.7(10) 792.6237 655.6501
1286 14.7126 794.0(10) 750.1700 654.8171
1287 14.7205 752.7(9) 719.0710 654.3809
1288 14.7285 724.4(9) 697.1916 653.9391
1289 14.7364 704.7(9) 683.1290 653.5029
1290 14.7444 693.2(9) 674.3087 653.0612
1291 14.7523 685.8(9) 669.0485 652.6249
1292 14.7603 680.9(9) 665.7841 652.1832
1293 14.7682 677.3(9) 663.6887 651.7469
1294 14.7762 675.2(9) 662.1777 651.3052
1295 14.7841 672.8(9) 661.1530 650.8690
1296 14.7921 670.8(9) 660.1731 650.4272
1297 14.8000 669.5(9) 659.3344 649.9910
1298 14.8080 668.2(9) 658.5827 649.5493
1299 14.8159 667.3(9) 657.9196 649.1130
1300 14.8238 666.3(9) 657.3254 648.6768
1301 14.8319 665.7(9) 656.7895 648.2350
1302 14.8397 664.8(9) 656.3271 647.7988
1303 14.8477 663.9(9) 655.9366 647.3570
1304 14.8556 664.6(9) 655.6486 646.9208
1305 14.8636 664.8(9) 655.4895 646.4791
1306 14.8715 665.3(9) 655.6260 646.0428
1307 14.8795 667.3(9) 655.8629 645.6010
1308 14.8874 670.4(9) 656.3337 645.1648
1309 14.8954 675.7(9) 657.0296 644.7230
1310 14.9033 683.1(9) 657.8531 644.2868
1311 14.9113 689.5(9) 658.6805 643.8451
1312 14.9192 694.4(9) 659.3053 643.4088
1313 14.9272 696.2(9) 659.5657 642.9670
1314 14.9351 694.0(9) 659.3858 642.5309
1315 14.9430 688.8(9) 658.8618 642.0946
1316 14.9510 681.5(9) 658.2125 641.6528
1317 14.9590 674.6(9) 657.5828 641.2166
1318 14.9669 670.0(9) 657.1541 640.7748
1319 14.9748 667.2(9) 657.0362 640.3386
1320 14.9828 666.4(9) 657.2728 639.8969
1321 14.9907 667.3(9) 657.8734 639.4606
1322 14.9987 668.4(9) 658.8707 639.0189
1323 15.0066 670.7(9) 660.2954 638.5826
1324 15.0146 674.1(9) 662.3227 638.1409
1325 15.0225 679.2(9) 665.1691 637.7047
1326 15.0306 686.5(9) 669.3668 637.2629
1327 15.0384 697.5(9) 675.5033 636.8267
1328 15.0464 713.1(9) 684.7513 636.3849
1329 15.0543 735.7(9) 698.3006 635.9487
1330 15.0623 766.6(9) 718.6644 635.5070
1331 15.0702 806.7(10) 748.8019 635.0707
1332 15.0781 864.6(10) 794.6036 634.6345
1333 15.0861 934.2(10) 865.9890 634.1927
1334 15.0940 1026.8(11) 973.6108 633.7565
1335 15.1020 1161.7(11) 1133.7249 633.3147
1336 15.1100 1343.5(12) 1353.4229 632.8785
1337 15.1179 1620.4(13) 1638.6901 632.4367
1338 15.1258 1960.0(15) 1964.2699 632.0005
1339 15.1338 2365.1(16) 2296.6123 631.5588
1340 15.1417 2747.4(17) 2566.5215 631.1225
1341 15.1497 2989.0(18) 2711.3948 630.6807
1342 15.1576 3025.6(18) 2682.2866 630.2445
1343 15.1656 2810.3(18) 2485.7014 629.8028
1344 15.1735 2407.9(16) 2180.9141 629.3665
1345 15.1814 1947.7(15) 1834.4407 628.9303
1346 15.1894 1517.6(13) 1499.9142 628.4886
1347 15.1973 1192.9(11) 1222.9081 628.0523
1348 15.2053 977.4(10) 1011.7498 627.6105
1349 15.2132 846.7(10) 869.0098 627.1743
1350 15.2212 769.0(9) 777.8988 626.7325
1351 15.2291 726.4(9) 724.9349 626.2963
1352 15.2371 702.1(9) 694.7308 625.8546
1353 15.2450 685.7(9) 678.1252 625.4183
1354 15.2530 676.3(9) 668.4983 624.9766
1355 15.2609 669.9(9) 662.8347 624.5404
1356 15.2689 665.1(9) 659.5131 624.0986
1357 15.2768 662.6(9) 658.2009 623.6624
1358 15.2848 662.4(8) 658.9848 623.2206
1359 15.2927 663.2(8) 662.1492 622.7844
1360 15.3007 665.4(9) 667.9546 622.3426
1361 15.3087 669.1(9) 676.0087 621.9064
1362 15.3165 674.0(9) 685.4797 621.4702
1363 15.3245 679.3(9) 694.8885 621.0284
1364 15.3324 683.6(9) 701.8884 620.5922
1365 15.3404 686.5(9) 704.3650 620.1505
1366 15.3483 684.6(9) 701.1385 619.7142
1367 15.3563 680.4(9) 692.8553 619.2724
1368 15.3642 673.6(9) 681.6711 618.8362
1369 15.3722 665.1(8) 669.5314 618.3944
1370 15.3801 657.6(8) 658.4783 617.9582
1371 15.3881 652.0(8) 649.2818 617.5165
1372 15.3960 648.0(8) 642.5026 617.0802
1373 15.4040 645.2(8) 637.7784 616.6384
1374 15.4119 643.3(8) 634.7689 616.2023
1375 15.4199 641.9(8) 632.8823 615.7605
1376 15.4278 640.4(8) 631.7452 615.3242
1377 15.4358 640.0(8) 631.0400 614.8880
1378 15.4437 639.7(8) 630.5887 614.4462
1379 15.4516 639.2(8) 630.3099 614.0100
1380 15.4597 639.3(8) 630.1528 613.5682
1381 15.4675 639.3(8) 630.1048 613.1320
1382 15.4755 639.4(8) 630.1614 612.6902
1383 15.4834 639.8(8) 630.3250 612.2540
1384 15.4914 640.2(8) 630.6078 611.8123
1385 15.4993 640.2(8) 631.0143 611.3760
1386 15.5073 640.8(8) 631.5707 610.9343
1387 15.5152 641.0(8) 632.2657 610.4980
1388 15.5232 641.8(8) 633.1761 610.0563
1389 15.5311 642.9(8) 634.2936 609.6201
1390 15.5391 644.4(8) 635.6874 609.1783
1391 15.5470 646.8(8) 637.3760 608.7421
1392 15.5549 649.9(8) 639.4505 608.3058
1393 15.5629 654.0(8) 642.0673 607.8641
1394 15.5708 659.2(8) 645.3740 607.4279
1395 15.5788 666.5(8) 649.9778 606.9861
1396 15.5868 676.6(8) 656.6893 606.5499
1397 15.5947 691.5(8) 667.8268 606.1082
1398 15.6026 714.9(9) 686.9328 605.6719
1399 15.6107 751.0(9) 721.4711 605.2301
1400 15.6185 811.6(9) 781.0258 604.7939
1401 15.6265 910.4(10) 881.2436 604.3521
1402 15.6344 1058.0(10) 1034.3658 603.9159
1403 15.6424 1284.5(11) 1255.1099 603.4742
1404 15.6503 1579.9(13) 1537.7261 603.0379
1405 15.6583 1900.8(14) 1871.4202 602.5961
1406 15.6662 2253.2(15) 2209.7356 602.1600
1407 15.6741 2540.1(16) 2501.3025 601.7237
1408 15.6821 2686.9(17) 2686.0212 601.2819
1409 15.6900 2727.9(17) 2717.2766 600.8457
1410 15.6980 2605.5(16) 2599.5664 600.4039
1411 15.7059 2367.3(16) 2379.8582 599.9677
1412 15.7139 2102.5(15) 2110.8618 599.5260
1413 15.7218 1803.7(14) 1850.8547 599.0897
1414 15.7298 1580.7(13) 1629.4117 598.6479
1415 15.7378 1418.3(12) 1466.1057 598.2117
1416 15.7457 1316.8(12) 1350.9607 597.7700
1417 15.7536 1247.7(11) 1269.9304 597.3337
1418 15.7616 1193.9(11) 1205.1104 596.8920
1419 15.7695 1152.7(11) 1153.6594 596.4557
1420 15.7775 1121.7(11) 1121.0483 596.0140
1421 15.7854 1111.5(11) 1118.5103 595.5778
1422 15.7933 1132.7(11) 1152.1635 595.1415
1423 15.8013 1180.4(11) 1221.0295 594.6998
1424 15.8092 1250.7(11) 1310.0933 594.2635
1425 15.8172 1325.9(12) 1397.8037 593.8218
1426 15.8251 1369.4(12) 1453.6445 593.3856
1427 15.8331 1386.7(12) 1456.3196 592.9438
1428 15.8410 1368.2(12) 1402.9442 592.5076
1429 15.8490 1300.3(11) 1311.4009 592.0658
1430 15.8569 1223.2(11) 1213.5323 591.6296
1431 15.8649 1155.5(11) 1135.3285 591.1879
1432 15.8728 1123.5(11) 1098.0914 590.7516
1433 15.8808 1155.4(11) 1107.8564 590.3098
1434 15.8887 1239.6(11) 1157.5864 589.8737
1435 15.8967 1349.2(12) 1229.5792 589.4319
1436 15.9046 1493.4(12) 1295.6511 588.9956
1437 15.9125 1543.1(12) 1329.6316 588.5594
1438 15.9205 1507.0(12) 1313.6956 588.1177
1439 15.9284 1412.9(12) 1249.9850 587.6814
1440 15.9365 1227.0(11) 1155.3218 587.2396
1441 15.9443 1101.5(10) 1055.2358 586.8034
1442 15.9523 1000.9(10) 966.9657 586.3616
1443 15.9602 917.6(9) 904.4401 585.9254
1444 15.9682 876.3(9) 868.8571 585.4837
1445 15.9761 858.1(9) 855.9380 585.0474
1446 15.9841 852.4(9) 854.8228 584.6057
1447 15.9920 850.4(9) 853.5590 584.1694
1448 16.0000 837.9(9) 842.6875 583.7277
1449 16.0079 815.1(9) 819.5847 583.2914
1450 16.0159 783.8(9) 786.9419 582.8497
1451 16.0238 749.1(9) 751.4213 582.4135
1452 16.0317 721.1(8) 718.2037 581.9772
1453 16.0397 698.5(8) 691.0659 581.5355
1454 16.0476 682.6(8) 673.1521 581.0992
1455 16.0556 676.5(8) 665.6115 580.6575
1456 16.0635 678.9(8) 670.5007 580.2213
1457 16.0716 692.3(8) 691.6917 579.7795
1458 16.0794 722.2(8) 734.8947 579.3433
1459 16.0875 775.6(9) 809.8995 578.9015
1460 16.0954 870.4(9) 923.5340 578.4653
1461 16.1033 1007.6(10) 1083.9797 578.0235
1462 16.1112 1210.1(11) 1284.6282 577.5873
1463 16.1192 1472.2(12) 1516.5872 577.1456
1464 16.1271 1715.2(13) 1748.8745 576.7093
1465 16.1351 1946.9(14) 1953.2498 576.2676
1466 16.1430 2056.8(14) 2092.1687 575.8314
1467 16.1509 2078.4(14) 2153.9607 575.3951
1468 16.1589 2052.0(14) 2151.0723 574.9534
1469 16.1668 1977.7(14) 2111.0627 574.5171
1470 16.1749 1957.3(14) 2054.0791 574.0913
1471 16.1827 1913.5(13) 1985.1334 573.6790
1472 16.1908 1851.6(13) 1890.3289 573.2613
1473 16.1987 1755.3(13) 1757.8351 572.8489
1474 16.2066 1578.3(12) 1585.6002 572.4313
1475 16.2146 1375.4(11) 1394.0828 572.0189
1476 16.2225 1154.4(10) 1201.0044 571.6013
1477 16.2304 954.6(9) 1029.9478 571.1889
1478 16.2384 817.5(9) 888.5773 570.7713
1479 16.2463 729.3(8) 784.2401 570.3589
1480 16.2543 675.9(8) 711.5018 569.9413
1481 16.2622 646.6(8) 665.5362 569.5289
1482 16.2701 631.2(8) 637.7244 569.1165
1483 16.2781 621.9(8) 621.4053 568.6989
1484 16.2860 616.5(8) 612.3005 568.2865
1485 16.2941 613.3(8) 607.3740 567.8688
1486 16.3020 611.8(8) 605.5764 567.4564
1487 16.3099 613.1(8) 606.9959 567.0388
1488 16.3179 618.2(8) 612.4229 566.6264
1489 16.3258 630.0(8) 623.7378 566.2088
1490 16.3337 655.4(8) 642.4632 565.7964
1491 16.3417 694.9(8) 670.2977 565.3788
1492 16.3496 758.5(8) 706.2035 564.9664
1493 16.3576 840.7(9) 748.2858 564.5488
1494 16.3655 920.3(9) 789.9977 564.1364
1495 16.3736 988.5(10) 824.4384 563.7187
1496 16.3814 1027.2(10) 842.2536 563.3064
1497 16.3893 1024.7(10) 838.4114 562.8940
1498 16.3974 991.7(10) 813.3535 562.4763
1499 16.4052 936.2(9) 774.4178 562.0640
1500 16.4132 855.1(9) 729.2831 561.6463
1501 16.4212 780.0(8) 686.4107 561.2339
1502 16.4291 708.3(8) 649.5822 560.8163
1503 16.4370 652.7(8) 621.7634 560.4039
1504 16.4450 623.5(8) 602.0710 559.9863
1505 16.4529 606.8(7) 589.4775 559.5739
1506 16.4609 597.6(7) 581.6878 559.1563
1507 16.4688 593.2(7) 577.1385 558.7439
1508 16.4769 590.9(7) 574.3978 558.3262
1509 16.4847 589.2(7) 572.7127 557.9139
1510 16.4928 589.0(7) 571.5940 557.4962
1511 16.5007 589.3(7) 570.7922 557.0838
1512 16.5085 589.2(7) 570.2144 556.6714
1513 16.5166 589.8(7) 569.8286 556.2538
1514 16.5245 590.3(7) 569.6687 555.8414
1515 16.5324 591.2(7) 569.8215 555.4238
1516 16.5403 593.2(7) 570.7275 555.0114
1517 16.5483 596.6(7) 572.3395 554.5938
1518 16.5562 602.2(7) 575.5826 554.1814
1519 16.5642 609.2(7) 581.7731 553.7638
1520 16.5721 621.4(7) 592.5336 553.3514
1521 16.5801 639.1(8) 610.4447 552.9338
1522 16.5880 665.6(8) 637.4784 552.5214
1523 16.5961 704.1(8) 676.2115 552.1037
1524 16.6040 750.7(8) 725.9684 551.6913
1525 16.6119 807.8(8) 785.6465 551.2737
1526 16.6199 856.6(9) 848.0726 550.8613
1527 16.6278 898.8(9) 905.2018 550.4489
1528 16.6357 928.6(9) 947.5010 550.0313
1529 16.6437 934.5(9) 965.4830 549.6189
1530 16.6516 926.8(9) 954.8216 549.2013
1531 16.6595 894.9(9) 917.0650 548.7889
1532 16.6675 842.1(9) 859.4883 548.3713
1533 16.6754 785.0(8) 794.5897 547.9589
1534 16.6834 730.8(8) 731.0370 547.5413
1535 16.6913 684.8(8) 677.1420 547.1289
1536 16.6994 649.3(8) 634.6887 546.7112
1537 16.7072 624.7(7) 604.8164 546.2989
1538 16.7153 608.0(7) 584.8436 545.8812
1539 16.7232 596.5(7) 572.6456 545.4688
1540 16.7311 589.5(7) 565.3419 545.0512
1541 16.7390 584.7(7) 560.8760 544.6388
1542 16.7470 581.0(7) 558.3876 544.2264
1543 16.7549 578.5(7) 556.8209 543.8088
1544 16.7628 576.7(7) 555.7776 543.3964
1545 16.7708 575.0(7) 555.1770 542.9788
1546 16.7787 574.8(7) 554.9984 542.5664
1547 16.7867 575.0(7) 555.3821 542.1488
1548 16.7946 576.0(7) 556.5888 541.7364
1549 16.8027 578.1(7) 559.0378 541.3187
1550 16.8105 581.3(7) 563.1719 540.9064
1551 16.8186 587.2(7) 569.8138 540.4887
1552 16.8265 595.8(7) 579.4284 540.0763
1553 16.8344 608.3(7) 592.9915 539.6587
1554 16.8424 626.2(7) 610.8438 539.2463
1555 16.8503 651.5(7) 633.8776 538.8287
1556 16.8582 687.0(8) 661.4355 538.4163
1557 16.8661 734.2(8) 692.9391 538.0039
1558 16.8741 786.0(8) 726.9189 537.5863
1559 16.8820 849.4(8) 758.8472 537.1739
1560 16.8900 895.5(9) 784.2895 536.7563
1561 16.8979 916.0(9) 796.0671 536.3439
1562 16.9060 906.9(9) 789.7281 535.9262
1563 16.9138 862.8(9) 765.8158 535.5139
1564 16.9219 800.4(8) 729.2504 535.0962
1565 16.9298 727.5(8) 688.2592 534.6838
1566 16.9377 667.9(7) 648.2916 534.2662
1567 16.9457 622.9(7) 614.6121 533.8538
1568 16.9536 595.4(7) 588.3332 533.4362
1569 16.9615 579.1(7) 570.0527 533.0238
1570 16.9695 570.5(7) 557.8831 532.6062
1571 16.9774 565.6(7) 550.6224 532.1938
1572 16.9853 563.0(7) 546.3699 531.7814
1573 16.9933 561.8(7) 543.8992 531.3638
1574 17.0012 560.1(7) 542.4937 530.9514
1575 17.0092 559.2(7) 541.6944 530.5338
1576 17.0171 558.3(7) 541.3734 530.1214
1577 17.0252 557.8(7) 541.5914 529.7037
1578 17.0331 557.7(7) 542.6237 529.2913
1579 17.0410 557.9(7) 545.0203 528.8737
1580 17.0490 558.3(7) 549.4404 528.4613
1581 17.0569 558.7(7) 556.9846 528.0437
1582 17.0648 559.5(7) 568.2354 527.6313
1583 17.0728 560.9(7) 583.8052 527.2137
1584 17.0807 563.3(7) 602.7150 526.8013
1585 17.0887 565.9(7) 623.5903 526.3837
1586 17.0966 568.5(7) 642.8486 525.9713
1587 17.1045 569.9(7) 656.8702 525.5589
1588 17.1125 569.6(7) 662.0366 525.1413
1589 17.1204 568.9(7) 656.6954 524.7289
1590 17.1285 567.1(7) 642.4174 524.3112
1591 17.1363 564.8(7) 623.3297 523.8989
1592 17.1444 563.4(7) 603.0080 523.4812
1593 17.1523 562.5(7) 585.1879 523.0688
1594 17.1602 562.9(7) 571.5704 522.6512
1595 17.1681 564.7(7) 563.6448 522.2388
1596 17.1761 568.7(7) 561.8602 521.8212
1597 17.1840 576.1(7) 566.9191 521.4088
1598 17.1920 588.4(7) 580.1542 520.9912
1599 17.1999 607.9(7) 602.8171 520.5788
1600 17.2079 638.3(7) 638.0128 520.1612
1601 17.2158 687.5(7) 686.0305 519.7488
1602 17.2237 764.2(8) 746.6907 519.3364
1603 17.2318 852.0(8) 817.3315 518.9187
1604 17.2396 951.2(9) 888.7854 518.5064
1605 17.2477 1047.4(9) 951.7435 518.0887
1606 17.2556 1117.4(9) 992.4243 517.6763
1607 17.2635 1144.2(10) 1001.0323 517.2587
1608 17.2715 1110.2(9) 974.3304 516.8463
1609 17.2794 1034.7(9) 919.2233 516.4287
1610 17.2873 922.0(9) 851.3156 516.0163
1611 17.2953 820.2(8) 784.2716 515.5987
1612 17.3032 736.9(8) 732.4006 515.1863
1613 17.3112 687.6(7) 703.4554 514.7687
1614 17.3191 682.5(7) 702.8860 514.3563
1615 17.3272 716.5(8) 731.1042 513.9386
1616 17.3350 781.4(8) 783.3224 513.5263
1617 17.3431 861.2(8) 852.1333 513.1086
1618 17.3510 944.2(9) 922.9082 512.6962
1619 17.3589 1009.1(9) 980.6663 512.2838
1620 17.3668 1035.0(9) 1009.8168 511.8662
1621 17.3748 1015.0(9) 1000.0388 511.4538
1622 17.3827 953.5(9) 953.4505 511.0362
1623 17.3906 865.5(8) 883.4305 510.6238
1624 17.3986 778.8(8) 803.4507 510.2062
1625 17.4065 703.7(7) 728.1073 509.7938
1626 17.4145 646.2(7) 663.8137 509.3762
1627 17.4224 607.2(7) 615.5959 508.9638
1628 17.4305 583.3(7) 581.8307 508.5461
1629 17.4383 570.4(7) 560.7048 508.1338
1630 17.4464 563.6(7) 548.1866 507.7161
1631 17.4543 560.6(7) 541.6553 507.3037
1632 17.4622 559.9(7) 538.6952 506.8861
1633 17.4701 560.1(7) 538.1277 506.4737
1634 17.4781 561.5(7) 539.4492 506.0613
1635 17.4860 564.4(7) 542.9249 505.6437
1636 17.4939 569.7(7) 549.2616 505.2313
1637 17.5019 578.1(7) 559.9873 504.8137
1638 17.5098 592.1(7) 576.7323 504.4013
1639 17.5178 614.3(7) 602.4504 503.9837
1640 17.5257 647.4(7) 639.7418 503.5713
1641 17.5338 697.0(7) 693.8641 503.1536
1642 17.5416 769.4(8) 768.7681 502.7413
1643 17.5497 871.4(8) 872.3917 502.3236
1644 17.5576 1013.0(9) 1006.9897 501.9112
1645 17.5655 1218.3(10) 1177.6057 501.4936
1646 17.5735 1501.6(11) 1375.1951 501.0812
1647 17.5814 1813.3(12) 1589.0347 500.6636
1648 17.5893 2097.6(13) 1785.2329 500.2512
1649 17.5972 2316.8(13) 1927.5664 499.8388
1650 17.6052 2335.9(13) 1977.2480 499.4212
1651 17.6131 2257.7(13) 1914.1053 499.0088
1652 17.6211 2100.9(13) 1751.7051 498.5912
1653 17.6290 1809.2(12) 1533.0157 498.2663
1654 17.6370 1522.2(11) 1296.6576 498.5486
1655 17.6449 1239.9(10) 1082.4474 498.8275
1656 17.6530 983.7(9) 907.1024 499.1100
1657 17.6609 843.8(8) 784.1720 499.3889
1658 17.6688 759.4(8) 710.1781 499.6712
1659 17.6768 727.2(7) 681.5229 499.9501
1660 17.6847 738.8(7) 690.2885 500.2325
1661 17.6926 779.3(8) 728.8642 500.5114
1662 17.7006 842.5(8) 789.9686 500.7938
1663 17.7085 935.7(8) 861.8983 501.0727
1664 17.7164 1021.0(9) 932.5548 501.3515
1665 17.7244 1098.2(9) 988.0497 501.6339
1666 17.7323 1137.8(9) 1013.8779 501.9128
1667 17.7403 1127.9(9) 1005.5510 502.1952
1668 17.7482 1092.1(9) 970.2512 502.4741
1669 17.7563 1032.6(9) 922.1111 502.7565
1670 17.7641 981.8(8) 877.2802 503.0353
1671 17.7722 962.7(8) 844.7504 503.3178
1672 17.7801 975.4(8) 828.2963 503.5966
1673 17.7880 999.9(9) 823.3444 503.8790
1674 17.7959 1021.5(9) 820.8774 504.1579
1675 17.8039 1021.0(9) 810.4342 504.4403
1676 17.8118 983.5(8) 786.2122 504.7192
1677 17.8198 922.4(8) 748.5159 505.0016
1678 17.8277 844.5(8) 703.9274 505.2804
1679 17.8356 761.7(7) 658.6229 505.5593
1680 17.8436 693.9(7) 617.4399 505.8417
1681 17.8515 645.9(7) 584.5449 506.1206
1682 17.8596 612.4(7) 559.9894 506.4030
1683 17.8674 589.5(7) 543.5452 506.6819
1684 17.8755 575.0(6) 533.0172 506.9643
1685 17.8834 564.8(6) 526.8649 507.2432
1686 17.8913 557.4(6) 523.2045 507.5255
1687 17.8993 552.7(6) 521.0911 507.8044
1688 17.9072 548.9(6) 519.7803 508.0868
1689 17.9151 545.9(6) 518.9271 508.3657
1690 17.9231 543.7(6) 518.3066 508.6481
1691 17.9310 542.3(6) 517.8523 508.9270
1692 17.9390 541.4(6) 517.4976 509.2094
1693 17.9469 540.7(6) 517.2321 509.4882
1694 17.9548 539.6(6) 517.0273 509.7671
1695 17.9628 538.1(6) 516.8342 510.0495
1696 17.9707 537.0(6) 516.7308 510.3284
1697 17.9788 535.9(6) 516.6669 510.6108
1698 17.9867 535.4(6) 516.6392 510.8897
1699 17.9946 534.9(6) 516.6432 511.1721
1700 18.0026 534.7(6) 516.6769 511.4510
1701 18.0105 534.8(6) 516.7412 511.7333
1702 18.0184 534.3(6) 516.8377 512.0122
1703 18.0264 534.1(6) 516.9763 512.2946
1704 18.0343 534.1(6) 517.1661 512.5735
1705 18.0423 533.8(6) 517.4289 512.8558
1706 18.0502 533.6(6) 517.7756 513.1348
1707 18.0583 533.8(6) 518.2267 513.4172
1708 18.0661 533.8(6) 518.7669 513.6960
1709 18.0740 533.8(6) 519.3755 513.9749
1710 18.0821 534.1(6) 520.0077 514.2573
1711 18.0899 533.8(6) 520.5723 514.5361
1712 18.0979 534.2(6) 521.0000 514.8186
1713 18.1059 535.1(6) 521.2221 515.0975
1714 18.1138 535.8(6) 521.2487 515.3799
1715 18.1217 535.7(6) 521.1437 515.6588
1716 18.1297 535.2(6) 520.9974 515.9411
1717 18.1376 535.1(6) 520.9042 516.2200
1718 18.1456 534.6(6) 520.9490 516.5024
1719 18.1535 534.8(6) 521.2245 516.7812
1720 18.1616 534.8(6) 521.8672 517.0637
1721 18.1694 535.1(6) 523.0513 517.3425
1722 18.1775 536.7(6) 525.0607 517.6250
1723 18.1854 538.5(6) 528.2143 517.9039
1724 18.1932 541.2(6) 532.8059 518.1827
1725 18.2013 544.9(6) 539.0588 518.4651
1726 18.2092 550.2(6) 546.6161 518.7440
1727 18.2171 556.6(6) 555.0051 519.0264
1728 18.2250 561.6(6) 562.8901 519.3053
1729 18.2330 566.4(6) 568.9706 519.5876
1730 18.2409 567.6(6) 571.6556 519.8665
1731 18.2489 565.9(6) 570.2794 520.1489
1732 18.2568 563.0(6) 565.3572 520.4278
1733 18.2648 557.0(6) 558.1376 520.7102
1734 18.2727 550.7(6) 550.3087 520.9891
1735 18.2808 545.2(6) 542.9100 521.2715
1736 18.2887 539.9(6) 536.8796 521.5504
1737 18.2966 537.3(6) 532.3585 521.8328
1738 18.3046 535.9(6) 529.3704 522.1116
1739 18.3125 534.8(6) 527.5513 522.3905
1740 18.3204 533.9(6) 526.5681 522.6729
1741 18.3284 533.6(6) 526.0588 522.9518
1742 18.3363 533.6(6) 525.9308 523.2342
1743 18.3442 533.8(6) 525.9854 523.5131
1744 18.3522 533.7(6) 526.1196 523.7954
1745 18.3601 533.4(6) 526.3011 524.0743
1746 18.3681 533.4(6) 526.5143 524.3567
1747 18.3760 532.9(6) 526.7457 524.6356
1748 18.3841 532.8(6) 526.9972 524.9180
1749 18.3919 532.6(6) 527.2617 525.1968
1750 18.4000 532.5(6) 527.5479 525.4793
1751 18.4079 533.0(6) 527.8539 525.7582
1752 18.4158 533.8(6) 528.2013 526.0405
1753 18.4237 534.1(6) 528.6099 526.3195
1754 18.4317 534.8(6) 529.1379 526.5983
1755 18.4396 535.8(6) 529.8092 526.8807
1756 18.4475 536.9(6) 530.9189 527.1596
1757 18.4555 538.8(6) 532.6131 527.4420
1758 18.4634 541.6(6) 535.0685 527.7208
1759 18.4714 545.3(6) 538.5205 528.0032
1760 18.4793 549.9(6) 542.9082 528.2821
1761 18.4874 555.3(6) 548.1208 528.5646
1762 18.4952 561.1(6) 553.5054 528.8434
1763 18.5033 566.2(6) 558.3854 529.1258
1764 18.5112 569.5(6) 561.6771 529.4047
1765 18.5191 570.6(6) 562.6495 529.6871
1766 18.5271 570.5(6) 561.0800 529.9659
1767 18.5350 567.7(6) 557.4833 530.2484
1768 18.5429 563.5(6) 552.8863 530.5272
1769 18.5508 558.4(6) 548.1656 530.8061
1770 18.5588 552.9(6) 544.0402 531.0885
1771 18.5667 549.2(6) 540.8773 531.3674
1772 18.5747 547.6(6) 538.8339 531.6498
1773 18.5826 548.1(6) 537.9531 531.9286
1774 18.5906 550.9(6) 538.1345 532.2110
1775 18.5985 556.4(6) 539.2881 532.4899
1776 18.6066 564.7(6) 541.3486 532.7723
1777 18.6145 574.6(6) 544.1164 533.0512
1778 18.6224 586.7(6) 547.3914 533.3336
1779 18.6304 595.4(6) 550.6533 533.6125
1780 18.6383 601.1(6) 553.4705 533.8949
1781 18.6462 602.2(6) 555.1572 534.1738
1782 18.6542 597.7(6) 555.3437 534.4561
1783 18.6621 592.5(6) 554.0695 534.7350
1784 18.6700 583.7(6) 551.7401 535.0139
1785 18.6780 574.8(6) 548.6793 535.2963
1786 18.6859 565.7(6) 545.9523 535.5751
1787 18.6939 557.5(6) 543.6193 535.8575
1788 18.7018 551.2(6) 541.9045 536.1364
1789 18.7099 545.9(6) 540.7768 536.4189
1790 18.7177 542.3(6) 540.1747 536.6977
1791 18.7257 540.2(6) 539.9495 536.9801
1792 18.7337 538.7(6) 539.9822 537.2590
1793 18.7416 538.1(6) 540.1753 537.5414
1794 18.7495 537.7(6) 540.4604 537.8203
1795 18.7575 537.5(6) 540.8077 538.1027
1796 18.7654 537.5(6) 541.1902 538.3815
1797 18.7734 537.6(6) 541.6101 538.6639
1798 18.7813 538.2(6) 542.0656 538.9428
1799 18.7892 538.2(6) 542.5431 539.2217
1800 18.7972 538.9(6) 543.0632 539.5040
1801 18.8051 539.4(6) 543.5377 539.7830
1802 18.8132 539.9(6) 544.1517 540.0654
1803 18.8210 541.3(6) 544.8182 540.3442
1804 18.8291 542.4(6) 545.5719 540.6266
1805 18.8370 543.9(6) 546.4235 540.9055
1806 18.8449 546.2(6) 547.4552 541.1879
1807 18.8528 549.2(6) 548.7659 541.4668
1808 18.8608 552.7(6) 550.6523 541.7491
1809 18.8687 557.4(6) 553.5792 542.0281
1810 18.8767 563.3(6) 558.5165 542.3104
1811 18.8846 571.8(6) 566.9415 542.5893
1812 18.8926 585.3(6) 581.2166 542.8717
1813 18.9005 603.5(6) 603.6061 543.1506
1814 18.9084 630.2(6) 636.6872 543.4294
1815 18.9165 664.1(6) 682.3822 543.7119
1816 18.9243 708.6(7) 738.3784 543.9907
1817 18.9324 753.7(7) 801.5223 544.2732
1818 18.9403 791.2(7) 862.0394 544.5521
1819 18.9482 820.1(7) 910.3280 544.8344
1820 18.9562 829.0(7) 934.0465 545.1133
1821 18.9641 824.8(7) 927.3408 545.3957
1822 18.9720 809.8(7) 892.9944 545.6746
1823 18.9800 780.1(7) 840.0748 545.9570
1824 18.9879 746.9(7) 781.3901 546.2358
1825 18.9959 710.4(7) 725.0552 546.5182
1826 19.0038 675.6(6) 678.4498 546.7971
1827 19.0119 648.0(6) 642.2351 547.0795
1828 19.0197 624.6(6) 616.6414 547.3584
1829 19.0276 605.1(6) 598.7770 547.6373
1830 19.0357 588.7(6) 586.1274 547.9197
1831 19.0436 576.0(6) 577.1629 548.1986
1832 19.0515 565.6(6) 570.4520 548.4810
1833 19.0595 557.3(6) 565.4905 548.7598
1834 19.0674 552.3(6) 561.7810 549.0422
1835 19.0753 548.8(6) 559.1750 549.3211
1836 19.0833 546.5(6) 557.3923 549.6035
1837 19.0912 544.4(6) 556.0509 549.6628
1838 19.0992 542.7(6) 554.9883 549.5634
1839 19.1071 542.2(6) 554.2360 549.4653
1840 19.1152 541.7(6) 553.6635 549.3658
1841 19.1230 541.4(6) 553.2147 549.2677
1842 19.1311 541.1(6) 552.8353 549.1683
1843 19.1390 540.4(6) 552.5111 549.0701
1844 19.1468 540.3(6) 552.2244 548.9720
1845 19.1549 541.0(6) 551.9641 548.8726
1846 19.1628 541.6(6) 551.7326 548.7745
1847 19.1707 542.5(6) 551.5205 548.6750
1848 19.1786 543.5(6) 551.3329 548.5769
1849 19.1866 544.6(6) 551.1581 548.4775
1850 19.1945 546.7(6) 551.0004 548.3794
1851 19.2025 547.7(6) 550.8597 548.2800
1852 19.2104 549.0(6) 550.7253 548.1818
1853 19.2185 548.6(6) 550.5990 548.0824
1854 19.2263 548.3(6) 550.5255 547.9843
1855 19.2344 548.1(6) 550.4229 547.8849
1856 19.2423 548.2(6) 550.3375 547.7867
1857 19.2502 549.6(6) 550.2704 547.6873
1858 19.2582 552.1(6) 550.2256 547.5892
1859 19.2661 559.3(6) 550.2019 547.4910
1860 19.2740 565.0(6) 550.1968 547.3916
1861 19.2819 569.6(6) 550.2051 547.2935
1862 19.2899 574.7(6) 550.2205 547.1941
1863 19.2978 576.4(6) 550.2380 547.0959
1864 19.3058 577.2(6) 550.2614 546.9965
1865 19.3137 573.7(6) 550.3087 546.8984
1866 19.3217 566.6(6) 550.4142 546.7990
1867 19.3296 558.9(6) 550.6682 546.7009
1868 19.3377 556.1(6) 551.2048 546.6014
1869 19.3456 556.3(6) 552.2318 546.5033
1870 19.3535 558.7(6) 554.1122 546.4039
1871 19.3615 563.5(6) 557.2323 546.3057
1872 19.3694 570.4(6) 562.1428 546.2064
1873 19.3773 580.9(6) 569.0624 546.1082
1874 19.3853 593.6(6) 578.0573 546.0100
1875 19.3932 609.2(6) 588.7585 545.9106
1876 19.4011 620.3(6) 599.7468 545.8125
1877 19.4091 628.3(6) 609.5234 545.7131
1878 19.4170 633.5(6) 615.7960 545.6149
1879 19.4250 627.7(6) 617.0275 545.5156
1880 19.4329 623.4(6) 612.8384 545.4174
1881 19.4410 610.3(6) 604.3549 545.3180
1882 19.4488 597.4(6) 593.8004 545.2198
1883 19.4569 586.5(6) 582.8599 545.1204
1884 19.4648 576.1(6) 573.2407 545.0223
1885 19.4727 569.4(6) 565.4952 544.9229
1886 19.4806 564.1(6) 560.0061 544.8248
1887 19.4886 560.9(6) 556.4047 544.7253
1888 19.4965 559.5(6) 554.3536 544.6272
1889 19.5044 558.7(5) 553.3580 544.5291
1890 19.5124 559.3(5) 553.0691 544.4297
1891 19.5203 560.5(5) 553.2775 544.3315
1892 19.5283 562.5(6) 553.9212 544.2321
1893 19.5362 566.0(6) 555.0930 544.1340
1894 19.5443 570.9(6) 557.1852 544.0345
1895 19.5521 577.5(6) 560.8833 543.9364
1896 19.5602 587.1(6) 567.6085 543.8370
1897 19.5681 599.9(6) 579.2052 543.7388
1898 19.5760 619.0(6) 598.7021 543.6395
1899 19.5840 645.0(6) 628.5747 543.5413
1900 19.5919 683.6(6) 672.0165 543.4419
1901 19.5998 733.1(6) 728.1643 543.3438
1902 19.6078 793.5(6) 795.6000 543.2444
1903 19.6157 870.0(7) 865.7484 543.1462
1904 19.6236 937.5(7) 928.7856 543.0481
1905 19.6316 981.9(7) 972.3123 542.9487
1906 19.6395 1000.2(7) 984.2206 542.8505
1907 19.6475 970.5(7) 961.6311 542.7512
1908 19.6554 916.4(7) 911.9987 542.6530
1909 19.6635 856.6(7) 847.1022 542.5536
1910 19.6714 782.0(6) 781.5162 542.4554
1911 19.6793 728.9(6) 723.7662 542.3560
1912 19.6873 695.1(6) 681.2572 542.2579
1913 19.6952 674.2(6) 654.8704 542.1585
1914 19.7031 673.6(6) 643.8741 542.0603
1915 19.7111 687.4(6) 644.3112 541.9609
1916 19.7190 711.8(6) 651.3134 541.8628
1917 19.7270 741.6(6) 659.6863 541.7634
1918 19.7349 769.5(6) 664.3201 541.6652
1919 19.7428 776.9(6) 662.0033 541.5671
1920 19.7508 765.4(6) 652.0413 541.4677
1921 19.7587 731.9(6) 636.6602 541.3695
1922 19.7668 687.2(6) 618.5318 541.2701
1923 19.7746 644.0(6) 601.1121 541.1720
1924 19.7826 612.0(6) 586.1304 541.0726
1925 19.7906 589.4(5) 575.2037 540.9744
1926 19.7985 577.3(5) 568.5077 540.8751
1927 19.8064 572.3(5) 566.1310 540.7769
1928 19.8144 573.8(5) 567.6486 540.6775
1929 19.8223 580.4(5) 572.4825 540.5793
1930 19.8303 591.2(5) 579.9707 540.4800
1931 19.8382 606.8(6) 588.8154 540.3818
1932 19.8463 623.6(6) 597.7026 540.2824
1933 19.8541 635.0(6) 604.5779 540.1843
1934 19.8622 640.7(6) 607.8117 540.0848
1935 19.8701 637.5(6) 606.3279 539.9867
1936 19.8779 625.4(6) 600.5949 539.8885
1937 19.8860 611.3(5) 591.9739 539.7891
1938 19.8939 595.3(5) 582.4656 539.6910
1939 19.9018 582.0(5) 573.3481 539.5916
1940 19.9097 573.7(5) 565.8220 539.4935
1941 19.9177 567.9(5) 560.1278 539.3940
1942 19.9256 564.7(5) 556.3792 539.2959
1943 19.9336 562.8(5) 554.1793 539.1965
1944 19.9415 562.4(5) 553.1968 539.0983
1945 19.9495 562.5(5) 553.0566 538.9990
1946 19.9574 562.9(5) 553.5259 538.9008
1947 19.9655 564.7(5) 554.5122 538.8014
1948 19.9734 567.5(5) 556.0457 538.7032
1949 19.9813 571.9(5) 558.4471 538.6039
1950 19.9893 578.4(5) 562.3058 538.5057
1951 19.9972 587.6(5) 568.9133 538.4075
1952 20.0051 600.9(5) 580.7006 538.3082
1953 20.0131 621.0(5) 600.9736 538.2100
1954 20.0210 653.0(6) 635.3506 538.1106
1955 20.0289 699.5(6) 688.9183 538.0125
1956 20.0369 764.7(6) 768.4720 537.9131
1957 20.0448 860.1(6) 874.7542 537.8149
1958 20.0528 971.4(7) 1007.3514 537.7155
1959 20.0607 1097.6(7) 1152.4043 537.6174
1960 20.0688 1212.3(8) 1294.6084 537.5179
1961 20.0766 1313.9(8) 1405.4788 537.4198
1962 20.0847 1385.9(8) 1462.4221 537.3204
1963 20.0926 1369.9(8) 1449.6478 537.2223
1964 20.1005 1321.4(8) 1371.3857 537.1229
1965 20.1084 1191.1(7) 1248.9802 537.0247
1966 20.1164 1053.9(7) 1106.2590 536.9266
1967 20.1243 919.1(6) 963.7800 536.8271
1968 20.1322 802.9(6) 840.9442 536.7290
1969 20.1402 724.2(6) 742.6787 536.6296
1970 20.1481 668.2(5) 672.3726 536.5315
1971 20.1561 634.6(5) 624.6178 536.4321
1972 20.1640 612.5(5) 595.0574 536.3339
1973 20.1721 599.1(5) 577.3281 536.2345
1974 20.1799 590.2(5) 567.4470 536.1364
1975 20.1880 583.8(5) 562.0754 536.0370
1976 20.1959 580.5(5) 559.5817 535.9388
1977 20.2038 579.1(5) 559.0710 535.8394
1978 20.2118 580.1(5) 560.4106 535.7413
1979 20.2197 583.9(5) 563.9692 535.6419
1980 20.2276 590.7(5) 570.3472 535.5438
1981 20.2355 601.7(5) 580.5240 535.4456
1982 20.2435 617.6(5) 595.8091 535.3462
1983 20.2514 638.6(5) 616.7997 535.2480
1984 20.2594 663.9(5) 644.4794 535.1486
1985 20.2673 696.0(5) 677.6044 535.0505
1986 20.2753 733.0(5) 714.9630 534.9511
1987 20.2832 771.9(5) 751.8925 534.8530
1988 20.2913 810.0(5) 783.9862 534.7535
1989 20.2992 837.0(6) 804.4210 534.6554
1990 20.3071 857.2(6) 808.2690 534.5560
1991 20.3151 850.2(6) 793.4308 534.4578
1992 20.3230 821.2(6) 762.3143 534.3585
1993 20.3309 779.9(5) 722.4125 534.2603
1994 20.3389 723.8(5) 679.8838 534.1609
1995 20.3468 678.6(5) 641.3072 534.0627
1996 20.3547 635.5(5) 609.4437 533.9646
1997 20.3627 609.1(5) 585.2012 533.8652
1998 20.3706 590.5(5) 568.6929 533.7670
1999 20.3786 578.7(5) 558.0701 533.6677
2000 20.3865 572.5(5) 551.9493 533.5695
2001 20.3946 568.8(5) 548.7202 533.4701
2002 20.4024 567.7(5) 547.4219 533.3719
2003 20.4104 567.9(5) 547.3417 533.2725
2004 20.4184 568.5(5) 548.0117 533.1744
2005 20.4263 569.7(5) 549.1204 533.0750
2006 20.4342 570.7(5) 550.3244 532.9769
2007 20.4422 572.2(5) 551.3257 532.8774
2008 20.4501 573.7(5) 551.8155 532.7793
2009 20.4581 572.9(5) 551.6808 532.6799
2010 20.4660 571.5(5) 551.0653 532.5818
2011 20.4739 568.8(5) 550.3158 532.4836
2012 20.4819 568.2(5) 549.8212 532.3842
2013 20.4898 568.5(5) 549.9163 532.2861
2014 20.4979 569.6(5) 550.7268 532.1866
2015 20.5057 571.3(5) 552.1600 532.0885
2016 20.5138 573.5(5) 553.9914 531.9891
2017 20.5217 575.7(5) 555.7245 531.8909
2018 20.5296 577.1(5) 556.9119 531.7916
2019 20.5375 578.0(5) 557.1866 531.6934
2020 20.5455 577.9(5) 556.5781 531.6151
2021 20.5534 577.4(5) 555.8132 531.9321
2022 20.5614 577.5(5) 555.0149 532.2531
2023 20.5693 577.9(5) 554.7432 532.5701
2024 20.5773 580.1(5) 555.7048 532.8911
2025 20.5852 584.6(5) 558.8004 533.2081
2026 20.5931 592.0(5) 565.4091 533.5251
2027 20.6012 604.3(5) 577.7767 533.8461
2028 20.6090 624.0(5) 598.3628 534.1631
2029 20.6171 654.7(5) 630.8933 534.4841
2030 20.6250 705.5(5) 677.1571 534.8011
2031 20.6329 772.0(5) 739.1068 535.1221
2032 20.6409 856.5(6) 812.7857 535.4391
2033 20.6488 952.1(6) 893.5239 535.7601
2034 20.6567 1032.6(6) 969.1345 536.0771
2035 20.6647 1107.7(6) 1028.9659 536.3981
2036 20.6726 1138.0(6) 1060.9489 536.7151
2037 20.6806 1135.5(6) 1063.0096 537.0361
2038 20.6885 1115.8(6) 1042.5688 537.3531
2039 20.6966 1089.3(6) 1012.0989 537.6741
2040 20.7044 1098.8(6) 983.4323 537.9911
2041 20.7123 1114.0(6) 961.5154 538.3081
2042 20.7204 1140.6(6) 944.9439 538.6292
2043 20.7283 1137.2(6) 927.7185 538.9462
2044 20.7362 1104.3(6) 902.2161 539.2672
2045 20.7442 1043.6(6) 866.3951 539.5842
2046 20.7521 957.0(6) 823.0925 539.9052
2047 20.7600 883.0(6) 781.3889 540.2222
2048 20.7680 826.6(5) 749.6429 540.5432
2049 20.7759 803.9(5) 737.4949 540.8601
2050 20.7839 813.1(5) 752.2064 541.1812
2051 20.7918 861.0(6) 798.1044 541.4981
2052 20.7999 953.0(6) 876.8689 541.8192
2053 20.8077 1074.9(6) 981.2595 542.1361
2054 20.8158 1222.5(7) 1101.8663 542.4572
2055 20.8237 1369.8(7) 1217.1705 542.7742
2056 20.8315 1488.7(7) 1305.9563 543.0911
2057 20.8396 1526.5(7) 1346.3899 543.4122
2058 20.8475 1508.5(7) 1325.3805 543.7292
2059 20.8554 1418.7(7) 1247.9363 544.0502
2060 20.8633 1271.0(7) 1135.1550 544.3672
2061 20.8713 1121.8(6) 1007.3870 544.6882
2062 20.8792 950.2(6) 886.9927 545.0052
2063 20.8872 836.4(5) 783.5729 545.3262
2064 20.8951 754.3(5) 705.1147 545.6432
2065 20.9031 692.6(5) 649.2199 545.9642
2066 20.9110 653.2(5) 613.3074 546.2811
2067 20.9191 629.3(5) 591.1654 546.6022
2068 20.9270 611.6(5) 578.5117 546.9193
2069 20.9349 598.8(5) 571.2709 547.2402
2070 20.9429 590.5(5) 567.1860 547.5572
2071 20.9508 583.5(5) 564.7106 547.8742
2072 20.9587 577.9(5) 563.0851 548.1952
2073 20.9667 574.0(5) 561.9540 548.5122
2074 20.9746 571.1(5) 561.1002 548.8332
2075 20.9825 568.3(5) 560.4534 549.1502
2076 20.9905 566.6(5) 559.9482 549.4712
2077 20.9984 564.6(4) 559.5679 549.7882
2078 21.0064 563.1(4) 559.2823 550.1092
2079 21.0143 562.7(4) 559.0844 550.4262
2080 21.0224 562.2(4) 558.9585 550.7473
2081 21.0302 562.0(4) 558.9291 551.0642
2082 21.0382 561.2(4) 558.9423 551.3853
2083 21.0462 561.0(4) 559.0329 551.7023
2084 21.0541 560.9(4) 559.2237 552.0233
2085 21.0620 560.6(4) 559.5439 552.3402
2086 21.0700 561.1(4) 560.0406 552.6572
2087 21.0779 561.4(4) 560.7722 552.9782
2088 21.0858 562.3(4) 561.7545 553.2952
2089 21.0938 564.0(4) 563.0081 553.6162
2090 21.1017 566.2(4) 564.4380 553.9332
2091 21.1097 568.5(5) 565.9429 554.2542
2092 21.1176 571.0(5) 567.2867 554.5712
2093 21.1257 572.5(5) 568.2703 554.8923
2094 21.1335 572.8(5) 568.6875 555.2092
2095 21.1416 571.4(5) 568.5175 555.5303
2096 21.1495 569.2(4) 567.9141 555.8473
2097 21.1574 566.3(4) 567.0721 556.1683
2098 21.1653 564.3(4) 566.5708 556.4853
2099 21.1733 562.3(4) 565.7488 556.8063
2100 21.1812 561.7(4) 565.3203 557.1233
2101 21.1891 561.6(4) 565.1358 557.4402
2102 21.1971 561.9(4) 565.2188 557.7612
2103 21.2050 562.4(4) 565.5008 558.0782
2104 21.2130 562.7(4) 566.0180 558.3992
2105 21.2209 563.2(4) 566.5705 558.7162
2106 21.2290 563.9(4) 567.2247 559.0373
2107 21.2368 564.7(4) 567.9543 559.3542
2108 21.2449 565.5(4) 568.7792 559.6753
2109 21.2528 566.5(4) 569.6870 559.9923
2110 21.2607 568.3(4) 570.7173 560.3133
2111 21.2687 569.9(4) 571.8705 560.6303
2112 21.2766 572.4(4) 573.2209 560.9513
2113 21.2845 575.6(5) 574.8193 561.2683
2114 21.2925 579.5(5) 576.8823 561.5893
2115 21.3004 585.6(5) 579.7203 561.9063
2116 21.3083 592.3(5) 584.0745 562.2233
2117 21.3163 601.9(5) 591.4045 562.5443
2118 21.3242 616.5(5) 603.8347 562.8613
2119 21.3322 639.0(5) 625.2424 563.1823
2120 21.3401 673.5(5) 659.7153 563.4993
2121 21.3482 732.1(5) 713.1766 563.8203
2122 21.3561 813.8(5) 788.0721 564.1373
2123 21.3640 930.4(6) 886.7902 564.4583
2124 21.3720 1106.3(6) 1001.5653 564.7753
2125 21.3799 1295.0(7) 1123.2461 565.0963
2126 21.3878 1462.6(7) 1230.5166 565.4133
2127 21.3958 1603.8(8) 1303.8158 565.7343
2128 21.4037 1639.2(8) 1322.8918 566.0513
2129 21.4117 1581.6(7) 1282.9000 566.3723
2130 21.4196 1431.8(7) 1196.6460 566.6893
2131 21.4275 1229.0(7) 1085.1768 567.0063
2132 21.4355 1051.4(6) 968.4442 567.3273
2133 21.4434 911.7(6) 865.9195 567.6443
2134 21.4515 808.7(5) 784.8555 567.9654
2135 21.4593 743.1(5) 730.1463 568.2823
2136 21.4674 704.4(5) 697.7825 568.6034
2137 21.4753 680.7(5) 682.8489 568.9203
2138 21.4832 669.8(5) 677.9687 569.2413
2139 21.4911 660.2(5) 676.8359 569.5583
2140 21.4991 655.4(5) 674.6064 569.8793
2141 21.5070 647.1(5) 669.2850 570.1964
2142 21.5150 641.4(5) 661.3897 570.5173
2143 21.5229 634.6(5) 653.2410 570.8344
2144 21.5310 630.9(5) 646.8080 571.1554
2145 21.5388 628.9(5) 643.7091 571.4724
2146 21.5467 630.1(5) 644.1398 571.7894
2147 21.5548 633.5(5) 647.3057 572.1104
2148 21.5626 638.6(5) 651.4266 572.4274
2149 21.5707 640.7(5) 654.6856 572.7484
2150 21.5786 639.4(5) 655.8661 573.0654
2151 21.5865 635.9(5) 655.4598 573.3864
2152 21.5944 632.0(5) 655.3262 573.7034
2153 21.6024 636.6(5) 657.6832 574.0244
2154 21.6103 647.3(5) 663.9637 574.3414
2155 21.6183 666.5(5) 674.4659 574.6624
2156 21.6262 689.8(5) 687.4369 574.9794
2157 21.6342 711.1(5) 700.1879 575.3004
2158 21.6421 725.5(5) 708.6243 575.6174
2159 21.6502 724.3(5) 709.5201 575.9384
2160 21.6581 710.9(5) 701.7975 576.2554
2161 21.6659 687.7(5) 687.2007 576.5724
2162 21.6740 660.1(5) 668.7050 576.8934
2163 21.6819 637.5(5) 649.9389 577.2104
2164 21.6898 617.2(5) 632.9838 577.5314
2165 21.6978 603.3(5) 619.6820 577.8484
2166 21.7057 596.4(5) 610.1318 578.1694
2167 21.7136 593.8(5) 604.2880 578.4865
2168 21.7216 594.6(5) 601.4015 578.8074
2169 21.7295 597.1(5) 601.0082 579.1244
2170 21.7375 601.6(5) 602.9130 579.4454
2171 21.7454 608.9(5) 607.4712 579.7624
2172 21.7535 618.6(5) 615.8320 580.0835
2173 21.7613 632.0(5) 629.6003 580.4004
2174 21.7694 652.2(5) 651.9398 580.7214
2175 21.7773 677.7(5) 685.1462 581.0385
2176 21.7852 713.2(5) 731.9185 581.3555
2177 21.7931 761.2(5) 794.0052 581.6765
2178 21.8011 816.0(5) 867.9409 581.9935
2179 21.8090 878.5(6) 949.9044 582.3145
2180 21.8169 945.0(6) 1028.3982 582.6315
2181 21.8249 1003.2(6) 1092.5641 582.9525
2182 21.8328 1035.7(6) 1128.3916 583.2695
2183 21.8408 1052.8(6) 1129.6721 583.5905
2184 21.8487 1035.5(6) 1098.1960 583.9075
2185 21.8568 1008.1(6) 1041.1174 584.2285
2186 21.8646 956.3(6) 969.9020 584.5454
2187 21.8727 888.9(6) 893.4165 584.8665
2188 21.8806 823.8(5) 823.1373 585.1835
2189 21.8885 763.8(5) 764.1771 585.5045
2190 21.8965 719.4(5) 721.5858 585.8215
2191 21.9044 692.2(5) 695.4150 586.1425
2192 21.9123 681.3(5) 685.8355 586.4595
2193 21.9202 688.8(5) 690.9807 586.7765
2194 21.9282 714.6(5) 708.8506 587.0975
2195 21.9361 753.5(5) 735.7808 587.4145
2196 21.9441 806.3(5) 767.9847 587.7355
2197 21.9520 853.4(5) 798.9523 588.0525
2198 21.9600 888.6(6) 823.0212 588.3735
2199 21.9679 897.8(6) 833.5953 588.6905
2200 21.9760 885.2(6) 827.4205 589.0115
2201 21.9839 848.5(5) 805.9023 589.3286
2202 21.9918 796.8(5) 773.7876 589.6495
2203 21.9998 742.5(5) 738.2726 589.9666
2204 22.0077 690.0(5) 703.8331 590.1226
2205 22.0156 655.5(5) 674.9628 590.1138
2206 22.0236 633.3(5) 652.8607 590.1049
2207 22.0315 622.0(5) 638.2772 590.0961
2208 22.0394 618.3(5) 630.2515 590.0873
2209 22.0474 619.0(5) 627.9969 590.0784
2210 22.0553 624.6(5) 631.0868 590.0696
2211 22.0633 634.3(5) 639.5533 590.0608
2212 22.0712 650.7(5) 653.3448 590.0520
2213 22.0793 672.9(5) 672.6823 590.0431
2214 22.0871 698.4(5) 696.1061 590.0343
2215 22.0951 724.9(5) 721.9982 590.0255
2216 22.1031 749.6(5) 746.2246 590.0167
2217 22.1110 765.4(5) 764.9767 590.0078
2218 22.1189 774.2(5) 773.7174 589.9990
2219 22.1269 772.7(5) 770.8474 589.9901
2220 22.1348 762.1(5) 758.2415 589.9813
2221 22.1427 748.2(5) 740.3544 589.9725
2222 22.1507 733.6(5) 722.2781 589.9636
2223 22.1586 726.6(5) 709.8687 589.9548
2224 22.1666 728.1(5) 708.5454 589.9460
2225 22.1745 741.9(5) 724.9722 589.9372
2226 22.1826 769.0(5) 768.2725 589.9283
2227 22.1904 818.1(5) 848.1456 589.9195
2228 22.1985 891.4(6) 978.7781 589.9106
2229 22.2064 1000.2(6) 1166.5222 589.9019
2230 22.2143 1140.5(6) 1418.4092 589.8929
2231 22.2222 1303.4(7) 1717.5621 589.8842
2232 22.2302 1458.2(7) 2044.0895 589.8752
2233 22.2381 1599.9(7) 2347.2190 589.8665
2234 22.2461 1690.0(8) 2581.2649 589.8576
2235 22.2540 1744.1(8) 2692.5271 589.8488
2236 22.2620 1764.5(8) 2663.3032 589.8399
2237 22.2699 1782.5(8) 2515.0889 589.8312
2238 22.2778 1781.9(8) 2294.3682 589.8224
2239 22.2859 1774.1(8) 2044.1525 589.8135
2240 22.2937 1755.5(8) 1803.2596 589.8047
2241 22.3018 1675.6(8) 1581.1287 589.7958
2242 22.3097 1555.8(7) 1387.0044 589.7870
2243 22.3176 1377.4(7) 1215.9609 589.7781
2244 22.3256 1201.4(6) 1072.0708 589.7693
2245 22.3335 1042.1(6) 951.7307 589.7604
2246 22.3414 913.4(6) 857.4183 589.7517
2247 22.3494 828.6(5) 785.7551 589.7428
2248 22.3573 772.9(5) 736.9201 589.7340
2249 22.3653 745.0(5) 707.5782 589.7251
2250 22.3732 735.8(5) 696.4335 589.7163
2251 22.3813 742.8(5) 701.8295 589.7075
2252 22.3891 762.6(5) 723.1801 589.6987
2253 22.3970 797.2(5) 760.5217 589.6899
2254 22.4051 840.5(5) 814.1348 589.6810
2255 22.4130 898.7(5) 880.2241 589.6722
2256 22.4209 957.6(6) 954.7924 589.6633
2257 22.4289 1015.8(6) 1026.9625 589.6545
2258 22.4368 1066.0(6) 1086.6693 589.6456
2259 22.4447 1090.5(6) 1119.8774 589.6368
2260 22.4527 1096.6(6) 1117.7256 589.6280
2261 22.4606 1059.7(6) 1079.1350 589.6192
2262 22.4686 1003.1(6) 1012.2749 589.6103
2263 22.4765 929.2(6) 932.6439 589.6015
2264 22.4846 854.0(5) 851.5176 589.5927
2265 22.4924 794.3(5) 780.3334 589.5839
2266 22.5005 741.5(5) 722.7207 589.5750
2267 22.5084 703.4(5) 681.1961 589.5662
2268 22.5162 675.4(5) 653.3688 589.5574
2269 22.5243 656.7(5) 636.2458 589.5485
2270 22.5322 644.1(5) 627.4175 589.5397
2271 22.5401 636.8(5) 624.5408 589.5308
2272 22.5480 634.3(5) 626.6156 589.5220
2273 22.5560 636.5(5) 633.4551 589.5132
2274 22.5639 646.1(5) 645.0486 589.5044
2275 22.5719 664.7(5) 661.6649 589.4955
2276 22.5798 692.3(5) 682.1309 589.4867
2277 22.5878 723.3(5) 705.0344 589.4778
2278 22.5957 755.6(5) 726.7538 589.4691
2279 22.6038 783.8(5) 743.8087 589.4601
2280 22.6117 797.6(5) 751.9612 589.4514
2281 22.6196 791.3(5) 749.4736 589.4425
2282 22.6276 774.2(5) 737.5259 589.4337
2283 22.6355 746.4(5) 719.4834 589.4249
2284 22.6434 719.4(5) 698.9824 589.4160
2285 22.6514 693.5(5) 680.2745 589.4072
2286 22.6593 674.3(5) 666.1136 589.3984
2287 22.6672 667.1(5) 659.3368 589.3896
2288 22.6752 669.9(5) 661.7216 589.3807
2289 22.6831 681.7(5) 674.3843 589.3719
2290 22.6911 702.2(5) 698.3427 589.3630
2291 22.6990 729.4(5) 732.7457 589.3542
2292 22.7071 760.6(5) 776.9092 589.3453
2293 22.7149 797.5(5) 826.5332 589.3365
2294 22.7229 829.1(5) 877.8768 589.3277
2295 22.7309 857.6(5) 923.5358 589.3189
2296 22.7388 875.4(5) 959.2139 589.3100
2297 22.7467 897.2(5) 980.9099 589.3012
2298 22.7547 902.9(5) 987.7505 589.2924
2299 22.7626 895.0(5) 978.5464 589.2836
2300 22.7705 876.5(5) 954.8245 589.2748
2301 22.7785 848.6(5) 921.2573 589.2659
2302 22.7864 824.6(5) 886.6760 589.2571
2303 22.7944 807.3(5) 857.5250 589.2482
2304 22.8023 795.7(5) 838.4845 589.2394
2305 22.8104 796.3(5) 829.0455 589.2305
2306 22.8182 796.8(5) 825.8228 589.2217
2307 22.8263 795.5(5) 822.7521 589.2128
2308 22.8342 789.1(5) 814.1483 589.2041
2309 22.8421 778.6(5) 797.0459 589.1952
2310 22.8500 761.2(5) 773.3979 589.1864
2311 22.8580 740.1(5) 746.7014 589.1775
2312 22.8659 716.4(5) 721.7516 589.1688
2313 22.8738 690.7(5) 701.0950 589.1600
2314 22.8818 671.3(5) 685.4852 589.1511
2315 22.8897 655.3(5) 674.7136 589.1423
2316 22.8977 641.4(5) 666.7415 589.1334
2317 22.9056 634.2(5) 659.8303 589.1246
2318 22.9137 627.8(5) 652.6135 589.1157
2319 22.9215 622.8(5) 645.2308 589.1069
2320 22.9296 619.1(5) 638.0773 589.0980
2321 22.9375 617.6(5) 632.2166 589.0892
2322 22.9454 618.2(5) 627.8644 589.0804
2323 22.9534 620.3(5) 625.0775 589.0716
2324 22.9613 622.3(5) 623.3630 589.0627
2325 22.9692 622.3(5) 622.0181 589.0539
2326 22.9772 620.2(5) 620.3571 589.0450
2327 22.9851 615.3(4) 618.2261 589.0363
2328 22.9930 609.4(4) 615.9614 589.0275
2329 23.0010 604.8(4) 614.2532 589.0186
2330 23.0089 601.5(4) 613.9667 589.0098
2331 23.0169 602.1(4) 615.8395 589.0009
2332 23.0248 605.4(4) 620.2740 588.9921
2333 23.0329 614.1(4) 627.3573 588.9832
2334 23.0408 623.4(5) 636.2716 588.9744
2335 23.0487 632.9(5) 645.9534 588.9656
2336 23.0567 645.6(5) 654.3588 588.9568
2337 23.0646 649.4(5) 659.6201 588.9479
2338 23.0725 653.2(5) 660.1366 588.9391
2339 23.0805 647.1(5) 655.6344 588.9302
2340 23.0884 637.5(5) 647.4105 588.9214
2341 23.0964 626.5(5) 637.1536 588.9125
2342 23.1043 613.6(4) 626.8897 588.9037
2343 23.1122 603.4(4) 617.7833 588.8950
2344 23.1202 594.0(4) 610.4592 588.8861
2345 23.1281 588.1(4) 605.2641 588.8773
2346 23.1362 584.0(4) 601.8521 588.8684
2347 23.1440 581.5(4) 599.9206 588.8596
2348 23.1521 580.6(4) 599.0140 588.8508
2349 23.1600 580.4(4) 598.8353 588.8420
2350 23.1679 580.3(4) 599.1402 588.8331
2351 23.1758 580.3(4) 599.7358 588.8243
2352 23.1838 580.6(4) 600.4627 588.8154
2353 23.1917 580.5(4) 601.1256 588.8066
2354 23.1997 581.4(4) 601.5664 588.7977
2355 23.2076 582.7(4) 601.6657 588.7889
2356 23.2156 583.3(4) 601.3938 588.7801
2357 23.2235 584.0(4) 600.9306 588.7713
2358 23.2314 583.1(4) 600.4061 588.7625
2359 23.2395 583.1(4) 599.9598 588.7536
2360 23.2473 583.3(4) 599.7099 588.7448
2361 23.2554 585.5(4) 599.7128 588.7360
2362 23.2633 587.7(4) 599.9938 588.7272
2363 23.2712 589.8(4) 600.5685 588.7183
2364 23.2792 591.9(4) 601.4435 588.7095
2365 23.2871 595.3(4) 602.7167 588.7006
2366 23.2950 600.2(4) 604.5602 588.6918
2367 23.3030 608.0(4) 607.4440 588.6829
2368 23.3109 617.2(4) 612.2759 588.6741
2369 23.3189 629.5(5) 620.4816 588.6652
2370 23.3268 646.7(5) 634.4229 588.6565
2371 23.3349 670.0(5) 657.9969 588.6476
2372 23.3427 703.5(5) 694.9034 588.6388
2373 23.3506 747.8(5) 749.2408 588.6300
2374 23.3587 810.1(5) 825.4147 588.6212
2375 23.3666 880.6(5) 920.3565 588.6124
2376 23.3745 966.5(6) 1030.3094 588.6035
2377 23.3825 1040.5(6) 1140.4231 588.5947
2378 23.3904 1111.7(6) 1235.9026 588.5858
2379 23.3983 1157.0(6) 1295.4636 588.5770
2380 23.4063 1168.5(6) 1306.3601 588.5681
2381 23.4142 1150.1(6) 1265.1818 588.5593
2382 23.4222 1087.9(6) 1181.2246 588.5504
2383 23.4301 1013.9(6) 1074.9857 588.5417
2384 23.4382 926.9(5) 963.0321 588.5328
2385 23.4460 848.8(5) 862.8606 588.5240
2386 23.4541 785.1(5) 780.7767 588.5151
2387 23.4620 738.2(5) 722.1836 588.5063
2388 23.4699 709.1(5) 685.3090 588.4613
2389 23.4778 692.9(5) 667.6815 588.4142
2390 23.4858 688.1(5) 667.0651 588.3678
2391 23.4937 691.2(5) 681.1876 588.3208
2392 23.5016 701.0(5) 707.6517 588.2744
2393 23.5096 720.2(5) 744.3856 588.2273
2394 23.5175 743.2(5) 786.2139 588.1809
2395 23.5255 766.7(5) 827.8623 588.1339
2396 23.5334 789.0(5) 860.4057 588.0874
2397 23.5415 804.3(5) 876.5851 588.0403
2398 23.5493 802.8(5) 871.1627 587.9940
2399 23.5574 787.0(5) 845.5406 587.9469
2400 23.5653 758.3(5) 806.7775 587.9005
2401 23.5732 726.7(5) 762.0577 587.8534
2402 23.5812 696.3(5) 719.3830 587.8070
2403 23.5891 671.6(5) 682.7924 587.7606
2404 23.5970 651.1(5) 654.1115 587.7135
2405 23.6049 636.6(5) 634.1094 587.6671
2406 23.6129 626.4(4) 621.0020 587.6201
2407 23.6208 620.2(4) 613.3628 587.5736
2408 23.6288 616.5(4) 609.3612 587.5266
2409 23.6367 614.9(4) 607.9709 587.4801
2410 23.6447 615.4(4) 608.6265 587.4331
2411 23.6526 619.0(4) 611.3790 587.3867
2412 23.6607 625.0(4) 616.8884 587.3396
2413 23.6686 636.3(5) 625.9785 587.2932
2414 23.6765 652.8(5) 640.0486 587.2462
2415 23.6845 675.7(5) 659.8201 587.1997
2416 23.6924 704.2(5) 686.4772 587.1526
2417 23.7003 742.1(5) 719.3258 587.1062
2418 23.7083 783.6(5) 757.5956 587.0598
2419 23.7162 830.8(5) 799.5966 587.0128
2420 23.7241 880.7(5) 840.8867 586.9663
2421 23.7321 927.2(5) 878.8682 586.9193
2422 23.7400 969.6(6) 909.5216 586.8728
2423 23.7480 1008.8(6) 930.4666 586.8258
2424 23.7559 1012.4(6) 937.7089 586.7794
2425 23.7640 1000.2(6) 929.2946 586.7323
2426 23.7718 963.1(6) 907.9701 586.6859
2427 23.7799 920.2(5) 881.1703 586.6389
2428 23.7878 877.4(5) 859.7739 586.5924
2429 23.7957 851.5(5) 852.3835 586.5453
2430 23.8036 845.9(5) 864.6349 586.4989
2431 23.8116 854.3(5) 897.3064 586.4519
2432 23.8195 875.6(5) 944.4951 586.4055
2433 23.8274 901.0(5) 996.3422 586.3590
2434 23.8354 922.0(5) 1040.0862 586.3120
2435 23.8433 928.6(5) 1061.8005 586.2656
2436 23.8513 915.8(5) 1054.8208 586.2185
2437 23.8592 895.0(5) 1020.2510 586.1721
2438 23.8673 859.4(5) 964.4494 586.1250
2439 23.8751 825.7(5) 899.2202 586.0786
2440 23.8832 786.5(5) 833.8409 586.0316
2441 23.8911 757.6(5) 779.2546 585.9851
2442 23.8990 738.6(5) 740.4581 585.9381
2443 23.9069 735.4(5) 721.8224 585.8917
2444 23.9149 747.3(5) 723.8357 585.8446
2445 23.9228 780.4(5) 745.1207 585.7982
2446 23.9308 825.8(5) 782.4336 585.7512
2447 23.9387 885.9(5) 828.6902 585.7047
2448 23.9466 942.0(5) 875.6608 585.6583
2449 23.9546 981.0(6) 913.4451 585.6112
2450 23.9625 996.9(6) 931.0451 585.5648
2451 23.9706 965.2(6) 922.9998 585.5178
2452 23.9784 920.8(5) 891.2949 585.4713
2453 23.9865 853.3(5) 843.1528 585.4243
2454 23.9944 797.7(5) 789.4395 585.3778
2455 24.0023 739.1(5) 737.1322 585.3308
2456 24.0103 695.8(5) 692.9886 585.2844
2457 24.0182 662.3(5) 658.3820 585.2373
2458 24.0261 637.9(4) 634.1208 585.1909
2459 24.0341 620.7(4) 617.9592 585.1439
2460 24.0420 608.9(4) 608.1025 585.0974
2461 24.0500 600.0(4) 602.2001 585.0504
2462 24.0579 593.5(4) 598.8036 585.0039
2463 24.0658 588.2(4) 596.7672 584.9575
2464 24.0738 584.5(4) 595.4485 584.9105
2465 24.0817 581.5(4) 594.5457 584.8640
2466 24.0898 579.6(4) 593.8586 584.8170
2467 24.0977 578.2(4) 593.3239 584.7705
2468 24.1056 577.8(4) 592.8889 584.7235
2469 24.1136 576.9(4) 592.5495 584.6771
2470 24.1215 575.9(4) 592.2957 584.6300
2471 24.1294 574.7(4) 592.1447 584.5836
2472 24.1374 573.9(4) 592.1163 584.5366
2473 24.1453 574.3(4) 592.2776 584.4901
2474 24.1533 574.5(4) 592.6096 584.4431
2475 24.1612 575.3(4) 593.1678 584.3966
2476 24.1693 575.1(4) 593.9628 584.3496
2477 24.1771 575.2(4) 594.9602 584.3032
2478 24.1850 574.9(4) 596.0699 584.2567
2479 24.1931 575.0(4) 597.1701 584.2097
2480 24.2009 576.2(4) 598.0769 584.1633
2481 24.2090 577.8(4) 598.7011 584.1162
2482 24.2169 579.8(4) 599.0549 584.0698
2483 24.2248 582.2(4) 599.3740 584.0228
2484 24.2327 585.2(4) 600.0100 583.9763
2485 24.2407 589.9(4) 601.3809 583.9293
2486 24.2486 595.2(4) 603.7701 583.8828
2487 24.2566 601.9(4) 607.3988 583.8358
2488 24.2645 609.0(4) 612.0818 583.7894
2489 24.2725 617.0(4) 617.5515 583.7423
2490 24.2804 625.8(4) 623.0590 583.6959
2491 24.2885 632.7(4) 628.0539 583.6489
2492 24.2964 640.7(4) 632.0325 583.6024
2493 24.3043 646.3(4) 635.6237 583.5554
2494 24.3123 651.3(4) 640.6579 583.5089
2495 24.3202 657.8(5) 650.5521 583.4625
2496 24.3281 666.5(5) 670.2029 583.4155
2497 24.3361 685.1(5) 704.4661 583.3690
2498 24.3440 711.9(5) 759.2771 583.3220
2499 24.3519 753.8(5) 836.1982 583.2755
2500 24.3599 809.8(5) 935.9105 583.2285
2501 24.3678 875.0(5) 1048.7014 583.1821
2502 24.3758 948.1(5) 1163.4189 583.1350
2503 24.3837 996.8(6) 1258.0194 583.0886
2504 24.3918 1019.7(6) 1313.7231 583.0416
2505 24.3996 1013.7(6) 1314.2609 582.9951
2506 24.4076 969.0(5) 1259.1807 582.9481
2507 24.4156 930.4(5) 1164.2999 582.9016
2508 24.4235 865.9(5) 1048.4691 582.8546
2509 24.4314 807.4(5) 933.8216 582.8082
2510 24.4394 749.8(5) 832.6093 582.7617
2511 24.4473 701.0(5) 751.1066 582.7147
2512 24.4552 665.6(5) 692.6721 582.6682
2513 24.4632 640.0(4) 653.0918 582.6212
2514 24.4711 623.1(4) 628.7789 582.5748
2515 24.4791 612.2(4) 614.3685 582.5277
2516 24.4870 605.0(4) 606.4273 582.4813
2517 24.4951 600.1(4) 602.0637 582.4343
2518 24.5029 596.8(4) 599.8389 582.3878
2519 24.5110 595.4(4) 599.0338 582.3408
2520 24.5189 594.2(4) 599.3031 582.2943
2521 24.5268 594.0(4) 600.6397 582.2473
2522 24.5347 593.3(4) 603.0742 582.2009
2523 24.5427 593.2(4) 606.6295 582.1538
2524 24.5506 593.2(4) 610.9422 582.1074
2525 24.5585 593.3(4) 615.4789 582.0610
2526 24.5665 594.1(4) 619.4341 582.0139
2527 24.5744 593.5(4) 621.7285 581.9675
2528 24.5824 592.6(4) 621.6375 581.9205
2529 24.5903 590.7(4) 619.0401 581.8740
2530 24.5984 588.5(4) 614.4802 581.8270
2531 24.6062 586.4(4) 609.0279 581.7805
2532 24.6143 583.7(4) 603.4704 581.7335
2533 24.6222 580.8(4) 598.5566 581.6871
2534 24.6301 578.2(4) 594.5551 581.6400
2535 24.6381 576.6(4) 591.5984 581.5936
2536 24.6460 575.5(4) 589.5930 581.5466
2537 24.6539 574.4(4) 588.3317 581.5001
2538 24.6619 574.0(4) 587.5599 581.4531
2539 24.6698 573.9(4) 587.1168 581.4066
2540 24.6777 573.7(4) 586.8653 581.3602
2541 24.6857 574.1(4) 586.7316 581.3132
2542 24.6936 574.1(4) 586.6686 581.2667
2543 24.7016 574.8(4) 586.6580 581.2197
2544 24.7095 575.3(4) 586.6924 581.1732
2545 24.7176 575.5(4) 586.7726 581.1262
2546 24.7255 575.5(4) 586.9026 581.0798
2547 24.7334 575.6(4) 587.1021 581.0327
2548 24.7414 576.0(4) 587.3992 580.9863
2549 24.7493 577.7(4) 587.8676 580.9393
2550 24.7572 580.2(4) 588.6139 580.8928
2551 24.7652 583.5(4) 589.8552 580.8458
2552 24.7731 586.5(4) 591.8474 580.7993
2553 24.7811 591.4(4) 595.0101 580.7523
2554 24.7890 598.7(4) 599.6407 580.7059
2555 24.7969 610.2(4) 606.0343 580.6594
2556 24.8049 624.4(4) 614.3123 580.6124
2557 24.8128 640.6(4) 623.8668 580.5660
2558 24.8209 655.5(4) 634.0977 580.5189
2559 24.8287 666.7(5) 643.6584 580.4725
2560 24.8368 676.5(5) 651.6282 580.4254
2561 24.8447 679.6(5) 657.2899 580.3790
2562 24.8526 680.6(5) 661.6067 580.3320
2563 24.8605 680.5(5) 666.5671 580.2855
2564 24.8685 682.5(5) 675.1369 580.2385
2565 24.8764 691.0(5) 689.5558 580.1921
2566 24.8844 705.0(5) 712.1209 580.1450
2567 24.8923 728.4(5) 743.4380 580.0986
2568 24.9003 761.8(5) 784.7008 580.0516
2569 24.9082 803.2(5) 834.6083 580.0051
2570 24.9161 850.7(5) 892.8126 579.9587
2571 24.9242 900.1(5) 958.4030 579.9698
2572 24.9320 950.8(5) 1025.4652 580.0626
2573 24.9401 987.5(5) 1087.8575 580.1565
2574 24.9480 1015.5(6) 1133.3411 580.2493
2575 24.9559 1003.3(6) 1150.8459 580.3432
2576 24.9639 986.6(5) 1131.8960 580.4360
2577 24.9718 922.6(5) 1077.6824 580.5299
2578 24.9797 873.8(5) 1000.6068 580.6227
2579 24.9877 806.8(5) 913.3488 580.7166
2580 24.9956 755.5(5) 830.6152 580.8093
2581 25.0036 706.7(5) 758.9372 580.9033
2582 25.0115 674.3(5) 703.9978 580.9960
2583 25.0196 650.5(4) 664.4186 581.0900
2584 25.0274 633.8(4) 638.6687 581.1827
2585 25.0353 623.3(4) 622.5913 581.2755
2586 25.0434 615.6(4) 612.6754 581.3694
2587 25.0513 608.6(4) 606.5238 581.4622
2588 25.0592 602.9(4) 602.2300 581.5562
2589 25.0672 598.3(4) 599.1323 581.6489
2590 25.0751 594.7(4) 596.6906 581.7429
2591 25.0830 591.6(4) 594.8073 581.8356
2592 25.0910 590.2(4) 593.3698 581.9296
2593 25.0989 588.7(4) 592.3699 582.0223
2594 25.1069 588.3(4) 591.7382 582.1163
2595 25.1148 589.2(4) 591.4563 582.2090
2596 25.1229 590.2(4) 591.5162 582.3030
2597 25.1307 592.6(4) 591.9832 582.3957
2598 25.1388 594.4(4) 593.0551 582.4897
2599 25.1467 597.5(4) 595.0660 582.5825
2600 25.1545 601.9(4) 598.6273 582.6752
2601 25.1625 608.5(4) 604.7217 582.7691
2602 25.1705 618.2(4) 614.3644 582.8619
2603 25.1784 629.5(4) 628.8327 582.9558
2604 25.1863 646.1(4) 648.5217 583.0486
2605 25.1943 662.0(4) 673.6817 583.1425
2606 25.2022 687.1(5) 702.0248 583.2353
2607 25.2102 697.9(5) 730.8999 583.3292
2608 25.2181 717.4(5) 754.8622 583.4220
2609 25.2262 712.0(5) 769.1855 583.5159
2610 25.2340 711.8(5) 769.7386 583.6087
2611 25.2421 700.1(5) 756.5058 583.7026
2612 25.2500 689.2(5) 733.6000 583.7954
2613 25.2579 677.2(5) 705.9067 583.8893
2614 25.2659 664.9(4) 679.0006 583.9821
2615 25.2738 654.8(4) 656.0226 584.0749
2616 25.2817 646.8(4) 638.4522 584.1688
2617 25.2896 642.0(4) 626.9084 584.2615
2618 25.2976 638.6(4) 620.1338 584.3555
2619 25.3055 637.2(4) 616.8254 584.4482
2620 25.3135 635.4(4) 615.3550 584.5422
2621 25.3214 632.5(4) 614.4687 584.6349
2622 25.3294 626.6(4) 613.3296 584.7289
2623 25.3373 620.3(4) 611.8165 584.8217
2624 25.3454 614.2(4) 610.3174 584.9156
2625 25.3533 611.1(4) 609.5603 585.0084
2626 25.3612 612.5(4) 610.2444 585.1023
2627 25.3692 618.1(4) 612.9454 585.1951
2628 25.3771 626.9(4) 618.1659 585.2890
2629 25.3850 635.9(4) 626.0317 585.3818
2630 25.3930 645.5(4) 636.6537 585.4745
2631 25.4009 651.9(4) 650.0589 585.5685
2632 25.4088 654.1(4) 665.4784 585.6613
2633 25.4168 652.0(4) 682.5546 585.7552
2634 25.4247 647.3(4) 699.5815 585.8479
2635 25.4327 641.9(4) 714.7856 585.9418
2636 25.4406 636.8(4) 724.7947 586.0346
2637 25.4487 630.3(4) 726.7996 586.1286
2638 25.4565 623.9(4) 719.3998 586.2213
2639 25.4646 616.2(4) 703.7915 586.3152
2640 25.4725 609.1(4) 683.6588 586.4080
2641 25.4804 602.1(4) 662.0527 586.5020
2642 25.4883 596.2(4) 642.3760 586.5947
2643 25.4963 590.5(4) 625.7800 586.6887
2644 25.5042 586.2(4) 613.5453 586.7814
2645 25.5121 583.1(4) 605.0952 586.8742
2646 25.5201 581.1(4) 599.6570 586.9681
2647 25.5280 579.9(4) 596.4951 587.0609
2648 25.5360 578.9(4) 594.7441 587.1548
2649 25.5439 578.1(4) 593.8779 587.2476
2650 25.5520 577.7(4) 593.5059 587.3416
2651 25.5598 577.7(4) 593.4388 587.4343
2652 25.5679 577.3(4) 593.5880 587.5283
2653 25.5758 577.1(4) 593.9453 587.6210
2654 25.5837 577.8(4) 594.5600 587.7150
2655 25.5917 579.1(4) 595.5330 587.8077
2656 25.5996 581.8(4) 597.0876 587.9016
2657 25.6075 585.2(4) 599.5114 587.9944
2658 25.6155 590.4(4) 603.3997 588.0883
2659 25.6234 597.8(4) 609.4409 588.1811
2660 25.6313 608.9(4) 618.7285 588.2739
2661 25.6393 624.7(4) 632.6765 588.3678
2662 25.6472 649.0(4) 652.0106 588.4606
2663 25.6552 682.8(4) 677.6650 588.5545
2664 25.6631 721.5(5) 708.2280 588.6473
2665 25.6712 763.8(5) 741.9263 588.7412
2666 25.6791 797.0(5) 773.5206 588.8340
2667 25.6870 816.2(5) 797.9806 588.9279
2668 25.6950 809.5(5) 809.0770 589.0207
2669 25.7029 787.1(5) 804.0540 589.1146
2670 25.7108 752.9(5) 784.5615 589.2074
2671 25.7188 715.9(5) 755.3955 589.3013
2672 25.7267 680.5(4) 723.5176 589.3940
2673 25.7347 652.2(4) 693.4357 589.4880
2674 25.7426 632.5(4) 669.1735 589.5807
2675 25.7505 618.6(4) 651.4808 589.6735
2676 25.7585 609.4(4) 639.6335 589.7675
2677 25.7664 602.8(4) 632.2047 589.8602
2678 25.7745 598.7(4) 626.9638 589.9542
2679 25.7824 596.3(4) 622.5117 590.0469
2680 25.7903 594.8(4) 618.0540 590.1409
2681 25.7983 594.1(4) 613.7371 590.2336
2682 25.8062 593.7(4) 609.8467 590.3276
2683 25.8141 593.4(4) 606.9833 590.4203
2684 25.8221 594.3(4) 605.5054 590.5143
2685 25.8300 596.3(4) 605.8073 590.6071
2686 25.8380 599.8(4) 608.0785 590.7010
2687 25.8459 605.1(4) 612.2206 590.7937
2688 25.8540 611.0(4) 617.9981 590.8877
2689 25.8618 618.4(4) 624.5778 590.9804
2690 25.8697 622.9(4) 631.0060 591.0732
2691 25.8778 626.1(4) 636.0750 591.1672
2692 25.8856 626.4(4) 638.4432 591.2599
2693 25.8937 623.5(4) 637.5257 591.3538
2694 25.9016 618.8(4) 633.6920 591.4466
2695 25.9095 613.3(4) 627.9893 591.5405
2696 25.9174 608.4(4) 621.8859 591.6333
2697 25.9254 605.2(4) 616.3624 591.7272
2698 25.9333 601.4(4) 612.2418 591.8200
2699 25.9413 599.8(4) 609.7192 591.9139
2700 25.9492 600.7(4) 608.7250 592.0067
2701 25.9572 602.0(4) 608.9162 592.1006
2702 25.9651 603.9(4) 609.9478 592.1934
2703 25.9732 605.5(4) 611.6790 592.2874
2704 25.9811 606.8(4) 614.2230 592.3801
2705 25.9889 608.6(4) 618.0244 592.4728
2706 25.9970 611.0(4) 623.6028 592.5668
2707 26.0049 614.9(4) 630.9216 592.6596
2708 26.0128 619.2(4) 639.7536 592.7535
2709 26.0208 625.9(4) 648.7780 592.8463
2710 26.0287 631.4(4) 656.5878 592.9402
2711 26.0366 633.3(4) 661.1678 593.0330
2712 26.0446 632.5(4) 661.3566 593.1269
2713 26.0525 626.8(4) 657.1097 593.2197
2714 26.0605 622.4(4) 649.7892 593.3136
2715 26.0684 616.0(4) 641.1842 593.4064
2716 26.0765 610.3(4) 632.5688 593.5003
2717 26.0843 606.3(4) 625.1437 593.5931
2718 26.0924 603.3(4) 619.2148 593.6870
2719 26.1003 601.5(4) 615.0553 593.7798
2720 26.1082 600.2(4) 612.4440 593.8726
2721 26.1161 599.5(4) 611.0667 593.9665
2722 26.1241 601.0(4) 610.5622 594.0593
2723 26.1320 602.7(4) 610.5033 594.1532
2724 26.1399 605.0(4) 610.5481 594.2459
2725 26.1479 606.3(4) 610.5372 594.3398
2726 26.1558 607.8(4) 610.6017 594.4326
2727 26.1638 612.0(4) 611.2109 594.5266
2728 26.1717 618.8(4) 613.1309 594.6193
2729 26.1798 630.2(4) 617.6138 594.7133
2730 26.1876 647.0(4) 626.1528 594.8060
2731 26.1957 669.8(4) 640.9417 594.9000
2732 26.2036 700.5(4) 663.5052 594.9927
2733 26.2115 739.1(5) 695.6098 595.0867
2734 26.2194 781.5(5) 736.0353 595.1794
2735 26.2274 824.1(5) 782.3520 595.2722
2736 26.2353 859.7(5) 829.7038 595.3661
2737 26.2432 885.7(5) 869.1564 595.4589
2738 26.2512 889.6(5) 893.0270 595.5529
2739 26.2591 880.1(5) 894.7177 595.6456
2740 26.2671 851.8(5) 874.5706 595.7396
2741 26.2750 818.4(5) 839.8427 595.8323
2742 26.2831 783.2(5) 799.4416 595.9263
2743 26.2909 760.8(5) 763.5611 596.0190
2744 26.2990 749.4(5) 738.3411 596.1130
2745 26.3069 754.9(5) 728.3389 596.2057
2746 26.3148 770.0(5) 733.8775 596.2996
2747 26.3228 793.7(5) 752.1999 596.3924
2748 26.3307 813.8(5) 778.5386 596.4863
2749 26.3386 827.0(5) 805.1950 596.5791
2750 26.3465 822.9(5) 824.9901 596.6719
2751 26.3545 807.2(5) 831.7513 596.7658
2752 26.3624 784.1(5) 822.7039 596.8586
2753 26.3704 753.7(5) 799.7487 596.9525
2754 26.3783 728.2(5) 768.6837 597.0453
2755 26.3863 704.4(4) 734.4174 597.0667
2756 26.3942 683.3(4) 702.3236 597.0775
2757 26.4023 665.7(4) 674.4393 597.0885
2758 26.4102 649.9(4) 652.7097 597.0994
2759 26.4181 637.3(4) 636.5848 597.1104
2760 26.4261 628.5(4) 625.7194 597.1212
2761 26.4340 622.1(4) 618.8117 597.1322
2762 26.4419 617.7(4) 615.1747 597.1431
2763 26.4499 615.4(4) 614.1818 597.1541
2764 26.4578 617.2(4) 615.7092 597.1649
2765 26.4657 623.4(4) 619.8911 597.1758
2766 26.4737 636.2(4) 627.1713 597.1868
2767 26.4816 652.9(4) 637.6907 597.1976
2768 26.4896 673.9(4) 651.8127 597.2086
2769 26.4975 694.7(4) 668.8592 597.2195
2770 26.5056 715.2(5) 688.3460 597.2305
2771 26.5134 727.6(5) 708.2113 597.2413
2772 26.5215 731.7(5) 726.9613 597.2523
2773 26.5294 725.0(5) 742.2411 597.2632
2774 26.5373 713.3(5) 752.8749 597.2742
2775 26.5452 699.5(4) 757.0432 597.2850
2776 26.5532 681.0(4) 753.3295 597.2961
2777 26.5611 667.5(4) 741.2593 597.3069
2778 26.5691 652.0(4) 722.1691 597.3179
2779 26.5770 640.1(4) 699.7803 597.3288
2780 26.5849 628.7(4) 677.3091 597.3396
2781 26.5929 619.0(4) 657.2347 597.3506
2782 26.6008 611.7(4) 641.7625 597.3615
2783 26.6089 606.9(4) 631.1945 597.3725
2784 26.6167 603.5(4) 625.6203 597.3834
2785 26.6248 600.9(4) 624.1017 597.3943
2786 26.6327 599.6(4) 625.5631 597.4052
2787 26.6406 599.7(4) 628.7233 597.4162
2788 26.6486 600.6(4) 632.2106 597.4271
2789 26.6565 601.7(4) 634.8992 597.4380
2790 26.6644 603.1(4) 635.8939 597.4489
2791 26.6724 603.9(4) 635.0196 597.4599
2792 26.6803 604.8(4) 632.6420 597.4708
2793 26.6883 604.6(4) 629.2155 597.4818
2794 26.6962 603.9(4) 625.2455 597.4926
2795 26.7041 601.9(4) 621.0284 597.5035
2796 26.7121 599.3(4) 616.8501 597.5145
2797 26.7200 597.3(4) 613.1390 597.5253
2798 26.7281 596.1(4) 610.0466 597.5363
2799 26.7360 595.5(4) 607.7473 597.5472
2800 26.7439 595.5(4) 606.1984 597.5582
2801 26.7519 595.4(4) 605.3631 597.5690
2802 26.7598 595.2(4) 605.0750 597.5800
2803 26.7677 594.6(4) 605.1606 597.5909
2804 26.7757 594.6(4) 605.4322 597.6019
2805 26.7836 594.1(4) 605.7267 597.6127
2806 26.7916 594.2(4) 605.9755 597.6238
2807 26.7995 593.6(4) 606.2679 597.6346
2808 26.8076 593.3(4) 606.7289 597.6456
2809 26.8154 594.3(4) 607.6088 597.6565
2810 26.8235 596.3(4) 609.3657 597.6675
2811 26.8314 600.1(4) 612.5527 597.6783
2812 26.8392 606.4(4) 617.8525 597.6892
2813 26.8472 616.4(4) 625.9451 597.7002
2814 26.8552 631.4(4) 636.7954 597.7111
2815 26.8631 652.0(4) 650.1713 597.7220
2816 26.8710 676.2(4) 664.4196 597.7329
2817 26.8790 698.8(4) 677.7153 597.7439
2818 26.8869 712.9(4) 687.0760 597.7548
2819 26.8949 713.3(4) 690.3038 597.7657
2820 26.9028 700.2(4) 686.3976 597.7766
2821 26.9109 678.3(4) 676.4666 597.7876
2822 26.9187 654.5(4) 663.3210 597.7985
2823 26.9268 636.1(4) 649.3986 597.8094
2824 26.9347 625.4(4) 637.3105 597.8203
2825 26.9426 622.5(4) 628.2994 597.8313
2826 26.9506 627.9(4) 623.3771 597.8422
2827 26.9585 640.1(4) 622.5877 597.8530
2828 26.9664 657.0(4) 625.7287 597.8640
2829 26.9743 675.6(4) 632.1048 597.8749
2830 26.9823 694.6(4) 640.8925 597.8859
2831 26.9902 707.4(4) 650.5469 597.8967
2832 26.9982 712.2(4) 659.5994 597.9078
2833 27.0061 709.4(4) 666.0928 597.9186
2834 27.0141 698.2(4) 668.8337 597.9296
2835 27.0220 682.0(4) 667.1077 597.9405
2836 27.0301 661.8(4) 661.0724 597.9515
2837 27.0380 643.1(4) 652.0143 597.9623
2838 27.0459 629.3(4) 641.3946 597.9733
2839 27.0539 618.1(4) 631.0643 597.9842
2840 27.0618 609.6(4) 621.8979 597.9952
2841 27.0697 604.1(4) 614.6938 598.0060
2842 27.0777 599.0(4) 609.4232 598.0169
2843 27.0856 596.6(4) 605.8288 598.0279
2844 27.0935 596.2(4) 603.6245 598.0388
2845 27.1015 597.3(4) 602.3563 598.0497
2846 27.1094 599.6(4) 601.7334 598.0606
2847 27.1174 602.3(4) 601.5038 598.0716
2848 27.1253 605.7(4) 601.5186 598.0825
2849 27.1334 608.6(4) 601.6641 598.0934
2850 27.1412 610.3(4) 601.8884 598.1043
2851 27.1493 610.9(4) 602.1426 598.1153
2852 27.1572 608.9(4) 602.4154 598.1262
2853 27.1651 605.8(4) 602.7735 598.1371
2854 27.1730 602.4(4) 603.3473 598.1480
2855 27.1810 599.4(4) 604.3569 598.1591
2856 27.1889 597.8(4) 605.9885 598.1699
2857 27.1968 597.2(4) 608.3920 598.1807
2858 27.2048 597.6(4) 611.6002 598.1918
2859 27.2127 599.1(4) 615.3011 598.2026
2860 27.2207 601.0(4) 619.1024 598.2136
2861 27.2286 602.0(4) 622.2304 598.2245
2862 27.2367 601.4(4) 624.0087 598.2355
2863 27.2445 599.9(4) 623.8826 598.2463
2864 27.2526 598.7(4) 621.8730 598.2573
2865 27.2605 597.2(4) 618.5706 598.2682
2866 27.2684 596.5(4) 614.6643 598.2792
2867 27.2764 594.7(4) 610.8486 598.2900
2868 27.2843 594.2(4) 607.5146 598.3010
2869 27.2922 593.0(4) 604.9677 598.3119
2870 27.3002 592.9(4) 603.1715 598.3229
2871 27.3081 592.7(4) 602.0765 598.3337
2872 27.3160 592.5(4) 601.5266 598.3446
2873 27.3240 592.8(4) 601.4289 598.3556
2874 27.3319 593.9(4) 601.7714 598.3665
2875 27.3399 596.7(4) 602.6520 598.3774
2876 27.3478 600.1(4) 604.1789 598.3883
2877 27.3559 604.6(4) 606.7258 598.3993
2878 27.3638 609.2(4) 610.3701 598.4102
2879 27.3717 615.0(4) 615.2436 598.4211
2880 27.3797 620.1(4) 620.9980 598.4320
2881 27.3876 625.3(4) 627.2074 598.4431
2882 27.3955 629.4(4) 632.8415 598.4539
2883 27.4035 631.1(4) 636.9725 598.4649
2884 27.4114 631.0(4) 638.6121 598.4758
2885 27.4194 630.6(4) 637.5849 598.4868
2886 27.4273 629.9(4) 634.5674 598.4976
2887 27.4352 628.2(4) 630.6686 598.5085
2888 27.4432 626.0(4) 626.9147 598.5195
2889 27.4511 624.2(4) 624.2245 598.5303
2890 27.4592 623.6(4) 622.8497 598.5413
2891 27.4670 623.9(4) 622.7592 598.5522
2892 27.4750 624.6(4) 623.5869 598.5632
2893 27.4830 624.2(4) 624.8356 598.5740
2894 27.4909 623.4(4) 625.9799 598.5850
2895 27.4988 620.6(4) 626.3884 598.5959
2896 27.5068 618.1(4) 625.5636 598.6069
2897 27.5147 614.3(4) 623.3943 598.6177
2898 27.5227 611.0(4) 620.1750 598.6287
2899 27.5306 607.1(4) 616.6046 598.6396
2900 27.5387 603.7(4) 613.2499 598.6506
2901 27.5465 601.3(4) 610.7609 598.6614
2902 27.5544 600.2(4) 609.5511 598.6723
2903 27.5625 600.3(4) 610.0153 598.6833
2904 27.5703 600.4(4) 612.4385 598.6942
2905 27.5784 600.2(4) 617.0569 598.7051
2906 27.5863 600.7(4) 623.6868 598.7160
2907 27.5942 601.9(4) 632.0473 598.7270
2908 27.6021 603.7(4) 641.0208 598.7379
2909 27.6101 605.7(4) 649.4525 598.7489
2910 27.6180 607.5(4) 655.5460 598.7598
2911 27.6260 609.2(4) 658.0806 598.7708
2912 27.6339 612.0(4) 656.7194 598.7816
2913 27.6419 615.4(4) 652.4947 598.7926
2914 27.6498 619.5(4) 647.4944 598.8035
2915 27.6579 623.3(4) 643.5426 598.8145
2916 27.6658 628.0(4) 642.0812 598.8253
2917 27.6736 633.4(4) 643.4871 598.8362
2918 27.6817 638.7(4) 647.2838 598.8472
2919 27.6896 644.8(4) 651.9687 598.8580
2920 27.6975 647.7(4) 655.7243 598.8690
2921 27.7055 648.3(4) 656.6642 598.8799
2922 27.7134 645.2(4) 653.9708 598.8909
2923 27.7213 639.6(4) 648.3020 598.9017
2924 27.7293 633.3(4) 641.1051 598.9127
2925 27.7372 626.7(4) 634.3480 598.9236
2926 27.7452 622.0(4) 629.4153 598.9346
2927 27.7531 618.4(4) 627.4570 598.9454
2928 27.7612 617.5(4) 628.7794 598.9564
2929 27.7690 617.6(4) 632.9874 598.9673
2930 27.7771 618.2(4) 639.1569 598.9783
2931 27.7850 617.9(4) 645.5977 598.9891
2932 27.7929 617.2(4) 650.5983 599.0000
2933 27.8008 616.9(4) 652.5396 599.0110
2934 27.8088 617.0(4) 650.6027 599.0219
2935 27.8167 616.1(4) 645.2737 599.0329
2936 27.8246 615.3(4) 638.1127 599.0437
2937 27.8326 613.8(4) 630.5898 599.0547
2938 27.8405 613.0(4) 624.2869 599.1035
2939 27.8485 613.0(4) 619.9929 599.2310
2940 27.8564 612.9(4) 618.0954 599.3569
2941 27.8645 614.1(4) 618.3989 599.4844
2942 27.8723 615.2(4) 620.3394 599.6104
2943 27.8804 617.3(4) 623.1179 599.7379
2944 27.8883 618.8(4) 625.6896 599.8638
2945 27.8962 618.8(4) 627.1902 599.9913
2946 27.9042 617.3(4) 627.0115 600.1172
2947 27.9121 615.4(4) 625.1972 600.2432
2948 27.9200 613.3(4) 622.2579 600.3707
2949 27.9279 611.1(4) 619.0714 600.4966
2950 27.9359 610.2(4) 616.3311 600.6241
2951 27.9438 611.0(4) 614.6628 600.7501
2952 27.9518 613.3(4) 614.2968 600.8776
2953 27.9597 616.2(4) 615.1943 601.0035
2954 27.9677 619.4(4) 617.0368 601.1310
2955 27.9756 622.9(4) 619.2168 601.2570
2956 27.9837 625.8(4) 621.0912 601.3845
2957 27.9916 626.4(4) 622.0152 601.5104
2958 27.9995 625.3(4) 621.6608 601.6379
2959 28.0075 622.5(4) 620.1707 601.7639
2960 28.0154 619.7(4) 617.9939 601.8914
2961 28.0233 617.2(4) 615.7532 602.0173
2962 28.0312 615.6(4) 613.9206 602.1433
2963 28.0392 616.0(4) 612.8687 602.2708
2964 28.0471 617.5(4) 612.8920 602.3967
2965 28.0551 621.1(4) 614.1764 602.5242
2966 28.0630 625.3(4) 616.7972 602.6501
2967 28.0710 630.7(4) 620.8019 602.7777
2968 28.0789 637.2(4) 625.8526 602.9036
2969 28.0870 645.5(4) 631.5308 603.0312
2970 28.0949 651.2(4) 636.8719 603.1571
2971 28.1028 654.1(4) 640.9684 603.2846
2972 28.1108 650.8(4) 642.8080 603.4105
2973 28.1187 645.9(4) 642.1180 603.5380
2974 28.1266 640.0(4) 639.3253 603.6640
2975 28.1346 634.9(4) 635.1896 603.7915
2976 28.1425 630.0(4) 630.6897 603.9174
2977 28.1504 625.7(4) 626.4468 604.0433
2978 28.1584 622.2(4) 622.7729 604.1709
2979 28.1663 620.5(4) 619.8109 604.2968
2980 28.1743 618.6(4) 617.3778 604.4243
2981 28.1822 617.6(4) 615.4390 604.5502
2982 28.1903 617.1(4) 613.9265 604.6778
2983 28.1981 616.8(4) 612.9099 604.8037
2984 28.2062 617.8(4) 612.4038 604.9313
2985 28.2141 618.2(4) 612.4363 605.0572
2986 28.2220 620.7(4) 612.9684 605.1847
2987 28.2299 623.5(4) 613.8888 605.3106
2988 28.2379 626.8(4) 615.0883 605.4381
2989 28.2458 629.7(4) 616.4406 605.5641
2990 28.2538 632.4(4) 618.0369 605.6916
2991 28.2617 635.8(4) 620.1950 605.8175
2992 28.2696 640.4(4) 623.7159 605.9434
2993 28.2776 647.8(4) 629.8420 606.0710
2994 28.2855 657.8(4) 639.7247 606.1969
2995 28.2936 670.2(4) 654.7028 606.3245
2996 28.3014 684.7(4) 674.7136 606.4503
2997 28.3095 700.3(4) 699.3204 606.5779
2998 28.3174 713.4(4) 725.3823 606.7038
2999 28.3253 723.5(4) 749.4463 606.8313
3000 28.3333 728.9(4) 765.9808 606.9573
3001 28.3412 731.0(4) 770.9717 607.0848
3002 28.3491 723.7(4) 762.8336 607.2107
3003 28.3571 709.8(4) 743.8340 607.3382
3004 28.3650 690.6(4) 719.1317 607.4642
3005 28.3730 673.4(4) 692.9227 607.5917
3006 28.3809 657.2(4) 669.4428 607.7176
3007 28.3888 644.4(4) 650.3783 607.8435
3008 28.3968 633.8(4) 636.1506 607.9711
3009 28.4047 626.8(4) 626.6314 608.0970
3010 28.4128 621.8(4) 620.5614 608.2245
3011 28.4207 617.5(4) 617.0142 608.3505
3012 28.4286 614.5(4) 614.9892 608.4780
3013 28.4366 611.5(4) 613.9170 608.6039
3014 28.4445 609.3(4) 613.3984 608.7314
3015 28.4524 608.0(4) 613.2762 608.8574
3016 28.4604 607.5(4) 613.5143 608.9849
3017 28.4683 607.3(4) 614.1725 609.1108
3018 28.4763 606.1(4) 615.3976 609.2383
3019 28.4842 605.2(4) 617.3093 609.3643
3020 28.4923 605.0(4) 620.0365 609.4918
3021 28.5001 605.4(4) 623.4868 609.6177
3022 28.5080 606.0(4) 627.4494 609.7436
3023 28.5161 606.4(4) 631.5104 609.8712
3024 28.5239 607.2(4) 634.9064 609.9971
3025 28.5319 607.5(4) 636.9968 610.1246
3026 28.5399 608.1(4) 637.2396 610.2505
3027 28.5478 608.4(4) 635.6863 610.3781
3028 28.5557 608.5(4) 632.9109 610.5040
3029 28.5637 608.2(4) 629.5638 610.6315
3030 28.5716 608.1(4) 626.3308 610.7574
3031 28.5796 608.7(4) 623.5362 610.8849
3032 28.5875 610.2(4) 621.4440 611.0109
3033 28.5956 611.9(4) 620.0826 611.1384
3034 28.6034 614.6(4) 619.5343 611.2643
3035 28.6115 617.3(4) 619.9012 611.3918
3036 28.6194 622.2(4) 621.5006 611.5178
3037 28.6272 628.7(4) 624.9437 611.6437
3038 28.6353 638.9(4) 631.2839 611.7712
3039 28.6432 655.5(4) 641.6019 611.8972
3040 28.6511 679.5(4) 657.4050 612.0247
3041 28.6590 715.3(4) 679.0768 612.1506
3042 28.6670 761.6(4) 706.8557 612.2781
3043 28.6749 808.6(5) 738.1614 612.4041
3044 28.6829 853.2(5) 770.0258 612.5316
3045 28.6908 881.7(5) 796.4758 612.6575
3046 28.6988 884.6(5) 812.5684 612.7850
3047 28.7067 864.6(5) 814.2255 612.9109
3048 28.7148 825.6(5) 801.6051 613.0385
3049 28.7227 782.3(5) 778.6268 613.1644
3050 28.7306 737.8(4) 750.0072 613.2919
3051 28.7386 702.4(4) 721.2257 613.4178
3052 28.7465 677.1(4) 694.8836 613.5454
3053 28.7544 658.3(4) 673.2885 613.6713
3054 28.7624 647.0(4) 656.5176 613.7972
3055 28.7703 638.2(4) 644.1028 613.9247
3056 28.7782 631.7(4) 635.6011 614.0507
3057 28.7862 627.5(4) 629.9293 614.1782
3058 28.7941 625.6(4) 626.4929 614.3041
3059 28.8021 624.8(4) 624.5825 614.4316
3060 28.8100 624.3(4) 623.7849 614.5576
3061 28.8181 623.6(4) 623.6945 614.6851
3062 28.8259 623.6(4) 624.0469 614.8110
3063 28.8340 622.9(4) 624.6640 614.9386
3064 28.8419 622.7(4) 625.4315 615.0645
3065 28.8498 621.1(4) 626.3231 615.1920
3066 28.8577 620.1(4) 627.2372 615.3179
3067 28.8657 620.0(4) 628.0359 615.4455
3068 28.8736 620.1(4) 628.4785 615.5714
3069 28.8815 620.0(4) 628.3637 615.6973
3070 28.8895 617.9(4) 627.6247 615.8248
3071 28.8974 616.0(4) 626.3928 615.9508
3072 28.9054 614.2(4) 624.8885 616.0783
3073 28.9133 613.0(4) 623.4166 616.2042
3074 28.9214 612.7(4) 622.1683 616.3318
3075 28.9292 612.3(4) 621.3307 616.4577
3076 28.9373 612.2(4) 620.9675 616.5852
3077 28.9452 612.6(4) 621.1017 616.7111
3078 28.9531 614.2(4) 621.7076 616.8387
3079 28.9611 616.9(4) 622.7036 616.9646
3080 28.9690 619.0(4) 624.0190 617.0921
3081 28.9769 620.5(4) 625.5043 617.2180
3082 28.9848 621.2(4) 627.0565 617.3440
3083 28.9928 621.5(4) 628.5703 617.4715
3084 29.0007 621.2(4) 629.9477 617.5974
3085 29.0087 619.6(4) 631.2023 617.7249
3086 29.0166 617.7(4) 632.2317 617.8509
3087 29.0246 615.7(4) 632.8877 617.9784
3088 29.0325 614.6(4) 632.9236 618.1043
3089 29.0406 613.7(4) 632.1909 618.2319
3090 29.0485 613.3(4) 630.7876 618.3578
3091 29.0564 613.0(4) 628.9579 618.4853
3092 29.0644 613.0(4) 627.0705 618.6112
3093 29.0723 613.3(4) 625.3455 618.7388
3094 29.0802 612.4(4) 624.0144 618.8647
3095 29.0882 611.9(4) 623.1178 618.9922
3096 29.0961 611.1(4) 622.7163 619.1181
3097 29.1041 611.9(4) 622.8367 619.2456
3098 29.1120 613.9(4) 623.5643 619.3716
3099 29.1199 617.0(4) 625.0948 619.4975
3100 29.1279 622.9(4) 627.7676 619.6250
3101 29.1358 630.8(4) 631.8633 619.7510
3102 29.1439 643.1(4) 637.7504 619.8785
3103 29.1517 657.1(4) 645.2729 620.0044
3104 29.1597 672.5(4) 654.1709 620.1320
3105 29.1677 686.0(4) 663.2394 620.2579
3106 29.1756 696.5(4) 671.2217 620.3854
3107 29.1835 699.5(4) 676.2468 620.5113
3108 29.1915 696.1(4) 677.1276 620.6389
3109 29.1994 686.0(4) 673.6628 620.7648
3110 29.2074 671.8(4) 666.8040 620.8923
3111 29.2153 657.0(4) 658.3658 621.0182
3112 29.2234 643.3(4) 649.7478 621.1458
3113 29.2312 632.3(4) 642.3455 621.2717
3114 29.2391 624.3(4) 636.6943 621.3976
3115 29.2472 620.2(4) 632.9600 621.5251
3116 29.2550 617.9(4) 631.1310 621.6510
3117 29.2631 617.0(4) 630.9036 621.7786
3118 29.2710 616.8(4) 631.9978 621.9045
3119 29.2789 617.0(4) 634.1373 622.0320
3120 29.2868 618.3(4) 636.9191 622.1580
3121 29.2948 619.2(4) 639.9694 622.2855
3122 29.3027 621.3(4) 642.6775 622.3862
3123 29.3107 622.0(4) 644.6446 622.4818
3124 29.3186 623.5(4) 645.5884 622.5762
3125 29.3266 625.0(4) 645.7979 622.6717
3126 29.3345 628.0(4) 645.9199 622.7661
3127 29.3426 631.7(4) 646.6809 622.8616
3128 29.3505 637.2(4) 648.4706 622.9560
3129 29.3583 642.2(4) 651.2835 623.0504
3130 29.3664 646.0(4) 654.6470 623.1459
3131 29.3743 646.3(4) 657.5562 623.2403
3132 29.3822 643.3(4) 659.0233 623.3359
3133 29.3902 638.5(4) 658.3215 623.4302
3134 29.3981 633.2(4) 655.4417 623.5258
3135 29.4060 629.3(4) 651.0482 623.6202
3136 29.4140 625.8(4) 645.8956 623.7157
3137 29.4219 623.5(4) 640.8899 623.8101
3138 29.4299 621.1(4) 636.5754 623.9056
3139 29.4378 620.4(4) 633.3633 624.0000
3140 29.4459 619.8(4) 631.2167 624.0956
3141 29.4537 619.4(4) 630.1180 624.1899
3142 29.4618 619.2(4) 629.8921 624.2855
3143 29.4697 620.5(4) 630.4208 624.3799
3144 29.4776 623.1(4) 631.6387 624.4742
3145 29.4855 625.7(4) 633.5890 624.5698
3146 29.4935 627.8(4) 636.2854 624.6642
3147 29.5014 630.3(4) 639.8535 624.7597
3148 29.5093 633.3(4) 644.1832 624.8541
3149 29.5173 636.9(4) 649.1758 624.9496
3150 29.5252 639.7(4) 654.2269 625.0440
3151 29.5332 640.9(4) 658.7338 625.1395
3152 29.5411 642.0(4) 661.6075 625.2339
3153 29.5492 642.1(4) 662.2758 625.3295
3154 29.5570 640.4(4) 660.6854 625.4238
3155 29.5651 638.2(4) 657.4592 625.5194
3156 29.5730 635.6(4) 653.6556 625.6138
3157 29.5809 634.2(4) 650.1115 625.7094
3158 29.5889 632.8(4) 647.5769 625.8037
3159 29.5968 632.4(4) 646.3735 625.8981
3160 29.6047 634.2(4) 646.6656 625.9937
3161 29.6126 637.0(4) 648.4801 626.0880
3162 29.6206 640.5(4) 651.8790 626.1835
3163 29.6285 644.7(4) 656.7308 626.2779
3164 29.6365 650.4(4) 662.9391 626.3735
3165 29.6444 656.9(4) 669.8625 626.4678
3166 29.6524 663.4(4) 676.8971 626.5634
3167 29.6603 668.8(4) 683.0118 626.6578
3168 29.6684 672.5(4) 687.7798 626.7534
3169 29.6763 677.4(4) 690.9589 626.8477
3170 29.6842 679.7(4) 692.6638 626.9432
3171 29.6922 682.0(4) 692.8024 627.0377
3172 29.7001 680.7(4) 691.3408 627.1332
3173 29.7080 681.4(4) 688.6321 627.2275
3174 29.7160 683.2(4) 685.6483 627.3219
3175 29.7239 686.8(4) 683.8412 627.4175
3176 29.7318 690.2(4) 684.5496 627.5118
3177 29.7398 694.5(4) 688.3176 627.6074
3178 29.7477 696.5(4) 694.4987 627.7018
3179 29.7557 698.0(4) 701.5910 627.7973
3180 29.7636 696.2(4) 707.0311 627.8917
3181 29.7717 693.3(4) 708.5321 627.9872
3182 29.7795 689.2(4) 704.9540 628.0816
3183 29.7875 684.8(4) 696.9274 628.1772
3184 29.7955 680.9(4) 686.7863 628.2715
3185 29.8034 677.8(4) 676.7585 628.3671
3186 29.8113 675.7(4) 669.1694 628.4615
3187 29.8193 675.8(4) 665.1613 628.5570
3188 29.8272 677.9(4) 665.2258 628.6514
3189 29.8351 681.0(4) 668.7585 628.7458
3190 29.8431 686.8(4) 674.5695 628.8413
3191 29.8510 691.2(4) 680.7132 628.9357
3192 29.8590 692.4(4) 685.3551 629.0312
3193 29.8669 691.2(4) 686.8544 629.1256
3194 29.8750 685.4(4) 684.7939 629.2212
3195 29.8828 679.3(4) 679.8521 629.3156
3196 29.8909 669.9(4) 672.9870 629.4111
3197 29.8988 662.0(4) 665.4578 629.5055
3198 29.9067 654.5(4) 657.9999 629.6010
3199 29.9146 649.3(4) 651.5816 629.6954
3200 29.9226 645.7(4) 646.5195 629.7910
3201 29.9305 644.4(4) 643.1268 629.8853
3202 29.9385 644.4(4) 641.3191 629.9809
3203 29.9464 647.1(4) 641.0389 630.0753
3204 29.9543 651.1(4) 642.0997 630.1696
3205 29.9623 657.6(4) 644.3669 630.2652
3206 29.9702 663.2(4) 647.6181 630.3596
3207 29.9783 669.4(4) 651.8101 630.4551
3208 29.9861 674.2(4) 656.7794 630.5494
3209 29.9942 679.9(4) 662.7037 630.6450
3210 30.0021 684.8(4) 669.5834 630.7394
3211 30.0100 690.7(4) 677.6361 630.8350
3212 30.0180 695.4(4) 686.2333 630.9293
3213 30.0259 699.2(4) 694.4609 631.0249
3214 30.0338 701.4(4) 700.4246 631.1193
3215 30.0418 701.3(4) 702.5012 631.2148
3216 30.0497 698.6(4) 699.8048 631.3092
3217 30.0577 694.3(4) 693.0383 631.4047
3218 30.0656 690.6(4) 684.3239 631.4991
3219 30.0735 685.7(4) 675.8099 631.5934
3220 30.0815 681.9(4) 669.2742 631.6890
3221 30.0894 679.9(4) 666.0381 631.7834
3222 30.0975 680.9(4) 666.3484 631.8790
3223 30.1054 682.6(4) 669.7000 631.9733
3224 30.1133 685.2(4) 675.0026 632.0689
3225 30.1213 686.3(4) 680.5530 632.1633
3226 30.1292 684.9(4) 684.8203 632.2588
3227 30.1371 683.8(4) 686.4330 632.3531
3228 30.1451 679.7(4) 684.9696 632.4487
3229 30.1530 676.8(4) 680.8279 632.5431
3230 30.1610 670.9(4) 674.7775 632.6387
3231 30.1689 666.2(4) 668.0798 632.7330
3232 30.1770 661.5(4) 661.5922 632.8286
3233 30.1848 656.7(4) 656.1802 632.9230
3234 30.1927 653.1(4) 651.9932 633.0173
3235 30.2008 650.1(4) 648.8820 633.1129
3236 30.2086 647.3(4) 646.6304 633.2072
3237 30.2167 645.3(4) 644.9136 633.3028
3238 30.2246 643.0(4) 643.6359 633.3972
3239 30.2325 640.8(4) 642.7100 633.4927
3240 30.2404 639.2(4) 642.1480 633.5871
3241 30.2484 638.0(4) 641.8944 633.6827
3242 30.2563 638.3(4) 641.8708 633.7770
3243 30.2643 637.9(4) 641.9828 633.8726
3244 30.2722 638.7(4) 642.1606 633.9669
3245 30.2802 638.9(4) 642.4252 634.0625
3246 30.2881 639.9(4) 642.9548 634.1569
3247 30.2962 640.1(4) 644.0857 634.2524
3248 30.3041 642.3(4) 646.2154 634.3468
3249 30.3119 646.1(4) 649.8162 634.4412
3250 30.3200 650.7(4) 655.3810 634.5367
3251 30.3279 656.5(4) 662.9971 634.6311
3252 30.3358 665.1(4) 672.7930 634.7267
3253 30.3438 677.5(4) 684.0770 634.8210
3254 30.3517 696.5(4) 696.2494 634.9166
3255 30.3596 719.4(4) 707.8154 635.0109
3256 30.3676 746.2(4) 717.8718 635.1065
3257 30.3755 777.1(4) 725.3912 635.2009
3258 30.3835 791.7(4) 730.0702 635.2964
3259 30.3914 801.2(4) 731.2863 635.3908
3260 30.3995 792.7(4) 728.7579 635.4864
3261 30.4074 776.8(4) 723.1749 635.5807
3262 30.4153 756.1(4) 716.2043 635.6763
3263 30.4233 733.0(4) 710.3890 635.7706
3264 30.4312 724.5(4) 707.8563 635.8651
3265 30.4391 719.6(4) 710.1170 635.9606
3266 30.4471 727.5(4) 717.3560 636.0549
3267 30.4550 742.1(4) 728.5610 636.1505
3268 30.4629 761.1(4) 741.0189 636.2449
3269 30.4709 780.9(4) 751.9161 636.3405
3270 30.4788 794.0(4) 758.2362 636.4348
3271 30.4868 802.2(4) 758.3563 636.5303
3272 30.4947 797.6(4) 752.1151 636.6247
3273 30.5028 787.9(4) 741.4911 636.7203
3274 30.5106 773.6(4) 730.7464 636.8146
3275 30.5187 764.0(4) 724.2457 636.9102
3276 30.5266 764.1(4) 726.1528 637.0046
3277 30.5345 780.6(4) 739.1300 637.1002
3278 30.5424 811.3(4) 763.2343 637.1945
3279 30.5504 855.6(5) 796.1861 637.2889
3280 30.5583 894.3(5) 833.2201 637.3844
3281 30.5662 922.7(5) 865.7643 637.4788
3282 30.5742 926.7(5) 885.8966 637.5743
3283 30.5821 908.3(5) 886.6205 637.6687
3284 30.5901 871.2(5) 867.2276 637.7643
3285 30.5980 828.2(4) 833.5482 637.8586
3286 30.6061 782.9(4) 792.7308 637.9542
3287 30.6139 746.5(4) 752.9556 638.0486
3288 30.6220 716.8(4) 718.2139 638.1442
3289 30.6299 694.3(4) 691.7622 638.2385
3290 30.6378 677.1(4) 673.1143 638.3340
3291 30.6458 665.2(4) 661.5209 638.4284
3292 30.6537 656.7(4) 654.9372 638.5240
3293 30.6616 651.8(4) 651.8993 638.6183
3294 30.6695 648.5(4) 651.0672 638.7127
3295 30.6775 646.5(4) 651.6056 638.8083
3296 30.6854 644.5(4) 652.9106 638.9026
3297 30.6934 642.8(4) 654.5428 638.9982
3298 30.7013 640.7(4) 656.0685 639.0926
3299 30.7093 639.5(4) 657.1027 639.1881
3300 30.7172 638.4(4) 657.3101 639.2825
3301 30.7253 637.4(4) 656.5118 639.3781
3302 30.7332 636.2(4) 654.8534 639.4724
3303 30.7411 635.8(4) 652.6474 639.5680
3304 30.7491 635.4(4) 650.3514 639.6624
3305 30.7570 635.4(4) 648.2453 639.7631
3306 30.7649 635.1(4) 646.5853 639.8781
3307 30.7729 635.9(4) 645.3792 639.9946
3308 30.7808 636.4(4) 644.6481 640.1096
3309 30.7887 637.3(4) 644.2950 640.2245
3310 30.7967 638.0(4) 644.2557 640.3409
3311 30.8046 638.8(4) 644.4999 640.4559
3312 30.8126 639.7(4) 645.0547 640.5724
3313 30.8205 642.0(4) 645.9784 640.6873
3314 30.8286 645.5(4) 647.4033 640.8038
3315 30.8364 651.4(4) 649.3910 640.9188
3316 30.8444 658.5(4) 652.0851 641.0352
3317 30.8524 667.1(4) 655.4159 641.1502
3318 30.8603 676.1(4) 659.4106 641.2666
3319 30.8682 685.2(4) 663.9219 641.3816
3320 30.8762 695.2(4) 669.1595 641.4980
3321 30.8841 707.8(4) 675.3963 641.6130
3322 30.8921 725.0(4) 683.5484 641.7294
3323 30.9000 752.0(4) 694.2694 641.8444
3324 30.9079 792.7(4) 708.1618 641.9594
3325 30.9159 840.2(5) 725.0706 642.0759
3326 30.9238 890.3(5) 742.8232 642.1909
3327 30.9319 936.4(5) 758.7306 642.3073
3328 30.9397 951.9(5) 768.5070 642.4222
3329 30.9478 939.4(5) 769.1807 642.5387
3330 30.9557 899.7(5) 760.1878 642.6537
3331 30.9636 848.2(5) 743.7354 642.7701
3332 30.9715 794.8(4) 723.9355 642.8851
3333 30.9795 745.1(4) 703.8355 643.0015
3334 30.9874 709.4(4) 686.4519 643.1165
3335 30.9954 686.2(4) 672.6617 643.2330
3336 31.0033 670.3(4) 662.9867 643.3480
3337 31.0113 660.1(4) 656.6135 643.4644
3338 31.0192 653.2(4) 652.8257 643.5793
3339 31.0271 648.7(4) 650.6744 643.6943
3340 31.0352 645.8(4) 649.4871 643.8108
3341 31.0430 644.1(4) 648.8591 643.9258
3342 31.0511 643.8(4) 648.5232 644.0422
3343 31.0590 642.8(4) 648.3681 644.1572
3344 31.0669 642.3(4) 648.3232 644.2736
3345 31.0749 642.1(4) 648.3525 644.3886
3346 31.0828 643.6(4) 648.4288 644.5051
3347 31.0907 644.7(4) 648.5333 644.6200
3348 31.0987 645.4(4) 648.6746 644.7365
3349 31.1066 645.4(4) 648.8573 644.8514
3350 31.1146 645.6(4) 649.1729 644.9678
3351 31.1225 645.8(4) 649.7133 645.0828
3352 31.1306 646.9(4) 650.6847 645.1993
3353 31.1384 648.9(4) 652.3846 645.3143
3354 31.1463 650.8(4) 655.2944 645.4293
3355 31.1544 652.7(4) 660.0902 645.5457
3356 31.1623 654.8(4) 667.2750 645.6607
3357 31.1702 658.5(4) 677.4560 645.7771
3358 31.1782 663.4(4) 690.3217 645.8921
3359 31.1861 669.0(4) 705.4351 646.0085
3360 31.1940 676.3(4) 720.9291 646.1235
3361 31.2020 685.7(4) 735.1327 646.2399
3362 31.2099 696.4(4) 745.6554 646.3549
3363 31.2179 711.0(4) 751.7750 646.4714
3364 31.2258 726.5(4) 754.1467 646.5864
3365 31.2339 743.8(4) 754.6431 646.7028
3366 31.2417 759.7(4) 754.6249 646.8177
3367 31.2498 773.3(4) 754.3630 646.9342
3368 31.2577 779.5(4) 753.1931 647.0492
3369 31.2656 779.4(4) 750.2723 647.1656
3370 31.2736 770.8(4) 745.6136 647.2806
3371 31.2815 758.5(4) 739.9951 647.3956
3372 31.2894 743.1(4) 734.3228 647.5120
3373 31.2973 728.5(4) 729.1368 647.6270
3374 31.3053 716.4(4) 723.9174 647.7435
3375 31.3132 705.7(4) 717.9944 647.8585
3376 31.3212 698.0(4) 710.7891 647.9749
3377 31.3291 690.7(4) 702.8398 648.0898
3378 31.3371 685.1(4) 694.7183 648.2063
3379 31.3450 678.9(4) 687.2670 648.3213
3380 31.3531 673.4(4) 680.6342 648.4377
3381 31.3610 669.2(4) 675.0806 648.5527
3382 31.3689 664.7(4) 670.4996 648.6691
3383 31.3769 661.2(4) 667.0421 648.7841
3384 31.3848 658.6(4) 664.6237 648.9005
3385 31.3927 656.5(4) 663.2563 649.0155
3386 31.4007 655.7(4) 662.8142 649.1305
3387 31.4086 654.5(4) 663.1689 649.2469
3388 31.4165 654.4(4) 664.1219 649.3619
3389 31.4245 654.7(4) 665.4512 649.4783
3390 31.4324 655.2(4) 666.8914 649.5933
3391 31.4404 657.3(4) 668.2958 649.7098
3392 31.4483 658.5(4) 669.6067 649.8248
3393 31.4564 660.4(4) 670.8955 649.9412
3394 31.4642 661.7(4) 672.1030 650.0562
3395 31.4722 663.6(4) 672.9722 650.1726
3396 31.4802 664.6(4) 673.1565 650.2876
3397 31.4881 664.2(4) 672.4131 650.4041
3398 31.4960 663.4(4) 670.7936 650.5190
3399 31.5040 661.4(4) 668.5771 650.6354
3400 31.5119 658.8(4) 666.2419 650.7504
3401 31.5198 656.5(4) 664.0955 650.8654
3402 31.5278 654.2(4) 662.2650 650.9819
3403 31.5357 653.3(4) 660.7947 651.0969
3404 31.5437 652.2(4) 659.5233 651.2133
3405 31.5516 651.4(4) 658.4338 651.3282
3406 31.5597 650.9(4) 657.4768 651.4447
3407 31.5675 650.8(4) 656.7083 651.5597
3408 31.5756 651.8(4) 656.1564 651.6761
3409 31.5835 651.2(4) 655.8892 651.7911
3410 31.5914 651.5(4) 655.9620 651.9075
3411 31.5993 651.9(4) 656.4526 652.0225
3412 31.6073 654.3(4) 657.4725 652.1390
3413 31.6152 656.6(4) 659.1151 652.2540
3414 31.6232 660.0(4) 661.5227 652.3704
3415 31.6311 663.9(4) 664.6663 652.4854
3416 31.6390 667.7(4) 668.4453 652.6003
3417 31.6470 671.6(4) 672.7985 652.7167
3418 31.6549 676.9(4) 677.3256 652.8317
3419 31.6630 682.0(4) 682.0328 652.9482
3420 31.6708 687.1(4) 687.0629 653.0632
3421 31.6789 691.1(4) 693.3463 653.1796
3422 31.6868 695.2(4) 701.9357 653.2946
3423 31.6947 698.9(4) 714.1995 653.4110
3424 31.7027 704.7(4) 730.0891 653.5260
3425 31.7106 709.9(4) 748.8242 653.6425
3426 31.7185 712.9(4) 767.2004 653.7574
3427 31.7265 715.2(4) 781.6682 653.8738
3428 31.7344 714.4(4) 787.8622 653.9888
3429 31.7424 711.8(4) 783.7092 654.1053
3430 31.7503 705.0(4) 770.3879 654.2203
3431 31.7582 698.4(4) 751.5703 654.3353
3432 31.7662 692.1(4) 731.2753 654.4517
3433 31.7741 686.2(4) 713.4667 654.5667
3434 31.7822 682.3(4) 699.7368 654.6831
3435 31.7901 680.3(4) 690.9010 654.7981
3436 31.7980 679.4(4) 685.9596 654.9146
3437 31.8060 678.6(4) 683.5624 655.0295
3438 31.8139 677.9(4) 682.0213 655.1459
3439 31.8218 675.7(4) 680.2057 655.2609
3440 31.8298 673.2(4) 677.6674 655.3774
3441 31.8377 670.7(4) 674.7476 655.4924
3442 31.8457 669.9(4) 672.0020 655.6088
3443 31.8536 670.5(4) 670.2296 655.7238
3444 31.8617 672.3(4) 670.1484 655.8402
3445 31.8695 676.5(4) 672.4949 655.9552
3446 31.8774 684.0(4) 677.9093 656.0702
3447 31.8855 697.7(4) 686.9493 656.1866
3448 31.8933 715.4(4) 699.3097 656.3016
3449 31.9014 738.0(4) 714.4436 656.4180
3450 31.9093 760.8(4) 730.1734 656.5330
3451 31.9172 778.4(4) 744.2188 656.6494
3452 31.9251 787.8(4) 753.2756 656.7644
3453 31.9331 785.7(4) 755.3666 656.8809
3454 31.9410 774.9(4) 750.4066 656.9958
3455 31.9490 756.8(4) 740.2858 657.1122
3456 31.9569 738.6(4) 727.8819 657.2272
3457 31.9649 720.2(4) 715.0366 657.3437
3458 31.9728 706.0(4) 703.3080 657.4587
3459 31.9809 694.3(4) 692.9498 657.5751
3460 31.9888 685.6(4) 684.4190 657.6901
3461 31.9966 679.0(4) 677.5637 657.8051
3462 32.0047 674.0(4) 672.2386 657.9215
3463 32.0126 670.4(4) 668.3618 658.0365
3464 32.0205 667.6(4) 665.6159 658.1529
3465 32.0285 664.6(4) 663.8524 658.2679
3466 32.0365 663.1(4) 662.8190 658.3844
3467 32.0443 662.3(4) 662.3851 658.4993
3468 32.0524 662.9(4) 662.4613 658.6158
3469 32.0603 663.4(4) 663.0723 658.7308
3470 32.0683 665.0(4) 664.3605 658.8472
3471 32.0762 666.9(4) 666.4803 658.9622
3472 32.0842 669.1(4) 669.6579 659.0786
3473 32.0921 671.6(4) 673.8603 659.1936
3474 32.1001 675.5(4) 679.0047 659.3101
3475 32.1080 679.6(4) 684.4679 659.4250
3476 32.1159 683.5(4) 689.5180 659.5400
3477 32.1239 687.1(4) 693.2377 659.6564
3478 32.1318 690.2(4) 694.7618 659.7714
3479 32.1398 692.8(4) 693.9043 659.8879
3480 32.1477 692.6(4) 690.9735 660.0028
3481 32.1557 690.0(4) 686.5159 660.1193
3482 32.1636 684.8(4) 681.4529 660.2343
3483 32.1716 680.1(4) 676.4672 660.3507
3484 32.1795 675.8(4) 672.2479 660.4657
3485 32.1875 673.2(4) 668.9684 660.5821
3486 32.1954 669.5(4) 666.7423 660.6971
3487 32.2034 667.5(4) 665.3875 660.8135
3488 32.2113 665.2(4) 664.7397 660.9285
3489 32.2192 665.3(4) 664.4352 660.9062
3490 32.2271 665.2(4) 664.3909 660.8289
3491 32.2351 666.8(4) 664.5425 660.7516
3492 32.2430 667.0(4) 664.8561 660.6733
3493 32.2509 667.7(4) 665.3805 660.5961
3494 32.2590 667.8(4) 666.2692 660.5178
3495 32.2669 669.2(4) 667.7182 660.4404
3496 32.2749 670.8(4) 669.8851 660.3622
3497 32.2828 672.4(4) 672.6909 660.2849
3498 32.2908 674.9(4) 675.9472 660.2066
3499 32.2987 676.0(4) 679.0773 660.1293
3500 32.3067 677.5(4) 681.4677 660.0511
3501 32.3146 678.1(4) 682.4120 659.9738
3502 32.3226 678.4(4) 681.6488 659.8955
3503 32.3305 677.8(4) 679.4442 659.8182
3504 32.3385 675.2(4) 676.3302 659.7399
3505 32.3464 672.7(4) 672.9841 659.6627
3506 32.3543 670.1(4) 669.8478 659.5853
3507 32.3623 669.1(4) 667.2031 659.5071
3508 32.3702 669.3(4) 665.2513 659.4298
3509 32.3782 669.8(4) 663.9194 659.3515
3510 32.3861 670.1(4) 663.1504 659.2742
3511 32.3941 670.8(4) 662.8350 659.1960
3512 32.4020 672.1(4) 662.9552 659.1187
3513 32.4100 675.0(4) 663.6180 659.0404
3514 32.4179 679.6(4) 665.0769 658.9631
3515 32.4258 686.1(4) 667.8546 658.8848
3516 32.4338 698.5(4) 672.5309 658.8076
3517 32.4418 719.0(4) 679.9063 658.7292
3518 32.4496 744.0(4) 690.1845 658.6520
3519 32.4577 781.9(4) 703.4119 658.5737
3520 32.4656 821.9(4) 718.0933 658.4964
3521 32.4734 855.1(4) 732.2479 658.4191
3522 32.4815 884.1(4) 743.1266 658.3408
3523 32.4894 889.0(5) 747.5979 658.2635
3524 32.4974 882.9(4) 744.4255 658.1852
3525 32.5053 852.6(4) 734.8844 658.1080
3526 32.5133 821.5(4) 721.6658 658.0297
3527 32.5212 787.1(4) 708.1284 657.9524
3528 32.5292 755.3(4) 696.2330 657.8741
3529 32.5371 731.3(4) 687.4329 657.7968
3530 32.5451 711.7(4) 681.6172 657.7186
3531 32.5530 698.2(4) 678.2726 657.6412
3532 32.5610 689.9(4) 676.3494 657.5630
3533 32.5689 686.0(4) 675.0974 657.4857
3534 32.5769 683.9(4) 674.1127 657.4074
3535 32.5848 683.6(4) 673.4504 657.3301
3536 32.5927 684.3(4) 673.1255 657.2528
3537 32.6007 686.2(4) 673.2002 657.1746
3538 32.6086 689.0(4) 673.5562 657.0973
3539 32.6166 691.5(4) 674.0017 657.0190
3540 32.6245 693.7(4) 674.4387 656.9417
3541 32.6325 695.9(4) 675.1165 656.8635
3542 32.6404 699.1(4) 676.6033 656.7861
3543 32.6483 705.3(4) 679.7407 656.7079
3544 32.6562 714.3(4) 685.2789 656.6306
3545 32.6643 728.2(4) 694.0675 656.5523
3546 32.6721 746.6(4) 706.1963 656.4750
3547 32.6802 768.8(4) 721.6932 656.3967
3548 32.6881 793.0(4) 738.9908 656.3194
3549 32.6961 817.2(4) 756.3086 656.2411
3550 32.7040 841.2(4) 770.0994 656.1639
3551 32.7119 857.0(4) 777.1924 656.0865
3552 32.7199 860.2(4) 775.1716 656.0083
3553 32.7278 852.4(4) 764.2562 655.9310
3554 32.7358 831.7(4) 746.8467 655.8527
3555 32.7437 804.8(4) 727.0729 655.7755
3556 32.7517 771.0(4) 707.8064 655.6971
3557 32.7596 742.7(4) 691.7162 655.6199
3558 32.7676 719.7(4) 679.3509 655.5416
3559 32.7755 703.9(4) 670.9396 655.4643
3560 32.7835 692.2(4) 665.5768 655.3860
3561 32.7914 684.3(4) 662.5683 655.3088
3562 32.7994 678.8(4) 661.0535 655.2305
3563 32.8073 676.0(4) 660.5202 655.1532
3564 32.8153 674.6(4) 660.6003 655.0749
3565 32.8232 674.0(4) 661.0590 654.9976
3566 32.8311 674.2(4) 661.7233 654.9203
3567 32.8391 675.5(4) 662.4424 654.8420
3568 32.8470 676.0(4) 663.0557 654.7648
3569 32.8549 677.1(4) 663.5156 654.6865
3570 32.8629 679.0(4) 663.9471 654.6092
3571 32.8708 683.1(4) 664.7441 654.5309
3572 32.8787 688.1(4) 666.4758 654.4536
3573 32.8868 696.3(4) 669.9020 654.3753
3574 32.8947 706.6(4) 675.6516 654.2980
3575 32.9027 721.1(4) 684.3727 654.2198
3576 32.9106 736.1(4) 695.8245 654.1425
3577 32.9186 751.6(4) 709.4570 654.0642
3578 32.9265 767.7(4) 723.1074 653.9869
3579 32.9345 780.4(4) 734.4832 653.9086
3580 32.9424 785.6(4) 740.5051 653.8314
3581 32.9503 782.8(4) 739.6669 653.7540
3582 32.9583 771.5(4) 732.3190 653.6758
3583 32.9662 755.7(4) 720.7585 653.5985
3584 32.9742 736.9(4) 707.1916 653.5202
3585 32.9821 719.8(4) 694.0328 653.4429
3586 32.9901 705.8(4) 682.4229 653.3647
3587 32.9980 695.7(4) 673.3657 653.2874
3588 33.0060 687.1(4) 666.6940 653.2091
3589 33.0139 680.8(4) 662.2238 653.1318
3590 33.0219 675.6(4) 659.3351 653.0535
3591 33.0298 672.5(4) 657.6276 652.9763
3592 33.0378 668.7(4) 656.6921 652.8979
3593 33.0457 666.9(4) 656.3277 652.8207
3594 33.0536 666.1(4) 656.4243 652.7424
3595 33.0616 667.7(4) 656.9787 652.6651
3596 33.0695 667.9(4) 658.0506 652.5878
3597 33.0774 669.3(4) 659.7421 652.5095
3598 33.0854 670.4(4) 662.0489 652.4323
3599 33.0934 672.3(4) 664.9616 652.3539
3600 33.1012 674.4(4) 668.2049 652.2767
3601 33.1093 677.2(4) 671.4346 652.1984
3602 33.1172 679.3(4) 674.0650 652.1211
3603 33.1252 680.1(4) 675.6169 652.0428
3604 33.1331 678.4(4) 675.6546 651.9655
3605 33.1411 675.2(4) 674.0284 651.8873
3606 33.1490 671.8(4) 671.0824 651.8099
3607 33.1570 669.4(4) 667.3773 651.7317
3608 33.1649 667.4(4) 663.6569 651.6544
3609 33.1729 663.7(4) 660.3294 651.5761
3610 33.1808 661.7(4) 657.7172 651.4988
3611 33.1888 660.3(4) 655.8066 651.4206
3612 33.1967 660.3(4) 654.5640 651.3433
3613 33.2046 658.9(4) 653.7675 651.2660
3614 33.2126 657.5(4) 653.2797 651.1877
3615 33.2205 656.9(4) 652.9999 651.1104
3616 33.2285 657.0(4) 652.8576 651.0322
3617 33.2364 657.4(4) 652.8411 650.9548
3618 33.2444 657.1(4) 652.9767 650.8766
3619 33.2523 657.8(4) 653.3235 650.7993
3620 33.2603 658.4(4) 653.9789 650.7210
3621 33.2682 659.1(4) 655.0186 650.6437
3622 33.2761 659.9(4) 656.5309 650.5654
3623 33.2840 660.9(4) 658.4660 650.4882
3624 33.2921 661.8(4) 660.7405 650.4099
3625 33.2999 662.2(4) 663.0416 650.3326
3626 33.3078 662.7(4) 665.0392 650.2553
3627 33.3159 662.5(4) 666.3796 650.1770
3628 33.3238 662.9(4) 666.7739 650.0997
3629 33.3318 663.0(4) 666.2057 650.0214
3630 33.3397 663.0(4) 664.8726 649.9442
3631 33.3477 662.8(4) 662.9930 649.8658
3632 33.3556 663.1(4) 660.8668 649.7886
3633 33.3636 664.2(4) 658.6959 649.7103
3634 33.3715 664.1(4) 656.7576 649.6330
3635 33.3795 663.6(4) 655.1459 649.5547
3636 33.3874 662.4(4) 653.9511 649.4775
3637 33.3954 662.7(4) 653.1320 649.3992
3638 33.4033 662.5(4) 652.6693 649.3219
3639 33.4113 662.5(4) 652.5153 649.2437
3640 33.4192 662.6(4) 652.6720 649.1663
3641 33.4271 664.2(4) 653.1882 649.0891
3642 33.4351 666.3(4) 654.1791 649.0107
3643 33.4430 668.7(4) 655.7575 648.9335
3644 33.4510 670.8(4) 658.0749 648.8552
3645 33.4589 673.0(4) 661.0849 648.7779
3646 33.4669 676.4(4) 664.6877 648.6996
3647 33.4748 681.1(4) 668.4507 648.6223
3648 33.4827 686.4(4) 671.9866 648.5441
3649 33.4907 690.5(4) 674.7762 648.4668
3650 33.4986 696.0(4) 676.7960 648.3885
3651 33.5065 702.2(4) 678.5559 648.3112
3652 33.5146 711.3(4) 681.3298 648.2329
3653 33.5225 723.8(4) 686.6127 648.1556
3654 33.5305 744.3(4) 696.2781 648.0773
3655 33.5384 773.1(4) 711.5971 648.0001
3656 33.5464 816.2(4) 733.9076 647.9218
3657 33.5543 870.8(4) 762.5043 647.8445
3658 33.5622 936.0(5) 795.8334 647.7672
3659 33.5702 999.4(5) 830.3470 647.6889
3660 33.5781 1047.6(5) 858.9901 647.6116
3661 33.5861 1075.1(5) 875.2533 647.5334
3662 33.5940 1068.8(5) 873.9820 647.4561
3663 33.6020 1038.4(5) 856.1412 647.3778
3664 33.6099 983.7(5) 827.9952 647.3005
3665 33.6179 925.0(5) 795.7317 647.2222
3666 33.6258 864.0(4) 765.3329 647.1450
3667 33.6338 820.9(4) 739.0644 647.0667
3668 33.6417 783.4(4) 718.5248 646.9894
3669 33.6497 757.2(4) 702.9885 646.9111
3670 33.6576 736.8(4) 691.9374 646.8338
3671 33.6655 721.7(4) 684.0406 646.7565
3672 33.6735 711.7(4) 678.2690 646.6422
3673 33.6814 706.6(4) 674.0422 646.3456
3674 33.6894 703.3(4) 671.0895 646.0453
3675 33.6973 701.5(4) 669.1187 645.7487
3676 33.7052 700.1(4) 667.5850 645.4484
3677 33.7132 699.0(4) 665.9838 645.1518
3678 33.7212 696.4(4) 663.9120 644.8514
3679 33.7290 692.9(4) 661.4642 644.5549
3680 33.7371 688.6(4) 658.9333 644.2545
3681 33.7450 683.9(4) 656.8758 643.9579
3682 33.7530 680.0(4) 655.6512 643.6576
3683 33.7609 677.3(4) 655.5590 643.3610
3684 33.7689 675.3(4) 656.6708 643.0607
3685 33.7768 674.2(4) 658.7999 642.7642
3686 33.7848 673.8(4) 661.6052 642.4638
3687 33.7927 675.1(4) 664.4553 642.1672
3688 33.8006 675.3(4) 666.7922 641.8707
3689 33.8086 676.3(4) 668.2281 641.5704
3690 33.8165 679.1(4) 668.6622 641.2738
3691 33.8245 683.6(4) 668.5157 640.9735
3692 33.8324 687.7(4) 668.6646 640.6769
3693 33.8404 693.3(4) 670.1721 640.3766
3694 33.8483 701.3(4) 673.8531 640.0800
3695 33.8563 712.5(4) 680.2701 639.7797
3696 33.8642 725.7(4) 689.2570 639.4832
3697 33.8722 741.1(4) 700.5430 639.1829
3698 33.8801 758.9(4) 713.0131 638.8863
3699 33.8881 782.8(4) 726.0896 638.5859
3700 33.8960 801.3(4) 738.5190 638.2894
3701 33.9039 823.3(4) 749.1822 637.9891
3702 33.9118 835.9(4) 755.8494 637.6925
3703 33.9198 842.8(4) 757.0770 637.3959
3704 33.9277 841.3(4) 752.8973 637.0956
3705 33.9356 835.6(4) 745.2012 636.7991
3706 33.9437 828.9(4) 735.7361 636.4986
3707 33.9516 816.4(4) 725.7834 636.2020
3708 33.9596 803.6(4) 715.3387 635.9017
3709 33.9675 788.9(4) 704.8348 635.6052
3710 33.9755 768.4(4) 694.6743 635.3048
3711 33.9834 752.1(4) 685.8652 635.0082
3712 33.9914 736.2(4) 678.6116 634.7079
3713 33.9993 725.0(4) 673.0023 634.4114
3714 34.0073 714.9(4) 668.4274 634.1111
3715 34.0152 710.3(4) 664.5949 633.8145
3716 34.0232 709.1(4) 661.5462 633.5142
3717 34.0311 712.9(4) 660.1279 633.2176
3718 34.0390 721.2(4) 661.4785 632.9210
3719 34.0470 733.7(4) 667.0303 632.6207
3720 34.0549 754.4(4) 677.7727 632.3242
3721 34.0629 777.4(4) 694.4011 632.0239
3722 34.0708 805.0(4) 715.7327 631.7273
3723 34.0788 830.8(4) 740.0153 631.4269
3724 34.0867 852.9(4) 762.9706 631.1304
3725 34.0947 872.8(4) 780.6818 630.8301
3726 34.1026 885.6(4) 789.3124 630.5335
3727 34.1105 892.4(4) 788.5862 630.2332
3728 34.1185 890.4(4) 780.6271 629.9366
3729 34.1265 883.6(4) 768.4169 629.6362
3730 34.1343 871.2(4) 755.9176 629.3397
3731 34.1424 855.9(4) 746.6253 629.0393
3732 34.1503 847.8(4) 743.3742 628.7427
3733 34.1581 842.8(4) 746.2674 628.4463
3734 34.1662 843.6(4) 753.2062 628.1458
3735 34.1741 842.1(4) 759.9253 627.8492
3736 34.1821 836.2(4) 761.8672 627.5490
3737 34.1900 821.6(4) 755.6061 627.2524
3738 34.1980 798.1(4) 740.8100 626.9521
3739 34.2059 771.4(4) 720.8195 626.6555
3740 34.2139 741.2(4) 699.2374 626.3552
3741 34.2218 716.5(4) 680.0027 626.0586
3742 34.2298 696.9(4) 664.7771 625.7583
3743 34.2377 681.0(4) 654.7107 625.4617
3744 34.2457 670.5(4) 649.2874 625.1614
3745 34.2536 663.7(4) 647.7557 624.8649
3746 34.2616 660.6(4) 648.8959 624.5646
3747 34.2695 658.5(4) 651.4312 624.2679
3748 34.2774 657.2(4) 654.1796 623.9714
3749 34.2854 656.2(4) 656.1389 623.6711
3750 34.2933 655.9(4) 656.5154 623.3745
3751 34.3013 655.6(4) 655.0634 623.0742
3752 34.3092 655.7(4) 652.1553 622.7776
3753 34.3172 654.5(4) 648.3597 622.4773
3754 34.3251 651.9(4) 644.3622 622.1807
3755 34.3330 649.5(4) 640.5056 621.8804
3756 34.3410 648.4(4) 637.1251 621.5839
3757 34.3490 647.4(4) 634.2849 621.2834
3758 34.3568 646.4(4) 632.2176 620.9870
3759 34.3649 646.0(4) 631.0790 620.6865
3760 34.3728 647.3(4) 631.1575 620.3900
3761 34.3808 650.5(4) 632.7375 620.0897
3762 34.3887 654.9(4) 636.0287 619.7931
3763 34.3966 660.2(4) 641.1432 619.4965
3764 34.4046 664.5(4) 647.9896 619.1962
3765 34.4125 668.3(4) 655.7798 618.8996
3766 34.4205 670.3(4) 663.6306 618.5993
3767 34.4284 671.8(4) 670.0543 618.3027
3768 34.4364 669.4(4) 673.9285 618.0024
3769 34.4443 666.1(4) 674.2120 617.7059
3770 34.4523 661.5(4) 670.8859 617.4056
3771 34.4602 658.5(4) 665.2526 617.1089
3772 34.4682 655.7(4) 659.0896 616.8087
3773 34.4761 654.7(4) 654.1396 616.5121
3774 34.4841 653.6(4) 651.0708 616.2118
3775 34.4920 651.7(4) 649.8055 615.9152
3776 34.5000 650.1(4) 649.3759 615.6149
3777 34.5079 648.6(4) 648.5501 615.3183
3778 34.5158 646.9(4) 646.4651 615.0217
3779 34.5238 645.1(4) 643.0551 614.7214
3780 34.5317 643.7(4) 639.1373 614.4249
3781 34.5396 643.0(4) 635.7527 614.1246
3782 34.5476 642.3(4) 634.2988 613.8280
3783 34.5555 643.0(4) 636.2662 613.5277
3784 34.5634 645.6(4) 643.3341 613.2311
3785 34.5715 648.6(4) 657.5535 612.9307
3786 34.5794 653.0(4) 679.9747 612.6341
3787 34.5874 658.1(4) 711.2766 612.3338
3788 34.5953 664.9(4) 748.4824 612.0372
3789 34.6033 672.6(4) 787.3319 611.7369
3790 34.6112 679.5(4) 819.2958 611.4403
3791 34.6192 684.5(4) 836.4485 611.1400
3792 34.6271 686.5(4) 832.6700 610.8434
3793 34.6350 686.1(4) 809.4295 610.5469
3794 34.6430 682.3(4) 773.3253 610.2466
3795 34.6509 677.4(4) 733.9211 609.9500
3796 34.6589 670.0(4) 697.3668 609.6497
3797 34.6668 661.3(4) 668.8016 609.3531
3798 34.6748 652.4(4) 649.0423 609.0528
3799 34.6827 646.1(4) 638.1460 608.7562
3800 34.6907 643.0(4) 634.4092 608.4559
3801 34.6986 641.0(4) 636.2786 608.1593
3802 34.7066 641.0(4) 642.1111 607.8590
3803 34.7145 641.7(4) 650.0171 607.5624
3804 34.7225 642.9(4) 658.1922 607.2621
3805 34.7304 643.1(4) 664.3080 606.9656
3806 34.7383 644.2(4) 666.6946 606.6653
3807 34.7463 644.3(4) 664.7787 606.3687
3808 34.7542 643.1(4) 659.5753 606.0721
3809 34.7621 640.7(4) 652.5080 605.7718
3810 34.7701 637.7(4) 644.9991 605.4752
3811 34.7781 634.5(4) 637.6292 605.1748
3812 34.7859 631.3(4) 631.0031 604.8784
3813 34.7940 629.0(4) 625.1332 604.5779
3814 34.8019 625.9(4) 620.2506 604.2813
3815 34.8099 622.2(4) 616.2881 603.9810
3816 34.8178 618.4(4) 613.3829 603.6844
3817 34.8258 615.9(4) 611.4748 603.3842
3818 34.8337 614.5(4) 610.6213 603.0875
3819 34.8417 613.8(4) 610.8227 602.7872
3820 34.8496 613.3(4) 612.1323 602.4907
3821 34.8576 612.9(4) 614.6783 602.1904
3822 34.8655 612.8(4) 618.3725 601.8938
3823 34.8734 613.5(4) 623.0809 601.5972
3824 34.8814 614.5(4) 628.3749 601.2969
3825 34.8893 616.4(4) 633.2644 601.0003
3826 34.8973 618.8(4) 636.7101 600.7000
3827 34.9052 620.5(4) 637.6356 600.4034
3828 34.9132 621.8(4) 635.7419 600.1031
3829 34.9211 621.4(4) 631.4809 599.8066
3830 34.9291 619.0(4) 625.7632 599.5063
3831 34.9370 615.6(4) 619.7391 599.2097
3832 34.9450 611.8(4) 614.0754 598.9094
3833 34.9529 608.7(4) 609.4008 598.6128
3834 34.9608 605.4(4) 605.7699 598.3125
3835 34.9688 603.3(4) 603.2001 598.0159
3836 34.9768 601.4(4) 601.4378 597.7155
3837 34.9846 599.9(4) 600.2981 597.4191
3838 34.9925 597.6(4) 599.5558 597.1224
3839 35.0006 596.4(4) 599.0521 596.8220
3840 35.0085 595.5(4) 598.6865 596.5255
3841 35.0165 595.1(4) 598.3605 596.2252
3842 35.0244 595.1(4) 598.0370 595.9286
3843 35.0324 595.9(4) 597.6878 595.6282
3844 35.0403 595.2(4) 597.3466 595.3317
3845 35.0483 594.6(4) 597.0669 595.0314
3846 35.0562 594.6(4) 596.9471 594.7348
3847 35.0642 595.5(4) 597.1241 594.4345
3848 35.0721 595.8(4) 597.6918 594.1379
3849 35.0801 597.7(4) 598.7968 593.8376
3850 35.0880 601.0(4) 600.4413 593.5410
3851 35.0960 605.2(4) 602.5266 593.2407
3852 35.1039 609.2(4) 604.7322 592.9442
3853 35.1118 612.2(4) 606.5804 592.6476
3854 35.1198 613.0(4) 607.5299 592.3473
3855 35.1277 610.5(4) 607.1761 592.0507
3856 35.1357 607.5(4) 605.7234 591.8593
3857 35.1436 604.4(4) 603.6447 591.7349
3858 35.1516 602.2(4) 601.4425 591.6089
3859 35.1595 599.6(4) 599.7137 591.4844
3860 35.1674 598.1(4) 598.8203 591.3585
3861 35.1754 598.0(4) 599.0113 591.2340
3862 35.1833 599.5(4) 600.2932 591.1080
3863 35.1912 601.6(4) 602.4782 590.9836
3864 35.1993 603.1(4) 605.1909 590.8575
3865 35.2072 602.9(4) 607.7769 590.7331
3866 35.2152 602.5(4) 609.6545 590.6071
3867 35.2231 602.2(4) 610.3552 590.4827
3868 35.2310 601.8(4) 609.9448 590.3583
3869 35.2390 600.7(4) 608.8339 590.2323
3870 35.2469 599.7(4) 607.6988 590.1078
3871 35.2549 597.8(4) 607.0828 589.9819
3872 35.2628 596.0(4) 607.2153 589.8574
3873 35.2708 594.9(4) 607.8922 589.7314
3874 35.2787 596.1(4) 608.5438 589.6070
3875 35.2867 597.2(4) 608.5405 589.4810
3876 35.2946 598.7(4) 607.5624 589.3566
3877 35.3026 600.5(4) 605.8289 589.2306
3878 35.3105 604.2(4) 603.9341 589.1061
3879 35.3185 608.1(4) 602.3014 588.9802
3880 35.3264 611.6(4) 601.2212 588.8558
3881 35.3344 614.1(4) 600.6163 588.7297
3882 35.3423 615.3(4) 600.2823 588.6053
3883 35.3502 616.8(4) 600.0486 588.4809
3884 35.3582 619.0(4) 600.0767 588.3549
3885 35.3661 624.4(4) 600.8615 588.2305
3886 35.3741 634.4(4) 603.0394 588.1045
3887 35.3820 651.2(4) 606.9802 587.9800
3888 35.3899 675.7(4) 612.7491 587.8541
3889 35.3979 699.0(4) 619.5056 587.7296
3890 35.4059 716.5(4) 626.0471 587.6036
3891 35.4137 724.5(4) 630.4182 587.4792
3892 35.4218 719.4(4) 631.1406 587.3531
3893 35.4297 703.2(4) 627.7927 587.2288
3894 35.4377 681.3(4) 621.3608 587.1027
3895 35.4456 657.9(4) 613.7221 586.9783
3896 35.4536 635.9(4) 606.2332 586.8523
3897 35.4615 619.0(4) 600.0680 586.7279
3898 35.4694 607.7(4) 595.5191 586.6035
3899 35.4774 600.7(4) 592.4929 586.4775
3900 35.4853 596.7(4) 590.7668 586.3530
3901 35.4933 594.1(3) 589.9666 586.2271
3902 35.5012 592.2(3) 589.8741 586.1026
3903 35.5092 591.9(3) 590.3762 585.9766
3904 35.5171 593.1(3) 591.4175 585.8522
3905 35.5251 595.5(3) 593.0002 585.7262
3906 35.5330 598.1(4) 595.0054 585.6018
3907 35.5410 599.7(4) 597.2936 585.4758
3908 35.5489 600.9(4) 599.5059 585.3514
3909 35.5569 602.6(4) 601.3544 585.2254
3910 35.5648 603.8(4) 602.5161 585.1010
3911 35.5728 602.9(4) 602.8150 584.9750
3912 35.5807 601.6(4) 602.2087 584.8505
3913 35.5886 601.4(4) 601.0347 584.7261
3914 35.5965 601.1(4) 599.9397 584.6001
3915 35.6045 600.0(4) 599.6584 584.4757
3916 35.6124 599.8(4) 600.6431 584.3497
3917 35.6203 599.7(4) 603.0770 584.2253
3918 35.6284 599.8(4) 606.7010 584.0992
3919 35.6363 600.1(4) 610.7787 583.9748
3920 35.6443 600.9(4) 614.5791 583.8488
3921 35.6522 602.7(4) 617.3585 583.7244
3922 35.6602 603.3(4) 618.9333 583.5984
3923 35.6681 604.1(4) 619.2925 583.4739
3924 35.6761 603.7(4) 618.5988 583.3480
3925 35.6840 603.2(4) 616.9244 583.2235
3926 35.6920 603.8(4) 614.1868 583.0975
3927 35.6999 605.2(4) 610.5168 582.9731
3928 35.7079 608.5(4) 606.2858 582.8471
3929 35.7158 611.2(4) 602.2614 582.7227
3930 35.7237 613.9(4) 598.9331 582.5983
3931 35.7317 615.8(4) 596.6451 582.4723
3932 35.7396 619.0(4) 595.6570 582.3478
3933 35.7476 623.3(4) 596.2311 582.2219
3934 35.7555 627.5(4) 598.9529 582.0974
3935 35.7635 633.6(4) 604.9410 581.9714
3936 35.7714 641.9(4) 615.2981 581.8470
3937 35.7794 655.4(4) 631.2281 581.7210
3938 35.7873 673.3(4) 652.2520 581.5966
3939 35.7952 695.7(4) 677.1900 581.4706
3940 35.8032 722.5(4) 702.0286 581.3461
3941 35.8111 752.0(4) 722.7759 581.2202
3942 35.8190 788.5(4) 734.9304 581.0957
3943 35.8270 831.6(4) 738.0593 580.9713
3944 35.8350 875.7(4) 735.2301 580.8453
3945 35.8428 922.6(4) 730.6984 580.7209
3946 35.8509 944.9(4) 726.7032 580.5948
3947 35.8588 952.3(4) 722.8812 580.4704
3948 35.8668 934.3(4) 716.3499 580.3444
3949 35.8747 896.3(4) 704.3348 580.2200
3950 35.8827 838.6(4) 686.1743 580.0940
3951 35.8906 784.5(4) 664.8746 579.9695
3952 35.8986 732.6(4) 643.3983 579.8436
3953 35.9065 688.2(4) 625.0784 579.7191
3954 35.9145 657.9(4) 611.0350 579.5931
3955 35.9224 633.9(4) 601.9134 579.4688
3956 35.9304 619.8(4) 596.8756 579.3427
3957 35.9383 612.4(4) 595.0695 579.2183
3958 35.9462 608.7(4) 595.5287 579.0939
3959 35.9542 609.2(4) 597.7987 578.9679
3960 35.9621 613.4(4) 601.8713 578.8434
3961 35.9701 623.3(4) 608.4838 578.7175
3962 35.9780 638.2(4) 618.4078 578.5930
3963 35.9860 660.3(4) 632.4485 578.4670
3964 35.9939 691.0(4) 649.6069 578.3426
3965 36.0019 726.2(4) 667.9686 578.2166
3966 36.0098 755.5(4) 683.2313 578.0922
3967 36.0177 772.9(4) 691.2858 577.9662
3968 36.0257 771.4(4) 689.1759 577.8418
3969 36.0337 754.3(4) 677.8052 577.7157
3970 36.0415 726.8(4) 661.1531 577.5914
3971 36.0496 694.8(4) 642.8154 577.4653
3972 36.0575 665.1(4) 626.1768 577.3409
3973 36.0655 640.4(4) 612.4630 577.2149
3974 36.0734 622.7(4) 602.5588 577.0905
3975 36.0813 611.6(4) 596.0349 576.9660
3976 36.0893 603.9(3) 592.1814 576.8400
3977 36.0972 600.4(3) 590.2836 576.7156
3978 36.1052 598.0(3) 589.5287 576.5896
3979 36.1131 597.2(3) 589.3718 576.4652
3980 36.1211 596.9(3) 589.5372 576.3392
3981 36.1290 598.3(3) 590.2400 576.2148
3982 36.1370 601.4(3) 592.0243 576.0887
3983 36.1449 605.6(3) 595.4772 575.9644
3984 36.1529 611.2(4) 601.0532 575.8384
3985 36.1608 618.2(4) 608.4653 575.7139
3986 36.1688 626.3(4) 617.0961 575.5880
3987 36.1767 634.6(4) 625.3622 575.4635
3988 36.1846 644.7(4) 631.8678 575.3391
3989 36.1926 655.4(4) 635.8347 575.2131
3990 36.2005 669.5(4) 637.5918 575.0887
3991 36.2085 685.5(4) 638.4966 574.9626
3992 36.2164 705.5(4) 640.1552 574.8383
3993 36.2243 725.2(4) 643.9407 574.7122
3994 36.2323 744.8(4) 650.1179 574.5878
3995 36.2402 759.4(4) 657.8931 574.4619
3996 36.2481 760.5(4) 664.7710 574.3374
3997 36.2562 754.9(4) 667.7508 574.2114
3998 36.2641 738.3(4) 664.4726 574.0869
3999 36.2721 717.5(4) 655.1495 573.9609
4000 36.2800 692.8(4) 642.5184 573.8365
4001 36.2880 673.2(4) 629.4370 573.7105
4002 36.2959 655.2(4) 618.7674 573.5861
4003 36.3039 641.6(4) 611.6702 573.4601
4004 36.3118 633.5(4) 608.4825 573.3356
4005 36.3197 628.6(4) 608.2481 573.2112
4006 36.3277 625.8(4) 609.5603 573.0853
4007 36.3356 624.5(4) 610.9272 572.9608
4008 36.3436 624.3(4) 611.5479 572.8348
4009 36.3515 627.1(4) 611.4720 572.7104
4010 36.3595 630.2(4) 611.1431 572.5844
4011 36.3674 632.1(4) 610.7294 572.4600
4012 36.3754 632.2(4) 609.8690 572.3340
4013 36.3833 630.2(4) 607.9623 572.2095
4014 36.3913 625.2(4) 604.5266 572.0836
4015 36.3992 617.6(4) 599.8350 571.9591
4016 36.4072 607.4(3) 594.4294 571.8331
4017 36.4151 596.7(3) 589.1620 571.7087
4018 36.4230 587.4(3) 584.4607 571.5827
4019 36.4310 581.8(3) 580.7563 571.4583
4020 36.4389 577.9(3) 578.0533 571.3339
4021 36.4468 575.0(3) 576.1953 571.2079
4022 36.4548 573.0(3) 575.0204 571.0834
4023 36.4628 572.1(3) 574.2798 570.9574
4024 36.4706 571.4(3) 573.8214 570.8330
4025 36.4787 571.5(3) 573.5226 570.7070
4026 36.4866 571.3(3) 573.3390 570.5825
4027 36.4946 571.4(3) 573.2465 570.4565
4028 36.5025 571.7(3) 573.2390 570.3321
4029 36.5105 573.1(3) 573.3180 570.2061
4030 36.5184 573.5(3) 573.4453 570.0817
4031 36.5264 574.3(3) 573.6435 569.9557
4032 36.5343 577.0(3) 573.9766 569.8313
4033 36.5423 581.7(3) 574.6665 569.7053
4034 36.5502 588.3(3) 576.1183 569.5809
4035 36.5581 598.1(3) 579.0182 569.4564
4036 36.5661 611.0(3) 584.3408 569.3304
4037 36.5740 631.5(4) 592.8519 569.2060
4038 36.5820 657.0(4) 605.2283 569.0800
4039 36.5899 682.3(4) 620.6359 568.9562
4040 36.5979 710.7(4) 637.5464 568.8387
4041 36.6058 730.5(4) 652.3184 568.7226
4042 36.6138 741.9(4) 661.4273 568.6050
4043 36.6217 736.2(4) 661.9951 568.4890
4044 36.6297 726.5(4) 654.6680 568.3715
4045 36.6376 707.2(4) 643.0654 568.2554
4046 36.6455 688.4(4) 630.8616 568.1378
4047 36.6535 668.6(4) 620.9856 568.0217
4048 36.6615 651.8(4) 614.0242 567.9041
4049 36.6693 639.0(4) 609.4156 567.7881
4050 36.6772 627.2(4) 605.5629 567.6721
4051 36.6853 616.2(3) 601.2161 567.5544
4052 36.6932 605.7(3) 596.1516 567.4384
4053 36.7012 598.1(3) 590.6675 567.3208
4054 36.7091 592.4(3) 585.5869 567.2047
4055 36.7171 587.8(3) 581.2971 567.0872
4056 36.7250 583.7(3) 578.0624 566.9711
4057 36.7330 580.9(3) 575.6572 566.8536
4058 36.7409 576.6(3) 573.8995 566.7375
4059 36.7489 573.1(3) 572.5289 566.6199
4060 36.7568 571.7(3) 571.4470 566.5038
4061 36.7648 571.2(3) 570.5666 566.3864
4062 36.7727 568.7(3) 569.8949 566.2703
4063 36.7807 566.8(3) 569.3836 566.1527
4064 36.7886 565.9(3) 569.0723 566.0366
4065 36.7965 566.3(3) 568.8397 565.9205
4066 36.8045 567.1(3) 568.6368 565.8030
4067 36.8124 567.2(3) 568.4185 565.6869
4068 36.8204 566.6(3) 568.1761 565.5694
4069 36.8283 565.9(3) 567.9421 565.4533
4070 36.8363 565.5(3) 567.7377 565.3358
4071 36.8442 566.1(3) 567.6528 565.2197
4072 36.8521 566.0(3) 567.7180 565.1021
4073 36.8601 566.8(3) 567.9774 564.9860
4074 36.8680 567.8(3) 568.4695 564.8685
4075 36.8759 569.6(3) 569.1772 564.7524
4076 36.8840 571.4(3) 570.0834 564.6348
4077 36.8919 574.2(3) 571.1085 564.5187
4078 36.8999 576.4(3) 572.2670 564.4012
4079 36.9078 578.7(3) 573.6654 564.2851
4080 36.9157 581.9(3) 575.7056 564.1691
4081 36.9237 586.4(3) 579.0397 564.0515
4082 36.9316 591.4(3) 584.1216 563.9354
4083 36.9396 597.4(3) 591.2004 563.8179
4084 36.9475 605.4(3) 599.5487 563.7018
4085 36.9555 612.7(3) 608.0556 563.5842
4086 36.9634 618.9(3) 614.7087 563.4682
4087 36.9714 624.4(3) 618.1396 563.3506
4088 36.9793 627.5(4) 618.1803 563.2346
4089 36.9873 628.0(4) 616.5059 563.1170
4090 36.9952 627.8(4) 615.5716 563.0009
4091 37.0032 629.1(4) 617.9424 562.8834
4092 37.0111 634.5(4) 625.7028 562.7673
4093 37.0191 646.2(4) 640.0222 562.6498
4094 37.0270 656.7(4) 659.5599 562.5337
4095 37.0349 661.8(4) 681.2497 562.4176
4096 37.0429 665.6(4) 700.4933 562.3000
4097 37.0508 667.4(4) 711.8397 562.1840
4098 37.0588 664.1(4) 711.9381 562.0664
4099 37.0667 656.5(4) 700.3060 561.9504
4100 37.0746 647.3(4) 680.2772 561.8328
4101 37.0826 638.2(4) 657.8356 561.7167
4102 37.0906 630.0(4) 637.1154 561.5991
4103 37.0984 621.9(3) 621.2342 561.4831
4104 37.1065 614.8(3) 610.2391 561.3655
4105 37.1144 610.2(3) 603.4538 561.2495
4106 37.1224 608.9(3) 599.4769 561.1319
4107 37.1303 608.9(3) 597.9036 561.0158
4108 37.1383 608.2(3) 598.8371 560.8983
4109 37.1462 608.7(3) 602.3752 560.7822
4110 37.1541 610.4(3) 607.9382 560.6661
4111 37.1621 610.4(3) 614.0966 560.5486
4112 37.1700 608.0(3) 618.5294 560.4325
4113 37.1780 606.7(3) 619.4325 560.3149
4114 37.1859 605.2(3) 616.3371 560.1989
4115 37.1939 604.3(3) 610.4272 560.0813
4116 37.2018 602.5(3) 603.8591 559.9652
4117 37.2098 601.4(3) 598.1392 559.8477
4118 37.2177 601.0(3) 594.1904 559.7316
4119 37.2257 599.8(3) 591.8628 559.6141
4120 37.2336 596.6(3) 590.4128 559.4980
4121 37.2416 593.2(3) 588.6302 559.3804
4122 37.2495 590.8(3) 585.7169 559.2643
4123 37.2575 586.7(3) 581.5898 559.1469
4124 37.2654 581.3(3) 576.9814 559.0308
4125 37.2733 577.0(3) 572.5974 558.9147
4126 37.2812 574.3(3) 568.9753 558.7971
4127 37.2892 574.3(3) 566.5298 558.6810
4128 37.2971 574.7(3) 565.3528 558.5635
4129 37.3050 576.5(3) 565.5678 558.4474
4130 37.3131 581.0(3) 567.3352 558.3298
4131 37.3210 586.5(3) 570.7854 558.2137
4132 37.3290 592.7(3) 576.0255 558.0962
4133 37.3369 600.5(3) 582.5495 557.9801
4134 37.3449 611.5(3) 589.5911 557.8625
4135 37.3528 620.5(3) 595.5903 557.7465
4136 37.3608 626.8(3) 599.2801 557.6290
4137 37.3687 628.5(3) 600.1382 557.5129
4138 37.3767 628.1(3) 599.4942 557.3953
4139 37.3846 627.6(3) 599.7104 557.2792
4140 37.3925 628.8(3) 602.7886 557.1631
4141 37.4005 630.0(3) 609.5269 557.0457
4142 37.4084 631.8(3) 618.6583 556.9296
4143 37.4164 632.8(3) 627.5933 556.8120
4144 37.4243 634.7(3) 632.5206 556.6959
4145 37.4323 634.6(3) 630.9561 556.5784
4146 37.4402 633.5(3) 623.2227 556.4623
4147 37.4482 628.9(3) 611.7646 556.3448
4148 37.4561 623.0(3) 599.8345 556.2287
4149 37.4641 618.1(3) 589.4244 556.1111
4150 37.4720 615.0(3) 582.1814 555.9951
4151 37.4799 612.6(3) 578.6973 555.8775
4152 37.4879 612.6(3) 579.4474 555.7614
4153 37.4958 615.2(3) 584.5457 555.6439
4154 37.5037 620.4(3) 593.5007 555.5278
4155 37.5117 624.4(3) 605.2108 555.4117
4156 37.5197 629.3(3) 617.6824 555.2941
4157 37.5275 632.3(3) 627.6365 555.1781
4158 37.5356 633.0(3) 632.4568 555.0605
4159 37.5435 631.1(3) 630.3812 554.9444
4160 37.5515 628.3(3) 621.8612 554.8269
4161 37.5594 625.1(3) 609.6790 554.7108
4162 37.5674 622.3(3) 596.7312 554.5933
4163 37.5753 621.3(3) 585.8076 554.4772
4164 37.5833 621.8(3) 577.9287 554.3596
4165 37.5912 624.0(3) 573.6323 554.2435
4166 37.5992 626.9(3) 572.5717 554.1260
4167 37.6071 630.0(3) 574.2979 554.0099
4168 37.6151 636.4(3) 578.1558 553.8924
4169 37.6230 644.1(4) 583.2895 553.7763
4170 37.6309 652.0(4) 588.9598 553.6602
4171 37.6389 659.9(4) 594.8573 553.5427
4172 37.6468 666.6(4) 601.3607 553.4266
4173 37.6548 672.0(4) 610.1052 553.3091
4174 37.6627 678.6(4) 622.3129 553.1930
4175 37.6707 685.8(4) 638.3649 553.0754
4176 37.6786 692.3(4) 655.5873 552.9594
4177 37.6866 696.2(4) 669.7177 552.8418
4178 37.6945 693.9(4) 674.8813 552.7258
4179 37.7024 687.9(4) 668.0227 552.6082
4180 37.7104 676.6(4) 651.2129 552.4921
4181 37.7184 662.5(4) 629.3402 552.3745
4182 37.7262 650.3(4) 608.2664 552.2585
4183 37.7343 639.5(3) 591.1064 552.1409
4184 37.7422 629.5(3) 579.8373 552.0248
4185 37.7501 620.9(3) 573.9658 551.9088
4186 37.7581 616.3(3) 572.2576 551.7912
4187 37.7660 612.5(3) 573.2252 551.6751
4188 37.7740 608.6(3) 575.5891 551.5576
4189 37.7819 604.6(3) 578.5402 551.4415
4190 37.7899 601.0(3) 581.9342 551.3240
4191 37.7978 597.3(3) 585.5948 551.2079
4192 37.8058 593.8(3) 589.2528 551.0903
4193 37.8137 591.2(3) 592.0644 550.9742
4194 37.8217 588.8(3) 593.0764 550.8567
4195 37.8296 586.7(3) 591.4197 550.7406
4196 37.8376 583.8(3) 586.9230 550.6231
4197 37.8455 580.4(3) 580.5644 550.5070
4198 37.8535 576.2(3) 573.6140 550.3895
4199 37.8614 572.3(3) 567.5415 550.2734
4200 37.8693 570.3(3) 563.0611 550.1573
4201 37.8773 569.9(3) 560.4242 550.0397
4202 37.8852 569.6(3) 559.5738 549.9236
4203 37.8932 568.3(3) 560.1219 549.8062
4204 37.9011 567.9(3) 561.6061 549.6901
4205 37.9090 568.4(3) 563.6287 549.5725
4206 37.9170 570.4(3) 565.8173 549.4564
4207 37.9249 572.2(3) 568.0114 549.3389
4208 37.9328 575.2(3) 570.2231 549.2228
4209 37.9409 579.9(3) 572.9315 549.1052
4210 37.9488 585.7(3) 576.4412 548.9891
4211 37.9568 590.8(3) 580.6553 548.8716
4212 37.9647 596.8(3) 584.5484 548.7555
4213 37.9727 603.0(3) 586.7921 548.6379
4214 37.9806 606.1(3) 586.1176 548.5219
4215 37.9886 604.3(3) 582.2953 548.4044
4216 37.9965 599.0(3) 576.5121 548.2883
4217 38.0044 592.3(3) 570.3989 548.1722
4218 38.0124 585.3(3) 565.2341 548.0546
4219 38.0203 580.7(3) 561.9302 547.9385
4220 38.0283 578.5(3) 560.6086 547.8210
4221 38.0362 580.6(3) 561.0893 547.7050
4222 38.0442 582.0(3) 562.9720 547.5874
4223 38.0521 582.8(3) 565.7563 547.4919
4224 38.0601 585.4(3) 568.9889 547.4135
4225 38.0680 588.8(3) 571.9338 547.3362
4226 38.0760 591.6(3) 573.9359 547.2578
4227 38.0839 593.3(3) 574.4630 547.1804
4228 38.0919 592.5(3) 573.4000 547.1021
4229 38.0998 589.8(3) 570.8587 547.0247
4230 38.1077 584.7(3) 567.2512 546.9473
4231 38.1157 579.4(3) 563.2818 546.8690
4232 38.1236 574.1(3) 559.8046 546.7916
4233 38.1315 567.6(3) 557.1371 546.7133
4234 38.1395 561.4(3) 555.3586 546.6359
4235 38.1475 556.9(3) 554.1394 546.5575
4236 38.1553 553.0(3) 553.1313 546.4802
4237 38.1634 549.9(3) 552.0694 546.4017
4238 38.1713 548.6(3) 550.9764 546.3244
4239 38.1793 547.3(3) 549.9431 546.2460
4240 38.1872 545.7(3) 549.1357 546.1686
4241 38.1952 545.8(3) 548.6421 546.0903
4242 38.2031 546.0(3) 548.5197 546.0129
4243 38.2111 545.9(3) 548.7646 545.9346
4244 38.2190 545.0(3) 549.3057 545.8572
4245 38.2270 545.1(3) 550.0196 545.7789
4246 38.2349 547.2(3) 550.6855 545.7015
4247 38.2428 547.9(3) 551.0754 545.6241
4248 38.2508 547.7(3) 551.0101 545.5458
4249 38.2587 547.7(3) 550.5073 545.4684
4250 38.2667 547.4(3) 549.7578 545.3900
4251 38.2746 546.6(3) 549.0224 545.3126
4252 38.2826 544.7(3) 548.4714 545.2343
4253 38.2905 545.2(3) 548.2085 545.1569
4254 38.2985 546.7(3) 548.2548 545.0786
4255 38.3064 548.8(3) 548.5655 545.0012
4256 38.3144 548.8(3) 549.0883 544.9229
4257 38.3223 548.1(3) 549.7512 544.8455
4258 38.3302 549.3(3) 550.4917 544.7671
4259 38.3382 551.7(3) 551.1535 544.6898
4260 38.3462 552.4(3) 551.5573 544.6113
4261 38.3540 553.8(3) 551.5350 544.5340
4262 38.3619 557.4(3) 551.1707 544.4567
4263 38.3700 559.7(3) 550.7043 544.3782
4264 38.3779 561.2(3) 550.4877 544.3008
4265 38.3859 562.6(3) 550.8615 544.2225
4266 38.3938 566.2(3) 552.1466 544.1451
4267 38.4018 571.6(3) 554.7155 544.0668
4268 38.4097 578.8(3) 558.8641 543.9894
4269 38.4177 587.9(3) 565.0743 543.9111
4270 38.4256 600.7(3) 573.4659 543.8337
4271 38.4336 613.8(3) 584.3351 543.7554
4272 38.4415 627.2(3) 597.3270 543.6780
4273 38.4495 641.4(3) 612.5441 543.5996
4274 38.4574 658.5(4) 628.8829 543.5222
4275 38.4654 675.2(4) 645.1938 543.4439
4276 38.4733 688.9(4) 659.2372 543.3665
4277 38.4812 697.5(4) 668.9966 543.2891
4278 38.4892 698.8(4) 671.4486 543.2108
4279 38.4971 691.5(4) 664.2916 543.1334
4280 38.5051 679.0(4) 648.4037 543.0551
4281 38.5130 662.2(4) 627.9750 542.9777
4282 38.5210 644.4(3) 606.7210 542.8994
4283 38.5289 626.5(3) 588.2097 542.8220
4284 38.5368 610.4(3) 573.5473 542.7436
4285 38.5448 597.9(3) 563.3745 542.6662
4286 38.5527 589.2(3) 556.8535 542.5879
4287 38.5606 583.4(3) 553.2306 542.5105
4288 38.5687 578.5(3) 551.4976 542.4321
4289 38.5766 572.3(3) 551.0103 542.3547
4290 38.5846 569.9(3) 551.3400 542.2764
4291 38.5925 570.6(3) 552.3601 542.1990
4292 38.6004 571.1(3) 554.2225 542.1216
4293 38.6084 572.3(3) 557.2498 542.0433
4294 38.6163 577.8(3) 561.4268 541.9659
4295 38.6243 583.8(3) 566.4578 541.8876
4296 38.6322 589.0(3) 571.1587 541.8102
4297 38.6402 590.4(3) 574.2090 541.7318
4298 38.6481 591.0(3) 574.4857 541.6545
4299 38.6561 590.0(3) 572.1945 541.5761
4300 38.6640 587.6(3) 568.6775 541.4987
4301 38.6720 588.0(3) 565.4884 541.4203
4302 38.6799 591.5(3) 564.2112 541.3430
4303 38.6879 596.8(3) 565.9499 541.2646
4304 38.6958 599.9(3) 571.0115 541.1873
4305 38.7037 602.8(3) 578.7829 541.1099
4306 38.7117 606.5(3) 587.8346 541.0316
4307 38.7196 609.9(3) 595.7221 540.9542
4308 38.7276 608.4(3) 600.5796 540.8758
4309 38.7355 602.9(3) 601.5358 540.7985
4310 38.7435 594.0(3) 598.8943 540.7201
4311 38.7514 584.2(3) 593.1375 540.6427
4312 38.7593 577.6(3) 584.7894 540.5644
4313 38.7673 573.0(3) 575.3254 540.4870
4314 38.7753 568.2(3) 566.0057 540.4086
4315 38.7831 563.1(3) 558.1840 540.3312
4316 38.7912 558.1(3) 552.1945 540.2529
4317 38.7991 554.0(3) 548.2133 540.1755
4318 38.8071 552.6(3) 545.8111 540.0972
4319 38.8150 551.8(3) 544.6255 540.0198
4320 38.8230 550.4(3) 544.2979 539.9414
4321 38.8309 549.2(3) 544.7292 539.8641
4322 38.8388 549.3(3) 546.0092 539.7867
4323 38.8468 550.0(3) 548.3372 539.7083
4324 38.8547 554.7(3) 551.6500 539.6309
4325 38.8627 561.2(3) 555.6556 539.5526
4326 38.8706 567.4(3) 559.4427 539.4752
4327 38.8786 570.0(3) 561.9705 539.3969
4328 38.8865 571.9(3) 562.2444 539.3195
4329 38.8945 570.6(3) 560.2307 539.2411
4330 38.9024 566.2(3) 556.8571 539.1638
4331 38.9104 560.4(3) 553.2153 539.0854
4332 38.9183 558.2(3) 550.2952 539.0081
4333 38.9263 558.4(3) 548.4915 538.9297
4334 38.9342 554.3(3) 547.8990 538.8523
4335 38.9422 552.0(3) 548.2688 538.7740
4336 38.9501 549.1(3) 549.2027 538.6966
4337 38.9580 552.1(3) 550.3043 538.6192
4338 38.9660 553.2(3) 551.3890 538.5408
4339 38.9739 559.1(3) 552.5754 538.4635
4340 38.9818 565.7(3) 554.2599 538.3851
4341 38.9897 570.7(3) 556.7839 538.3077
4342 38.9978 573.5(3) 560.5533 538.2294
4343 39.0057 576.7(3) 565.7460 538.1520
4344 39.0137 581.9(3) 572.4534 538.0737
4345 39.0216 587.3(3) 579.7604 537.9963
4346 39.0296 588.3(3) 586.3197 537.9179
4347 39.0375 585.6(3) 590.2216 537.8405
4348 39.0455 583.0(3) 590.5514 537.7622
4349 39.0534 579.2(3) 587.4824 537.6848
4350 39.0614 572.1(3) 581.6277 537.6064
4351 39.0693 565.2(3) 573.9150 537.5291
4352 39.0772 561.2(3) 565.4398 537.4517
4353 39.0852 562.0(3) 557.3837 537.3734
4354 39.0931 558.8(3) 550.8281 537.2960
4355 39.1011 554.4(3) 545.9491 537.2177
4356 39.1090 549.5(3) 542.7648 537.1403
4357 39.1170 547.8(3) 540.8289 537.0619
4358 39.1249 546.9(3) 539.7523 536.9845
4359 39.1329 546.5(3) 539.1266 536.9062
4360 39.1408 547.9(3) 538.7196 536.8288
4361 39.1488 546.3(3) 538.3973 536.7504
4362 39.1567 543.6(3) 538.1293 536.6731
4363 39.1646 542.5(3) 537.8967 536.5947
4364 39.1726 543.8(3) 537.7069 536.5173
4365 39.1805 541.6(3) 537.5475 536.4390
4366 39.1884 541.0(3) 537.4242 536.3616
4367 39.1964 538.3(3) 537.3411 536.2842
4368 39.2044 538.5(3) 537.3113 536.2059
4369 39.2122 540.2(3) 537.3787 536.1285
4370 39.2203 541.6(3) 537.6331 536.0501
4371 39.2282 542.0(3) 538.2172 535.9728
4372 39.2362 541.1(3) 539.3548 535.8944
4373 39.2441 543.3(3) 541.2144 535.8170
4374 39.2521 542.0(3) 543.8966 535.7386
4375 39.2600 542.0(3) 547.0919 535.6613
4376 39.2680 545.0(3) 550.2471 535.5829
4377 39.2759 546.4(3) 552.3632 535.5056
4378 39.2839 543.6(3) 552.6298 535.4272
4379 39.2918 544.9(3) 550.8862 535.3499
4380 39.2998 545.8(3) 547.7899 535.2715
4381 39.3077 543.8(3) 544.3741 535.1941
4382 39.3156 540.3(3) 541.3454 535.1168
4383 39.3236 540.7(3) 539.0579 535.0384
4384 39.3315 541.7(3) 537.6154 534.9610
4385 39.3395 537.3(3) 536.8391 534.8827
4386 39.3474 534.2(3) 536.5575 534.8053
4387 39.3554 535.8(3) 536.6118 534.7269
4388 39.3633 542.1(3) 536.9351 534.6495
4389 39.3713 543.7(3) 537.5024 534.5712
4390 39.3792 541.0(3) 538.2858 534.4938
4391 39.3871 546.9(3) 539.2990 534.4155
4392 39.3951 550.4(3) 540.5667 534.3381
4393 39.4031 548.7(3) 542.1108 534.2597
4394 39.4109 543.9(3) 543.8325 534.1824
4395 39.4190 540.8(3) 545.6359 534.1040
4396 39.4269 541.3(3) 547.2171 534.0266
4397 39.4347 544.8(3) 548.1937 533.9493
4398 39.4428 542.8(3) 548.1239 533.8709
4399 39.4507 545.0(3) 546.9113 533.7935
4400 39.4587 550.3(3) 545.0332 533.7151
4401 39.4666 557.1(3) 543.4084 533.6378
4402 39.4746 561.9(3) 542.9341 533.5594
4403 39.4825 563.1(3) 544.3942 533.4821
4404 39.4905 565.8(3) 548.2542 533.4037
4405 39.4984 575.0(3) 554.2385 533.3264
4406 39.5064 583.0(3) 561.5914 533.3264
#BEGIN Loops that were not found in dictionaries:
loop_
_refln_mult
2
2
2
2
2
2
2
2
2
2
2
2
2
2
2
2
2
2
2
2
2
2
2
2
2
2
2
2
2
2
2
2
2
2
2
2
2
2
2
2
2
2
2
2
2
2
2
2
2
2
2
2
2
2
2
2
2
2
2
2
2
2
2
2
2
2
2
2
2
2
2
2
2
2
2
2
2
2
2
2
2
2
2
2
2
2
2
2
2
2
2
2
2
2
2
2
2
2
2
2
2
2
2
2
2
2
2
2
2
2
2
2
2
2
2
2
2
2
2
2
2
2
2
2
2
2
2
2
2
2
2
2
2
2
2
2
2
2
2
2
2
2
2
2
2
2
2
2
2
2
2
2
2
2
2
2
2
2
2
2
2
2
2
2
2
2
2
2
2
2
2
2
2
2
2
2
2
2
2
2
2
2
2
2
2
2
2
2
2
2
2
2
2
2
2
2
2
2
2
2
2
2
2
2
2
2
2
2
2
2
2
2
2
2
2
2
2
2
2
2
2
2
2
2
2
2
2
2
2
2
2
2
2
2
2
2
2
2
2
2
2
2
2
2
2
2
2
2
2
2
2
2
2
2
2
2
2
2
2
2
2
2
2
2
2
2
2
2
2
2
2
2
2
2
2
2
2
2
2
2
2
2
2
2
2
2
2
2
2
2
2
2
2
2
2
2
2
2
2
2
2
2
2
2
2
2
2
2
2
2
2
2
2
2
2
2
2
2
2
2
2
2
2
2
2
2
2
2
2
2
2
2
2
2
2
2
2
2
2
2
2
2
2
2
2
2
2
2
2
2
2
2
2
2
2
2
2
2
2
2
2
2
2
2
2
2
2
2
2
2
2
2
2
2
2
2
2
2
2
2
2
2
2
2
2
2
2
2
2
2
2
2
2
2
2
2
2
2
2
2
2
2
2
2
2
2
2
2
2
2
2
2
2
2
2
2
2
2
2
2
2
2
2
2
2
2
2
2
2
2
2
2
2
2
2
2
2
2
2
2
2
2
2
2
2
2
2
2
2
2
2
2
2
2
2
2
2
2
2
2
2
2
2
2
2
2
2
2
2
2
2
2
2
2
2
2
2
2
2
2
2
2
2
2
2
2
2
2
2
2
2
2
2
2
2
2
2
2
2
2
2
2
2
2
2
2
2
2
2
2
2
2
2
2
2
2
2
2
2
2
2
2
2
2
2
2
2
2
2
2
2
2
2
2
2
2
2
2
2
2
2
2
2
2
2
2
2
2
2
2
2
2
2
2
2
2
2
2
2
2
2
2
2
2
2
2
2
2
2
2
2
2
2
2
2
2
2
2
2
2
2
2
2
2
2
2
2
2
2
2
2
2
2
2
2
2
2
2
2
2
2
2
2
2
2
2
2
2
2
2
2
2
2
2
2
2
2
2
2
2
2
2
2
2
2
2
2
2
2
2
2
2
2
2
2
2
2
2
2
2
2
2
2
2
2
2
2
2
2
2
2
2
2
2
2
2
2
2
2
2
2
2
2
2
2
2
2
2
2
2
2
#END Loops that were not found in dictionaries
