#------------------------------------------------------------------------------
#$Date: 2016-03-26 22:59:10 +0200 (Sat, 26 Mar 2016) $
#$Revision: 180525 $
#$URL: svn://www.crystallography.net/cod/cif/7/21/94/7219472.cif $
#------------------------------------------------------------------------------
#
# This file is available in the Crystallography Open Database (COD),
# http://www.crystallography.net/
#
# All data on this site have been placed in the public domain by the
# contributors.
#
data_7219472
loop_
_publ_author_name
'Safin, Damir A.'
'Tumanov, Nikolay A.'
'Leitch, Alicea A.'
'Brusso, Jaclyn L.'
'Filinchuk, Yaroslav'
'Murugesu, Muralee'
_publ_section_title
;
 Elucidating the elusive crystal structure of
 2,4,6-tris(2-pyrimidyl)-1,3,5-triazine
;
_journal_issue                   10
_journal_name_full               CrystEngComm
_journal_page_first              2190
_journal_paper_doi               10.1039/C5CE00097A
_journal_volume                  17
_journal_year                    2015
_chemical_formula_moiety         'C5 H3 N3'
_chemical_formula_sum            'C5 H3 N3'
_chemical_formula_weight         105.10
_chemical_melting_point          313
_chemical_name_common            2-cyanopyrimidine
_chemical_name_systematic
; 
2-cyanopyrimidine
;
_space_group_IT_number           19
_symmetry_cell_setting           orthorhombic
_symmetry_space_group_name_Hall  'P 2ac 2ab'
_symmetry_space_group_name_H-M   'P 21 21 21'
_audit_update_record
;
2014-07-15 deposited with the CCDC.
2015-02-04 downloaded from the CCDC.
;
_cell_angle_alpha                90.00000
_cell_angle_beta                 90.00000
_cell_angle_gamma                90.00000
_cell_formula_units_Z            4
_cell_length_a                   3.97105(6)
_cell_length_b                   8.12770(14)
_cell_length_c                   16.0709(3)
_cell_measurement_temperature    295
_cell_volume                     518.696(15)
_computing_structure_refinement  FULLPROF
_computing_structure_solution    FOX
_diffrn_ambient_temperature      295
_diffrn_radiation_type           synchrotron
_diffrn_radiation_wavelength     0.68884
_diffrn_source                   synchrotron
_exptl_absorpt_correction_type   none
_exptl_crystal_colour            colourless
_exptl_crystal_description       powder
_exptl_crystal_recrystallization_method powder
_pd_char_colour                  colourless
_pd_instr_location               ' ?'
_pd_meas_2theta_range_inc        0.007948
_pd_meas_2theta_range_max        38.99840
_pd_meas_2theta_range_min        4.50180
_pd_meas_number_of_points        4342
_pd_meas_scan_method             fixed
_pd_proc_2theta_range_inc        0.007948
_pd_proc_2theta_range_max        38.9984
_pd_proc_2theta_range_min        4.5018
_pd_proc_ls_pref_orient_corr     ' ?'
_pd_proc_ls_prof_R_factor        2.4096
_pd_proc_ls_prof_wR_expected     0.0932
_pd_proc_ls_prof_wR_factor       2.7353
_pd_proc_number_of_points        4342
_pd_proc_wavelength              0.688840
_pd_spec_mounting                'glass capillary'
_pd_spec_mount_mode              transmission
_pd_spec_shape                   cylinder
_refine_ls_goodness_of_fit_all   29.33
_refine_ls_number_parameters     9
_refine_ls_number_reflns         371
_refine_ls_number_restraints     0
_refine_ls_R_I_factor            11.1463
_refine_ls_shift/su_max          0.01
_cod_data_source_file            c5ce00097a2.cif
_cod_data_source_block           2-cyanopyrimidine
_cod_depositor_comments
;
The following automatic conversions were performed:

'_symmetry_cell_setting' value 'Orthorhombic' changed to
'orthorhombic' according to
/usr/data/users/saulius/crontab/automatic-downloads/rss-feeds/RSC/lib/dictionaries/cif_core.dic
dictionary named 'cif_core.dic' version 2.4.2 from 2011-04-26.

Automatic conversion script
Id: cif_fix_values 3008 2015-01-20 13:52:24Z robertas 

 Adding full bibliography for 7219470--7219473.cif.
;
_cod_original_cell_volume        518.696(16)
_cod_database_code               7219472
#BEGIN Tags that were not found in dictionaries:
_pd_proc_ls_prof_cr_factor       15.5438
_pd_proc_ls_prof_cwr_factor      18.0158
_pd_proc_ls_prof_cwr_expected    0.6142
_pd_proc_ls_prof_chi2            860.4793
_pd_proc_ls_prof_echi2           863.7944
#END Tags that were not found in dictionaries
loop_
_symmetry_equiv_pos_as_xyz
x,y,z
x+1/2,-y+1/2,-z
-x,y+1/2,-z+1/2
-x+1/2,-y,z+1/2
loop_
_atom_site_label
_atom_site_fract_x
_atom_site_fract_y
_atom_site_fract_z
_atom_site_U_iso_or_equiv
_atom_site_occupancy
_atom_site_adp_type
_atom_site_type_symbol
N2 0.2037(4) 0.2147(2) 0.80945(13) 0.01267 1.00000 Uiso N
N1 0.4796(4) 0.1362(2) 0.93434(13) 0.01267 1.00000 Uiso N
N3 0.4975(4) 0.5533(2) 0.91167(13) 0.01267 1.00000 Uiso N
C4 0.3701(4) 0.2455(2) 0.87935(13) 0.01267 1.00000 Uiso C
C2 0.2502(4) -0.0674(2) 0.84516(13) 0.01267 1.00000 Uiso C
H2 0.2137(4) -0.1811(2) 0.83179(13) 0.01267 1.00000 Uiso H
C3 0.1438(4) 0.0547(2) 0.79257(13) 0.01267 1.00000 Uiso C
H3 0.0216(4) 0.0262(2) 0.74315(13) 0.01267 1.00000 Uiso H
C5 0.4418(4) 0.4191(2) 0.89758(13) 0.01267 1.00000 Uiso C
C1 0.4172(4) -0.0232(2) 0.91634(13) 0.01267 1.00000 Uiso C
H1 0.4886(4) -0.1067(2) 0.95457(13) 0.01267 1.00000 Uiso H
loop_
_atom_type_symbol
_atom_type_scat_Cromer_Mann_a1
_atom_type_scat_Cromer_Mann_b1
_atom_type_scat_Cromer_Mann_a2
_atom_type_scat_Cromer_Mann_b2
_atom_type_scat_Cromer_Mann_a3
_atom_type_scat_Cromer_Mann_b3
_atom_type_scat_Cromer_Mann_a4
_atom_type_scat_Cromer_Mann_b4
_atom_type_scat_Cromer_Mann_c
_atom_type_scat_dispersion_real
_atom_type_scat_dispersion_imag
_atom_type_scat_source
n 12.21260 0.00570 3.13220 9.89330 2.01250 28.99750 1.16630 0.58260 -11.52900
0.00400 0.00300
International_Tables_for_Crystallography_Vol.C(1991)_Tables_6.1.1.4_and_6.1.1.5
c 2.31000 20.84390 1.02000 10.20750 1.58860 0.56870 0.86500 51.65120 0.21560
0.00200 0.00200
International_Tables_for_Crystallography_Vol.C(1991)_Tables_6.1.1.4_and_6.1.1.5
h 0.49300 10.51090 0.32291 26.12570 0.14019 3.14236 0.04081 57.79970 0.00304
0.00000 0.00000
International_Tables_for_Crystallography_Vol.C(1991)_Tables_6.1.1.4_and_6.1.1.5
loop_
_geom_angle_atom_site_label_1
_geom_angle_atom_site_label_2
_geom_angle_atom_site_label_3
_geom_angle
_geom_angle_site_symmetry_1
_geom_angle_site_symmetry_3
C4 N2 C3 116.1(2) 1_555 1_555
C4 N1 C1 116.1(2) 1_555 1_555
N2 C4 N1 126.9(3) 1_555 1_555
N2 C4 C5 116.5(2) 1_555 1_555
N1 C4 C5 116.5(2) 1_555 1_555
H2 C2 C3 120.8(3) 1_555 1_555
H2 C2 C1 120.8(3) 1_555 1_555
C3 C2 C1 118.3(3) 1_555 1_555
N2 C3 C2 121.3(2) 1_555 1_555
N2 C3 H3 119.2(3) 1_555 1_555
C2 C3 H3 119.5(3) 1_555 1_555
N3 C5 C4 179.9(3) 1_555 1_555
N1 C1 C2 121.3(2) 1_555 1_555
N1 C1 H1 119.2(3) 1_555 1_555
C2 C1 H1 119.5(3) 1_555 1_555
loop_
_geom_bond_atom_site_label_1
_geom_bond_atom_site_label_2
_geom_bond_distance
_geom_bond_site_symmetry_2
N2 C4 1.327(3) 1_555
N2 C3 1.350(2) 1_555
N1 C4 1.326(3) 1_555
N1 C1 1.350(2) 1_555
N3 C5 1.136(2) 1_555
C4 C5 1.469(2) 1_555
C2 H2 0.960(2) 1_555
C2 C3 1.370(3) 1_555
C2 C1 1.370(3) 1_555
C3 H3 0.959(3) 1_555
C1 H1 0.958(3) 1_555
loop_
_pd_proc_point_id
_pd_proc_2theta_corrected
_pd_proc_intensity_total
_pd_calc_intensity_total
_pd_proc_intensity_bkg_calc
1 4.5018 526(3) 527.6353 527.6350
2 4.5097 528(3) 528.0791 528.0789
3 4.5177 528(3) 528.5286 528.5283
4 4.5256 529(3) 528.9724 528.9721
5 4.5336 530(3) 529.4219 529.4216
6 4.5415 529(3) 529.8657 529.8654
7 4.5495 530(3) 530.3152 530.3149
8 4.5574 531(3) 530.7590 530.7587
9 4.5654 532(3) 531.2086 531.2082
10 4.5733 533(3) 531.6523 531.6520
11 4.5813 533(3) 532.1018 532.1014
12 4.5892 534(3) 532.5457 532.5453
13 4.5972 534(3) 532.9952 532.9948
14 4.6051 534(3) 533.4390 533.4386
15 4.6130 535(3) 533.8828 533.8824
16 4.6210 535(3) 534.3323 534.3318
17 4.6290 537(3) 534.7818 534.7813
18 4.6369 537(3) 535.4437 535.2252
19 4.6448 537(3) 535.8918 535.6690
20 4.6528 539(3) 536.3458 536.1184
21 4.6607 539(3) 536.7943 536.5623
22 4.6687 539(3) 537.2486 537.0117
23 4.6766 541(3) 537.6973 537.4556
24 4.6846 541(3) 538.1519 537.9050
25 4.6925 541(3) 538.6010 538.3488
26 4.7005 541(3) 539.0560 538.7983
27 4.7084 542(3) 539.5054 539.2421
28 4.7164 543(3) 539.9608 539.6916
29 4.7243 543(3) 540.4106 540.1354
30 4.7323 544(3) 540.8663 540.5848
31 4.7402 544(3) 541.3166 541.0287
32 4.7481 545(3) 541.7671 541.4725
33 4.7561 545(3) 542.2236 541.9220
34 4.7640 546(3) 542.6746 542.3658
35 4.7720 547(3) 543.1315 542.8152
36 4.7799 546(3) 543.5831 543.2591
37 4.7879 547(3) 544.0408 543.7086
38 4.7958 549(3) 544.4930 544.1524
39 4.8038 548(3) 544.9514 544.6019
40 4.8117 549(3) 545.4044 545.0457
41 4.8197 550(3) 545.8638 545.4951
42 4.8276 550(3) 546.3187 545.9390
43 4.8356 551(3) 546.7825 546.3884
44 4.8435 551(3) 547.2500 546.8323
45 4.8514 552(3) 547.7433 547.2761
46 4.8594 552(3) 548.3054 547.7255
47 4.8674 553(3) 548.9927 548.1750
48 4.8753 554(3) 549.8699 548.6188
49 4.8832 554(3) 550.9922 549.0627
50 4.8912 555(3) 552.3345 549.5121
51 4.8991 556(3) 553.6860 549.9559
52 4.9071 557(3) 554.8028 550.4054
53 4.9150 558(3) 555.4150 550.8492
54 4.9230 558(3) 555.4745 551.2987
55 4.9309 559(3) 555.1392 551.7426
56 4.9389 560(3) 554.6817 552.1920
57 4.9468 560(3) 554.3539 552.6358
58 4.9548 560(3) 554.2639 553.0853
59 4.9627 561(3) 554.4070 553.5291
60 4.9707 562(3) 554.7180 553.9785
61 4.9786 562(3) 555.1175 554.4224
62 4.9865 563(3) 555.5598 554.8662
63 4.9945 564(3) 556.0253 555.3157
64 5.0024 564(3) 556.4916 555.7595
65 5.0104 563(3) 556.9670 556.2090
66 5.0183 564(3) 557.4384 556.6528
67 5.0263 564(3) 557.9174 557.1022
68 5.0342 565(3) 558.3924 557.5461
69 5.0422 566(3) 558.8754 557.9955
70 5.0501 567(3) 559.3544 558.4394
71 5.0581 568(3) 559.8417 558.8889
72 5.0660 568(3) 560.3254 559.3326
73 5.0740 569(3) 560.8178 559.7821
74 5.0819 569(3) 561.3069 560.2260
75 5.0899 570(3) 561.8054 560.6754
76 5.0978 571(3) 562.3010 561.1192
77 5.1058 571(3) 562.8066 561.5687
78 5.1137 572(3) 563.3099 562.0125
79 5.1216 573(3) 563.8177 562.4564
80 5.1296 573(3) 564.3368 562.9058
81 5.1375 574(3) 564.8547 563.3496
82 5.1455 574(3) 565.3854 563.7991
83 5.1534 574(3) 565.9160 564.2429
84 5.1614 575(3) 566.4608 564.6924
85 5.1693 576(3) 567.0070 565.1362
86 5.1773 576(3) 567.5693 565.5857
87 5.1852 577(3) 568.1351 566.0295
88 5.1932 578(3) 568.7196 566.4789
89 5.2011 579(3) 569.3101 566.9228
90 5.2091 580(3) 569.9232 567.3723
91 5.2170 582(3) 570.5457 567.8161
92 5.2249 582(3) 571.1874 568.2599
93 5.2329 583(3) 571.8600 568.7094
94 5.2408 583(3) 572.5501 569.1532
95 5.2488 584(3) 573.2794 569.6027
96 5.2567 586(3) 574.0347 570.0465
97 5.2647 586(3) 574.8413 570.4960
98 5.2726 588(3) 575.6868 570.9398
99 5.2806 589(3) 576.6021 571.3892
100 5.2885 590(3) 577.5759 571.8331
101 5.2965 592(3) 578.6480 572.2825
102 5.3044 593(2) 579.8104 572.7264
103 5.3124 596(3) 581.1174 573.1758
104 5.3203 598(3) 582.5690 573.6196
105 5.3283 600(3) 584.2500 574.0691
106 5.3362 604(3) 586.2082 574.5129
107 5.3442 609(3) 588.7522 574.9624
108 5.3521 616(3) 592.7440 575.4062
109 5.3600 628(3) 601.5582 575.8500
110 5.3680 653(3) 626.6055 576.2995
111 5.3759 708(3) 698.3242 576.7433
112 5.3839 849(3) 893.0806 577.1928
113 5.3918 1197(3) 1346.9539 577.6366
114 5.3998 2046(5) 2285.8569 578.0861
115 5.4077 3417(6) 3902.3394 578.5299
116 5.4157 5527(7) 6305.0254 578.9794
117 5.4236 8393(9) 9168.8574 579.4232
118 5.4316 10948(10) 11898.9629 579.8727
119 5.4395 12723(11) 13579.1230 580.3165
120 5.4475 12907(11) 13619.9961 580.7659
121 5.4554 11411(11) 12004.9414 581.2098
122 5.4633 8811(9) 9340.3691 581.6536
123 5.4713 6093(8) 6431.4717 582.1031
124 5.4792 3865(6) 4024.2214 582.5469
125 5.4872 2252(5) 2348.1602 582.9963
126 5.4951 1407(4) 1391.3352 583.4402
127 5.5031 964(3) 913.3956 583.8896
128 5.5110 761(3) 712.7454 584.3335
129 5.5190 684(3) 636.9603 584.7830
130 5.5269 645(2) 611.7354 585.2267
131 5.5349 630(2) 603.2473 585.6762
132 5.5428 624(2) 600.0271 586.1201
133 5.5508 619(2) 598.3434 586.5695
134 5.5587 617(2) 597.2556 587.0134
135 5.5667 614(2) 596.4623 587.4628
136 5.5746 612(2) 595.8902 587.9066
137 5.5826 610(2) 595.4755 588.3561
138 5.5905 610(2) 595.1955 588.7999
139 5.5984 609(2) 595.0197 589.2438
140 5.6064 608(2) 594.9283 589.6932
141 5.6143 608(2) 594.9089 590.1370
142 5.6223 608(2) 594.9487 590.5865
143 5.6302 609(2) 595.0375 591.0303
144 5.6382 608(2) 595.1695 591.4797
145 5.6461 608(2) 595.3354 591.9236
146 5.6541 608(2) 595.5340 592.3730
147 5.6620 607(2) 595.7562 592.8169
148 5.6700 608(2) 596.0041 593.2664
149 5.6779 608(2) 596.2685 593.7102
150 5.6859 608(2) 596.5536 594.1597
151 5.6938 608(2) 596.9368 594.6901
152 5.7017 609(2) 597.5202 595.4078
153 5.7097 609(2) 598.1229 596.1345
154 5.7176 609(2) 598.7284 596.8521
155 5.7256 609(2) 599.3510 597.5789
156 5.7335 610(2) 599.9741 598.2965
157 5.7415 610(2) 600.6126 599.0233
158 5.7494 610(2) 601.2497 599.7409
159 5.7574 610(2) 601.9010 600.4677
160 5.7653 611(2) 602.5494 601.1852
161 5.7733 611(2) 603.2112 601.9120
162 5.7812 612(2) 603.8691 602.6296
163 5.7892 613(2) 604.5394 603.3564
164 5.7971 613(2) 605.2050 604.0740
165 5.8051 613(2) 605.8825 604.8008
166 5.8130 614(2) 606.5546 605.5184
167 5.8210 614(2) 607.2380 606.2452
168 5.8289 614(2) 607.9155 606.9628
169 5.8368 615(2) 608.5955 607.6805
170 5.8448 615(2) 609.2861 608.4072
171 5.8527 615(2) 609.9704 609.1249
172 5.8607 616(2) 610.6650 609.8516
173 5.8686 616(2) 611.3528 610.5692
174 5.8766 618(2) 612.0509 611.2959
175 5.8845 617(2) 612.7419 612.0136
176 5.8925 617(2) 613.4429 612.7403
177 5.9004 618(2) 614.1367 613.4580
178 5.9084 618(2) 614.8402 614.1847
179 5.9163 619(2) 615.5362 614.9023
180 5.9243 619(2) 616.2421 615.6291
181 5.9322 619(2) 616.9401 616.3467
182 5.9401 620(2) 617.6391 617.0644
183 5.9481 620(2) 618.3478 617.7911
184 5.9560 622(2) 619.0484 618.5087
185 5.9640 622(2) 619.7588 619.2355
186 5.9719 623(2) 620.4609 619.9531
187 5.9799 623(2) 621.1726 620.6799
188 5.9878 623(2) 621.8761 621.3975
189 5.9958 623(2) 622.5891 622.1243
190 6.0037 623(2) 623.2937 622.8419
191 6.0117 625(2) 624.0079 623.5687
192 6.0196 626(2) 624.7135 624.2863
193 6.0276 627(2) 625.4286 625.0130
194 6.0355 628(2) 626.1353 625.7307
195 6.0435 627(2) 626.8514 626.4574
196 6.0514 628(2) 627.6167 627.1750
197 6.0594 628(2) 628.3346 627.9018
198 6.0673 629(2) 629.0439 628.6194
199 6.0752 630(2) 629.7537 629.3370
200 6.0832 630(2) 630.4728 630.0638
201 6.0911 630(2) 631.1832 630.7814
202 6.0991 631(2) 631.9030 631.5082
203 6.1070 631(2) 632.6142 632.2258
204 6.1150 631(2) 633.3345 632.9525
205 6.1229 631(2) 634.0463 633.6702
206 6.1309 632(2) 634.7673 634.3969
207 6.1388 633(2) 635.4797 635.1146
208 6.1468 634(2) 636.2013 635.8413
209 6.1547 635(2) 636.9141 636.5590
210 6.1627 636(2) 637.6363 637.2857
211 6.1706 636(2) 638.3496 638.0033
212 6.1785 637(2) 639.0633 638.7210
213 6.1865 637(2) 639.7861 639.4477
214 6.1944 638(2) 640.5002 640.1653
215 6.2024 639(2) 641.2235 640.8921
216 6.2103 640(2) 641.9380 641.6097
217 6.2183 641(2) 642.6619 642.3365
218 6.2262 641(2) 643.3768 643.0541
219 6.2342 642(2) 644.1010 643.7808
220 6.2421 641(2) 644.8164 644.4985
221 6.2501 642(2) 645.5411 645.2252
222 6.2580 643(2) 646.0430 645.9429
223 6.2660 644(2) 646.7722 646.6696
224 6.2739 645(2) 647.4924 647.3873
225 6.2819 646(2) 648.2218 648.1140
226 6.2898 647(2) 648.9423 648.8317
227 6.2977 648(2) 649.6627 649.5493
228 6.3057 648(2) 650.3925 650.2760
229 6.3136 649(2) 651.1132 650.9937
230 6.3216 649(2) 651.8433 651.7204
231 6.3295 650(2) 652.5643 652.4380
232 6.3375 651(2) 653.2946 653.1648
233 6.3454 652(2) 654.0157 653.8824
234 6.3534 653(2) 654.7464 654.6092
235 6.3613 653(2) 655.4680 655.3268
236 6.3693 653(2) 656.1989 656.0535
237 6.3772 654(2) 656.9209 656.7712
238 6.3852 655(2) 657.6522 657.4979
239 6.3931 656(2) 658.3745 658.2155
240 6.4011 656(2) 659.1063 658.9423
241 6.4090 656(2) 659.8291 659.6599
242 6.4170 657(2) 660.5614 660.3867
243 6.4249 657(2) 661.2847 661.1043
244 6.4328 659(2) 662.0084 661.8220
245 6.4408 660(2) 662.7415 662.5487
246 6.4487 660(2) 663.4658 663.2664
247 6.4567 662(2) 664.1995 663.9930
248 6.4646 662(2) 664.9246 664.7108
249 6.4726 663(2) 665.6591 665.4374
250 6.4805 664(2) 666.3850 666.1552
251 6.4885 664(2) 667.1204 666.8818
252 6.4964 666(2) 667.8472 667.5995
253 6.5044 667(2) 668.5837 668.3262
254 6.5123 668(2) 669.3116 669.0439
255 6.5203 668(2) 670.0494 669.7706
256 6.5282 668(2) 670.7786 670.4883
257 6.5361 668(2) 671.5085 671.2059
258 6.5441 669(2) 672.2485 671.9326
259 6.5520 670(2) 672.9802 672.6503
260 6.5600 671(2) 673.7220 673.3770
261 6.5679 672(2) 674.4557 674.0947
262 6.5759 673(2) 675.1998 674.8214
263 6.5838 674(2) 675.9357 675.5390
264 6.5918 675(2) 676.6824 676.2657
265 6.5997 676(2) 677.4213 676.9834
266 6.6077 678(2) 678.1713 677.7101
267 6.6156 679(2) 678.9137 678.4278
268 6.6236 680(2) 679.6677 679.1545
269 6.6315 680(2) 680.4144 679.8721
270 6.6395 680(2) 681.1732 680.5989
271 6.6474 680(2) 681.9255 681.3165
272 6.6554 682(2) 682.6905 682.0433
273 6.6633 682(2) 683.4496 682.7609
274 6.6712 684(2) 684.2126 683.4785
275 6.6792 685(2) 684.9904 684.2053
276 6.6871 685(2) 685.7635 684.9230
277 6.6951 687(2) 686.5527 685.6497
278 6.7030 687(2) 687.3391 686.3673
279 6.7110 689(2) 688.1436 687.0941
280 6.7189 690(2) 688.9476 687.8117
281 6.7269 690(2) 689.7731 688.5385
282 6.7348 690(2) 690.6013 689.2561
283 6.7428 691(2) 691.4557 689.9828
284 6.7507 692(2) 692.3179 690.7004
285 6.7587 694(2) 693.2136 691.4272
286 6.7666 695(2) 694.1252 692.1448
287 6.7745 696(2) 695.0698 692.8625
288 6.7825 698(2) 696.0683 693.5892
289 6.7905 700(2) 697.1216 694.3160
290 6.7984 702(2) 698.2405 695.0336
291 6.8063 705(2) 699.5088 695.7513
292 6.8143 708(2) 701.1929 696.4780
293 6.8222 711(2) 704.0742 697.1956
294 6.8302 719(2) 710.7814 697.9224
295 6.8381 744(2) 727.8280 698.6400
296 6.8461 798(2) 771.1080 699.3667
297 6.8540 911(2) 868.4845 700.0844
298 6.8620 1126(3) 1067.6331 700.8111
299 6.8699 1524(3) 1414.3210 701.5288
300 6.8779 2068(4) 1948.5145 702.2555
301 6.8858 2707(4) 2630.4460 703.3344
302 6.8938 3322(5) 3365.4243 704.6509
303 6.9017 3783(5) 3956.8027 705.9510
304 6.9096 4013(5) 4234.9795 707.2511
305 6.9176 3945(5) 4102.0532 708.5677
306 6.9255 3533(5) 3607.4873 709.8677
307 6.9335 2950(4) 2900.9614 711.1843
308 6.9414 2251(4) 2188.7527 712.4844
309 6.9494 1679(3) 1593.9097 713.8010
310 6.9573 1251(3) 1186.2585 715.1011
311 6.9653 978(2) 940.6884 716.4176
312 6.9732 840(2) 815.8220 717.7177
313 6.9812 771(2) 759.0989 719.0342
314 6.9891 743(2) 737.2947 720.3343
315 6.9971 733(2) 729.9829 721.6508
316 7.0050 729(2) 728.2242 722.9510
317 7.0129 728(2) 728.2878 724.2510
318 7.0209 728(2) 728.9478 725.5676
319 7.0289 727(2) 729.8175 726.8842
320 7.0368 729(2) 730.7715 728.1842
321 7.0447 729(2) 731.7857 729.4843
322 7.0527 729(2) 732.8583 730.8008
323 7.0606 731(2) 733.9534 732.1009
324 7.0686 730(2) 735.0919 733.4175
325 7.0765 731(2) 736.2399 734.7176
326 7.0845 732(2) 737.4225 736.0341
327 7.0924 733(2) 738.6069 737.3342
328 7.1004 734(2) 739.8202 738.6508
329 7.1083 735(2) 741.0302 739.9509
330 7.1163 736(2) 742.2656 741.2674
331 7.1242 737(2) 743.4942 742.5674
332 7.1322 738(2) 744.7458 743.8840
333 7.1401 740(2) 745.9884 745.1841
334 7.1480 740(2) 747.2364 746.4842
335 7.1560 742(2) 748.5052 747.8008
336 7.1639 741(2) 749.7625 749.1008
337 7.1719 742(2) 751.0394 750.4174
338 7.1798 744(2) 752.3038 751.7175
339 7.1878 745(2) 753.5873 753.0340
340 7.1957 747(2) 754.8574 754.3342
341 7.2037 748(2) 756.1460 755.6507
342 7.2116 749(2) 757.4205 756.9507
343 7.2196 748(2) 758.7133 758.2673
344 7.2275 749(2) 759.9915 759.5674
345 7.2355 750(2) 761.2875 760.8839
346 7.2434 750(2) 762.5688 762.1840
347 7.2513 752(2) 763.8513 763.4841
348 7.2593 753(2) 765.1513 764.8007
349 7.2673 754(2) 766.4523 766.1172
350 7.2752 756(2) 767.7381 767.4172
351 7.2831 757(2) 769.0248 768.7174
352 7.2911 758(2) 770.3286 770.0339
353 7.2990 758(2) 771.6168 771.3340
354 7.3070 758(2) 772.9222 772.6506
355 7.3149 760(2) 774.2117 773.9506
356 7.3229 762(2) 775.5182 775.2672
357 7.3308 763(2) 776.8091 776.5673
358 7.3388 764(2) 778.1166 777.8838
359 7.3467 764(2) 779.4085 779.1840
360 7.3547 765(2) 780.7170 780.5005
361 7.3626 765(2) 782.0096 781.8005
362 7.3706 768(2) 783.3190 783.1171
363 7.3785 770(2) 784.6123 784.4172
364 7.3865 770(2) 785.9224 785.7337
365 7.3944 772(2) 787.2164 787.0338
366 7.4023 773(2) 788.5106 788.3339
367 7.4103 774(2) 789.8215 789.6504
368 7.4182 777(2) 791.1164 790.9506
369 7.4262 778(2) 792.4279 792.2671
370 7.4341 780(2) 793.7231 793.5672
371 7.4421 780(2) 795.0350 794.8837
372 7.4500 781(2) 796.3307 796.1838
373 7.4580 782(2) 797.6430 797.5004
374 7.4659 783(2) 798.9390 798.8004
375 7.4739 784(2) 800.2516 800.1169
376 7.4818 784(2) 801.5482 801.4171
377 7.4898 786(2) 802.8611 802.7336
378 7.4977 787(2) 804.1578 804.0338
379 7.5056 789(2) 805.4546 805.3338
380 7.5136 791(2) 806.7679 806.6503
381 7.5215 792(2) 808.0650 807.9504
382 7.5295 793(2) 809.3786 809.2670
383 7.5374 795(2) 810.6758 810.5670
384 7.5454 796(2) 811.9898 811.8837
385 7.5533 798(2) 813.2872 813.1837
386 7.5613 800(2) 814.6013 814.5002
387 7.5692 801(2) 815.8989 815.8004
388 7.5772 803(2) 817.2131 817.1169
389 7.5851 804(2) 818.5110 818.4170
390 7.5931 805(2) 819.8253 819.7335
391 7.6010 806(2) 821.1233 821.0336
392 7.6090 807(2) 822.4379 822.3502
393 7.6169 809(2) 823.7360 823.6503
394 7.6249 811(2) 825.0506 824.9668
395 7.6328 812(2) 826.3489 826.2669
396 7.6407 813(2) 827.6472 827.5670
397 7.6487 814(2) 828.9620 828.8835
398 7.6566 816(2) 830.2604 830.1836
399 7.6646 818(2) 831.5754 831.5001
400 7.6725 819(2) 832.8740 832.8003
401 7.6805 820(2) 834.1890 834.1168
402 7.6884 822(2) 835.4875 835.4169
403 7.6964 823(2) 836.8027 836.7335
404 7.7043 825(2) 838.1014 838.0335
405 7.7123 828(2) 839.4166 839.3500
406 7.7202 829(2) 840.7154 840.6501
407 7.7282 830(2) 842.0306 841.9667
408 7.7361 831(2) 843.3297 843.2668
409 7.7441 832(2) 844.6450 844.5834
410 7.7520 834(2) 845.9438 845.8834
411 7.7599 836(2) 847.2429 847.1835
412 7.7679 837(2) 848.5583 848.5001
413 7.7758 839(2) 849.8002 849.8002
414 7.7838 840(2) 851.1167 851.1167
415 7.7917 842(2) 852.4167 852.4167
416 7.7997 844(2) 853.7333 853.7333
417 7.8076 845(2) 855.0334 855.0334
418 7.8156 848(2) 856.3500 856.3500
419 7.8235 849(2) 857.6501 857.6501
420 7.8315 850(2) 858.9666 858.9666
421 7.8394 852(2) 860.2667 860.2667
422 7.8474 853(2) 861.5833 861.5833
423 7.8553 855(2) 862.8833 862.8833
424 7.8632 856(2) 864.1835 864.1835
425 7.8712 858(2) 865.5000 865.5000
426 7.8791 859(2) 866.8000 866.8000
427 7.8871 861(2) 868.1166 868.1166
428 7.8950 863(2) 869.4167 869.4167
429 7.9030 865(2) 870.7332 870.7332
430 7.9109 866(2) 872.0333 872.0333
431 7.9189 867(2) 873.3765 873.3499
432 7.9268 868(2) 874.6770 874.6499
433 7.9348 870(2) 875.9941 875.9666
434 7.9427 871(2) 877.2947 877.2666
435 7.9507 874(2) 878.6118 878.5831
436 7.9586 875(2) 879.9124 879.8832
437 7.9666 876(2) 881.2294 881.1998
438 7.9745 879(2) 882.5301 882.4999
439 7.9825 882(2) 883.8472 883.8164
440 7.9904 884(2) 885.1478 885.1165
441 7.9983 886(2) 886.4485 886.4166
442 8.0063 887(2) 887.7657 887.7332
443 8.0142 887(2) 889.0665 889.0333
444 8.0222 889(2) 890.3836 890.3497
445 8.0301 892(2) 891.6844 891.6498
446 8.0381 894(2) 893.0016 892.9664
447 8.0460 896(2) 894.3024 894.2664
448 8.0540 898(2) 895.6197 895.5830
449 8.0619 900(2) 896.9206 896.8832
450 8.0699 901(2) 898.2378 898.1996
451 8.0778 903(2) 899.8685 899.8295
452 8.0858 905(2) 901.5424 901.5026
453 8.0937 906(2) 903.1954 903.1547
454 8.1017 907(2) 904.8693 904.8276
455 8.1096 909(2) 906.5223 906.4798
456 8.1175 910.3(20) 908.1754 908.1320
457 8.1255 913(2) 909.8493 909.8049
458 8.1334 914.0(20) 911.5025 911.4570
459 8.1414 915.8(20) 913.1766 913.1301
460 8.1493 917.5(20) 914.8297 914.7821
461 8.1573 919.5(20) 916.5039 916.4552
462 8.1652 921.5(20) 918.1572 918.1074
463 8.1732 924(2) 919.8314 919.7803
464 8.1811 926(2) 921.4848 921.4324
465 8.1891 928(2) 923.1592 923.1055
466 8.1970 930(2) 924.8125 924.7575
467 8.2050 932(2) 926.4870 926.4306
468 8.2129 934(2) 928.1406 928.0828
469 8.2208 935(2) 929.7943 929.7349
470 8.2288 937(2) 931.4688 931.4078
471 8.2367 939(2) 933.1226 933.0600
472 8.2447 940.3(20) 934.7974 934.7331
473 8.2526 942.1(20) 936.4511 936.3851
474 8.2606 944.0(20) 938.1260 938.0582
475 8.2685 946.2(20) 939.7801 939.7103
476 8.2765 948.0(20) 941.4550 941.3832
477 8.2844 949.7(20) 943.1093 943.0354
478 8.2924 951.8(20) 944.7845 944.7085
479 8.3003 952.8(20) 946.4388 946.3605
480 8.3083 955.4(20) 948.1143 948.0336
481 8.3162 957.6(20) 949.7690 949.6857
482 8.3242 958.7(20) 951.4445 951.3586
483 8.3321 961.2(20) 953.0994 953.0108
484 8.3400 963.4(20) 954.7544 954.6630
485 8.3480 966(2) 956.4304 956.3359
486 8.3559 969(2) 958.0856 957.9880
487 8.3639 970(2) 959.7621 959.6611
488 8.3718 973(2) 961.4177 961.3133
489 8.3798 974(2) 963.0944 962.9862
490 8.3877 976(2) 964.7504 964.6384
491 8.3957 977(2) 966.4276 966.3115
492 8.4036 978.9(20) 968.0839 967.9634
493 8.4116 980.2(20) 969.7615 969.6365
494 8.4195 981.9(20) 971.4185 971.2887
495 8.4275 985(2) 973.0966 972.9616
496 8.4354 987(2) 974.7542 974.6138
497 8.4434 989(2) 976.4330 976.2869
498 8.4513 991(2) 978.0911 977.9388
499 8.4593 992.3(20) 979.7708 979.6119
500 8.4672 993.7(20) 981.4298 981.2641
501 8.4751 995.6(20) 983.0892 982.9161
502 8.4831 997.7(20) 984.7702 984.5892
503 8.4910 999.7(20) 986.4308 986.2413
504 8.4990 1002.0(20) 988.1128 987.9142
505 8.5069 1003.9(20) 989.7747 989.5664
506 8.5149 1005.6(20) 991.4583 991.2395
507 8.5228 1007.0(20) 993.1216 992.8917
508 8.5308 1008.9(20) 994.8068 994.5646
509 8.5387 1011.1(20) 996.4720 996.2167
510 8.5467 1012.5(20) 998.1593 997.8896
511 8.5546 1014.7(20) 999.8268 999.5418
512 8.5626 1017.0(20) 1001.5168 1001.2149
513 8.5705 1018.2(20) 1003.1873 1002.8671
514 8.5785 1020.2(20) 1004.8804 1004.5400
515 8.5864 1022.5(20) 1006.5544 1006.1921
516 8.5943 1024.1(20) 1008.2307 1007.8443
517 8.6023 1026.5(20) 1009.9305 1009.5172
518 8.6102 1029.0(20) 1011.6121 1011.1694
519 8.6182 1031.6(20) 1013.3182 1012.8425
520 8.6261 1033.7(20) 1015.0065 1014.4944
521 8.6341 1035.9(20) 1016.7209 1016.1675
522 8.6420 1037.0(20) 1018.4188 1017.8197
523 8.6500 1037.7(20) 1020.1441 1019.4926
524 8.6579 1040.2(20) 1021.8549 1021.1448
525 8.6659 1041.9(20) 1023.5958 1022.8179
526 8.6738 1043.6(20) 1025.3247 1024.4700
527 8.6818 1045.6(20) 1027.0875 1026.1429
528 8.6897 1047.0(20) 1028.8429 1027.7952
529 8.6976 1048.6(20) 1030.6160 1029.4473
530 8.7056 1051.8(20) 1032.4349 1031.1201
531 8.7135 1054.3(20) 1034.2659 1032.7723
532 8.7215 1057.1(20) 1036.1860 1034.4454
533 8.7294 1060.0(20) 1038.2461 1036.0974
534 8.7374 1063(2) 1040.8142 1037.7705
535 8.7453 1068(2) 1044.7174 1039.4226
536 8.7533 1077(2) 1052.3650 1041.0956
537 8.7612 1095(2) 1068.6199 1042.7478
538 8.7692 1133(2) 1103.6941 1044.4209
539 8.7771 1208(2) 1172.0612 1046.0728
540 8.7851 1335(2) 1295.2390 1047.7458
541 8.7930 1531(2) 1486.8265 1049.3981
542 8.8010 1790(3) 1753.9250 1051.0710
543 8.8089 2094(3) 2065.5437 1052.7231
544 8.8168 2392(3) 2370.6118 1054.3752
545 8.8248 2626(3) 2599.5488 1056.0482
546 8.8328 2708(3) 2683.0679 1057.7213
547 8.8407 2631(3) 2597.6509 1059.3735
548 8.8486 2408(3) 2371.8735 1061.0256
549 8.8566 2098(3) 2065.3523 1062.6985
550 8.8645 1773(3) 1757.8644 1064.3507
551 8.8725 1509(2) 1496.1956 1066.0238
552 8.8804 1317(2) 1310.3119 1067.6758
553 8.8884 1208(2) 1192.5195 1069.3489
554 8.8963 1153(2) 1128.8571 1071.0011
555 8.9043 1125(2) 1097.9360 1072.6740
556 8.9122 1113(2) 1085.3835 1074.3262
557 8.9202 1107.5(20) 1081.2596 1075.9993
558 8.9281 1105.4(20) 1080.7306 1077.6511
559 8.9361 1104.9(20) 1081.5347 1079.3242
560 8.9440 1106.2(20) 1082.7886 1080.9764
561 8.9520 1107.5(20) 1084.2191 1082.6494
562 8.9599 1108.7(20) 1085.6954 1084.3015
563 8.9678 1110.7(20) 1087.2056 1085.9536
564 8.9758 1111.5(20) 1088.7583 1087.6266
565 8.9837 1113.8(20) 1090.3096 1089.2788
566 8.9917 1115.7(20) 1091.8950 1090.9519
567 8.9996 1116.0(20) 1093.4725 1092.6040
568 9.0076 1116.4(20) 1095.0798 1094.2769
569 9.0155 1116.9(20) 1096.6755 1095.9291
570 9.0235 1117.8(20) 1098.2986 1097.6022
571 9.0314 1119.7(20) 1099.9070 1099.2542
572 9.0394 1121.8(20) 1101.5411 1100.9272
573 9.0473 1123.4(20) 1103.1593 1102.5795
574 9.0553 1124.8(20) 1104.8016 1104.2523
575 9.0632 1125.7(20) 1106.4269 1105.9045
576 9.0711 1127.2(20) 1108.0549 1107.5566
577 9.0791 1128.3(20) 1109.7061 1109.2295
578 9.0870 1129.8(20) 1111.3453 1110.8817
579 9.0950 1131.6(20) 1113.0011 1112.5548
580 9.1029 1132.5(20) 1114.6378 1114.2068
581 9.1109 1133.8(20) 1116.2971 1115.8799
582 9.1188 1135.4(20) 1117.9371 1117.5321
583 9.1268 1136.9(20) 1119.5989 1119.2050
584 9.1347 1138.2(20) 1121.2415 1120.8572
585 9.1427 1139.4(20) 1122.9059 1122.5303
586 9.1506 1140.1(20) 1124.5504 1124.1824
587 9.1586 1141.4(20) 1126.2167 1125.8553
588 9.1665 1143.0(20) 1127.8630 1127.5074
589 9.1744 1144.4(20) 1129.5103 1129.1597
590 9.1824 1144.8(20) 1131.1790 1130.8325
591 9.1903 1145.5(20) 1132.8276 1132.4847
592 9.1983 1146.5(20) 1134.4979 1134.1578
593 9.2062 1147.0(20) 1136.1478 1135.8098
594 9.2142 1149.1(20) 1137.8193 1137.4829
595 9.2221 1150.0(20) 1139.4706 1139.1350
596 9.2301 1150.9(20) 1141.1432 1140.8080
597 9.2380 1152.9(20) 1142.7955 1142.4601
598 9.2460 1154.4(20) 1144.4695 1144.1332
599 9.2539 1155.5(20) 1146.1228 1145.7852
600 9.2619 1156.9(20) 1147.3022 1146.9626
601 9.2698 1157.9(20) 1146.9989 1146.6569
602 9.2778 1158.6(20) 1146.6923 1146.3473
603 9.2857 1159.6(20) 1146.3901 1146.0415
604 9.2936 1160.0(20) 1146.0884 1145.7357
605 9.3016 1160.1(20) 1145.7985 1145.4261
606 9.3096 1161.2(20) 1145.4944 1145.1166
607 9.3175 1162.2(20) 1145.1948 1144.8108
608 9.3254 1162.6(20) 1144.8958 1144.5050
609 9.3334 1163.4(20) 1144.5938 1144.1954
610 9.3413 1163.7(20) 1144.2960 1143.8896
611 9.3493 1164.9(20) 1143.9955 1143.5801
612 9.3572 1166.4(19) 1143.6993 1143.2743
613 9.3652 1167.7(19) 1143.4003 1142.9647
614 9.3731 1168.7(19) 1143.1058 1142.6589
615 9.3811 1168.8(19) 1142.8086 1142.3494
616 9.3890 1169.4(19) 1142.5160 1142.0436
617 9.3970 1169.8(19) 1142.2209 1141.7340
618 9.4049 1170.9(19) 1141.9305 1141.4282
619 9.4129 1172.5(19) 1141.6378 1141.1187
620 9.4208 1172.8(19) 1141.3500 1140.8129
621 9.4288 1174.4(19) 1141.0601 1140.5033
622 9.4367 1174.9(19) 1140.7753 1140.1975
623 9.4446 1175.4(19) 1140.4922 1139.8917
624 9.4526 1177.0(19) 1140.2076 1139.5822
625 9.4605 1176.9(19) 1139.9285 1139.2764
626 9.4685 1178.1(19) 1139.6483 1138.9668
627 9.4764 1178.5(19) 1139.3743 1138.6610
628 9.4844 1179.0(19) 1139.0996 1138.3514
629 9.4923 1179.5(19) 1138.8315 1138.0457
630 9.5003 1180.0(19) 1138.5638 1137.7361
631 9.5082 1181.1(19) 1138.3035 1137.4303
632 9.5162 1181.9(19) 1138.0446 1137.1207
633 9.5241 1183.1(19) 1137.7942 1136.8149
634 9.5321 1183.8(19) 1137.5468 1136.5054
635 9.5400 1184.3(19) 1137.3093 1136.1996
636 9.5479 1184.7(19) 1137.0800 1135.8938
637 9.5559 1185.0(19) 1136.8573 1135.5842
638 9.5638 1184.9(19) 1136.6484 1135.2784
639 9.5718 1184.9(19) 1136.4503 1134.9689
640 9.5797 1185.3(19) 1136.2703 1134.6631
641 9.5877 1185.9(19) 1136.1075 1134.3535
642 9.5956 1186.4(19) 1135.9716 1134.0477
643 9.6036 1187.3(19) 1135.8711 1133.7382
644 9.6115 1187.3(19) 1135.8422 1133.4324
645 9.6195 1187.5(19) 1135.9895 1133.1228
646 9.6274 1188.2(19) 1136.6216 1132.8170
647 9.6354 1189.8(19) 1138.6251 1132.5074
648 9.6433 1193.5(19) 1144.0419 1132.2017
649 9.6512 1200.9(19) 1157.3127 1131.8959
650 9.6592 1220.3(19) 1187.0933 1131.5863
651 9.6671 1263.4(20) 1245.3898 1131.2805
652 9.6751 1353(2) 1349.6808 1130.9709
653 9.6830 1511(2) 1510.6177 1130.6652
654 9.6910 1750(2) 1733.9641 1130.3556
655 9.6989 2104(3) 1994.7576 1130.0498
656 9.7069 2480(3) 2255.6484 1129.7402
657 9.7148 2810(3) 2452.1082 1129.4344
658 9.7228 2978(3) 2535.5466 1129.1249
659 9.7307 2891(3) 2479.9238 1128.8191
660 9.7387 2581(3) 2301.2283 1128.5095
661 9.7466 2188(3) 2054.3013 1128.2037
662 9.7546 1802(2) 1796.5488 1127.8942
663 9.7625 1547(2) 1589.6660 1127.5884
664 9.7704 1440(2) 1468.9569 1127.2826
665 9.7784 1482(2) 1460.0562 1126.9730
666 9.7864 1578(2) 1583.0251 1126.6633
667 9.7943 1775(2) 1843.6001 1126.3577
668 9.8022 2015(2) 2233.9497 1126.0519
669 9.8102 2267(3) 2718.7188 1125.7423
670 9.8181 2661(3) 3203.1914 1125.4365
671 9.8261 3023(3) 3587.9697 1125.1268
672 9.8340 3259(3) 3761.6304 1124.8212
673 9.8420 3363(3) 3676.6982 1124.5116
674 9.8499 3207(3) 3359.7261 1124.2058
675 9.8579 2859(3) 2891.4932 1123.8962
676 9.8658 2469(3) 2393.5562 1123.5905
677 9.8738 2055(2) 1946.2061 1123.2808
678 9.8817 1711(2) 1609.9700 1122.9751
679 9.8897 1484(2) 1383.2699 1122.6654
680 9.8976 1341.4(20) 1251.4839 1122.3597
681 9.9056 1266.5(19) 1181.3656 1122.0500
682 9.9135 1224.7(19) 1148.6289 1121.7444
683 9.9214 1204.2(19) 1134.4099 1121.4386
684 9.9294 1194.0(19) 1128.5912 1121.1289
685 9.9373 1187.6(18) 1126.4581 1120.8232
686 9.9453 1184.8(18) 1126.1356 1120.5135
687 9.9532 1183.3(18) 1127.6475 1120.2079
688 9.9612 1182.7(18) 1132.4048 1119.8983
689 9.9691 1186.2(18) 1142.9701 1119.5925
690 9.9771 1199.0(18) 1163.5442 1119.2828
691 9.9850 1225.3(19) 1197.7854 1118.9772
692 9.9930 1277.4(19) 1249.1467 1118.6675
693 10.0009 1360.9(20) 1314.5953 1118.3618
694 10.0089 1473(2) 1387.6677 1118.0521
695 10.0168 1590(2) 1452.7480 1117.7465
696 10.0247 1677(2) 1495.0836 1117.4407
697 10.0327 1701(2) 1502.8258 1117.1311
698 10.0406 1647(2) 1473.4290 1116.8253
699 10.0486 1541(2) 1414.5922 1116.5156
700 10.0565 1415.5(20) 1342.7028 1116.2100
701 10.0645 1305.7(19) 1271.4586 1115.9003
702 10.0724 1233.5(19) 1213.2705 1115.5946
703 10.0804 1195.3(18) 1170.9514 1115.2849
704 10.0883 1176.8(18) 1144.4844 1114.9792
705 10.0963 1168.4(18) 1129.3306 1114.6696
706 10.1042 1164.2(18) 1121.6908 1114.3638
707 10.1122 1162.6(18) 1118.0687 1114.0542
708 10.1201 1163.2(18) 1116.4291 1113.7485
709 10.1281 1164.5(18) 1115.6381 1113.4388
710 10.1360 1166.5(18) 1115.2944 1113.1332
711 10.1440 1169.7(18) 1115.0767 1112.8235
712 10.1519 1174.4(18) 1115.1366 1112.5177
713 10.1598 1181.9(18) 1115.8536 1112.2120
714 10.1678 1195.5(18) 1118.2834 1111.9023
715 10.1757 1217.4(18) 1124.6273 1111.5967
716 10.1837 1252.8(18) 1139.4578 1111.2870
717 10.1916 1304.8(19) 1169.4915 1110.9813
718 10.1996 1386.1(19) 1225.1067 1110.6716
719 10.2075 1497(2) 1314.2755 1110.3658
720 10.2155 1633(2) 1443.6067 1110.0563
721 10.2234 1796(2) 1603.0663 1109.7505
722 10.2314 1953(2) 1774.6741 1109.4409
723 10.2393 2087(2) 1920.3146 1109.1353
724 10.2473 2152(2) 2006.9866 1108.8256
725 10.2552 2131(2) 2008.5598 1108.5198
726 10.2631 2032(2) 1926.0360 1108.2141
727 10.2711 1874(2) 1780.1102 1107.9044
728 10.2790 1712(2) 1610.2617 1107.5988
729 10.2870 1555(2) 1447.0358 1107.2891
730 10.2949 1428.2(19) 1316.8259 1106.9834
731 10.3029 1332.9(19) 1223.9858 1106.6737
732 10.3108 1264.1(18) 1166.9540 1106.3680
733 10.3188 1217.3(18) 1134.8680 1106.0583
734 10.3267 1185.4(18) 1119.0055 1105.7526
735 10.3347 1163.7(18) 1111.6189 1105.4430
736 10.3426 1148.9(17) 1108.4261 1105.1372
737 10.3506 1138.9(17) 1106.9612 1104.8276
738 10.3585 1131.7(17) 1106.1898 1104.5220
739 10.3665 1127.9(17) 1105.6542 1104.2123
740 10.3744 1125.2(17) 1105.2351 1103.9065
741 10.3823 1122.2(17) 1104.8301 1103.6008
742 10.3903 1120.4(17) 1104.4392 1103.2911
743 10.3982 1118.3(17) 1104.0667 1102.9855
744 10.4062 1115.6(17) 1103.6996 1102.6758
745 10.4141 1113.8(17) 1103.3456 1102.3701
746 10.4221 1112.0(17) 1102.9940 1102.0604
747 10.4300 1110.1(17) 1102.6528 1101.7546
748 10.4380 1108.5(17) 1102.3126 1101.4451
749 10.4459 1106.6(17) 1101.9808 1101.1393
750 10.4539 1104.7(17) 1101.0068 1100.1879
751 10.4618 1103.8(17) 1099.5300 1098.7299
752 10.4698 1102.9(17) 1098.0371 1097.2532
753 10.4777 1101.2(17) 1096.5657 1095.7950
754 10.4857 1100.0(17) 1095.0782 1094.3186
755 10.4936 1097.7(17) 1093.6113 1092.8605
756 10.5016 1095.7(17) 1092.1278 1091.3838
757 10.5095 1094.7(17) 1090.6648 1089.9258
758 10.5174 1093.2(17) 1089.2035 1088.4677
759 10.5254 1091.4(17) 1087.7252 1086.9910
760 10.5333 1090.4(17) 1086.2670 1085.5328
761 10.5413 1089.4(17) 1084.7920 1084.0564
762 10.5492 1087.7(17) 1083.3367 1082.5983
763 10.5572 1086.4(17) 1081.8644 1081.1216
764 10.5651 1085.4(17) 1080.4120 1079.6636
765 10.5731 1084.5(17) 1078.9424 1078.1869
766 10.5810 1083.5(16) 1077.4927 1076.7288
767 10.5890 1082.7(16) 1076.0262 1075.2523
768 10.5969 1081.3(16) 1074.5793 1073.7942
769 10.6049 1079.4(16) 1073.1156 1072.3175
770 10.6128 1077.3(16) 1071.6719 1070.8595
771 10.6208 1076.2(16) 1070.2113 1069.3829
772 10.6287 1074.2(16) 1068.7705 1067.9247
773 10.6366 1072.7(16) 1067.3319 1066.4668
774 10.6446 1072.1(16) 1065.8766 1064.9901
775 10.6525 1070.8(16) 1064.4415 1063.5320
776 10.6605 1069.8(16) 1062.9905 1062.0554
777 10.6684 1068.7(16) 1061.5372 1060.5973
778 10.6764 1066.6(16) 1060.0914 1059.1207
779 10.6843 1065.2(16) 1058.6661 1057.6625
780 10.6923 1063.4(16) 1057.2261 1056.1860
781 10.7002 1061.5(16) 1055.8071 1054.7279
782 10.7082 1060.5(16) 1054.3738 1053.2512
783 10.7161 1058.6(16) 1052.9625 1051.7932
784 10.7241 1057.3(16) 1051.5378 1050.3167
785 10.7320 1056.7(16) 1050.1357 1048.8584
786 10.7400 1055.6(16) 1048.7220 1047.3820
787 10.7479 1054.7(16) 1047.3323 1045.9238
788 10.7558 1053.6(16) 1045.9501 1044.4657
789 10.7638 1052.0(16) 1044.5594 1042.9893
790 10.7717 1050.9(16) 1043.1969 1041.5310
791 10.7797 1049.9(16) 1041.7903 1040.0544
792 10.7876 1049.2(16) 1040.4723 1038.5964
793 10.7956 1048.2(16) 1039.2026 1037.1198
794 10.8035 1047.4(16) 1038.1155 1035.6616
795 10.8115 1046.8(16) 1037.4498 1034.1852
796 10.8194 1046.9(16) 1037.8229 1032.7269
797 10.8274 1047.4(16) 1040.4769 1031.2504
798 10.8353 1050.2(16) 1047.4563 1029.7922
799 10.8433 1057.8(16) 1062.0775 1028.3157
800 10.8512 1074.8(16) 1087.5596 1026.8575
801 10.8592 1110.5(16) 1127.3165 1025.3811
802 10.8671 1171.0(17) 1180.2050 1023.9229
803 10.8750 1256.6(17) 1241.8019 1022.4648
804 10.8830 1351.8(18) 1303.1394 1020.9882
805 10.8909 1439.8(18) 1350.4528 1019.5302
806 10.8989 1482.2(19) 1375.1074 1018.0535
807 10.9068 1479.1(19) 1374.9788 1016.5953
808 10.9148 1437.4(18) 1359.9773 1015.1189
809 10.9227 1390.5(18) 1349.2799 1013.6607
810 10.9307 1381.1(18) 1363.9308 1012.1841
811 10.9386 1420.6(18) 1417.7906 1010.7261
812 10.9466 1505.5(19) 1512.1652 1009.2495
813 10.9545 1620.2(19) 1627.4128 1007.7913
814 10.9625 1729(2) 1735.4105 1006.3148
815 10.9704 1798(2) 1800.0508 1004.8567
816 10.9784 1807(2) 1799.4583 1003.3800
817 10.9863 1758(2) 1731.0857 1001.9219
818 10.9942 1659.9(20) 1614.5493 1000.4639
819 11.0022 1558.8(19) 1481.6871 998.9872
820 11.0101 1490.3(19) 1374.5699 997.5291
821 11.0181 1487.2(18) 1328.5776 996.0526
822 11.0260 1579.9(19) 1380.1243 994.5944
823 11.0340 1792(2) 1566.0081 993.1178
824 11.0419 2157(2) 1915.3207 991.6598
825 11.0499 2666(2) 2462.6035 990.1832
826 11.0578 3308(3) 3195.9448 988.7250
827 11.0658 4179(3) 4094.0249 987.2485
828 11.0737 5068(3) 5042.6421 985.7904
829 11.0817 5880(4) 5922.9893 984.3137
830 11.0896 6537(4) 6551.0801 982.8558
831 11.0976 6806(4) 6801.0225 981.3792
832 11.1055 6625(4) 6596.3130 979.9210
833 11.1134 6047(4) 5975.3330 978.4628
834 11.1214 5156(3) 5055.0889 976.9863
835 11.1293 4160(3) 4039.7588 975.5282
836 11.1373 3296(3) 3076.4329 974.0517
837 11.1452 2590(2) 2301.4944 972.5936
838 11.1532 2064(2) 1736.7158 971.1169
839 11.1611 1686.1(19) 1378.6501 969.6588
840 11.1691 1438.9(18) 1169.4373 968.1823
841 11.1770 1279.9(17) 1061.5765 966.7241
842 11.1850 1171.8(16) 1009.3111 965.2474
843 11.1929 1106.9(16) 986.1548 963.7895
844 11.2009 1066.2(15) 975.7029 962.3129
845 11.2088 1039.6(15) 970.6368 960.8547
846 11.2168 1022.9(15) 967.5497 959.3782
847 11.2247 1012.3(15) 965.2604 957.9200
848 11.2326 1006.0(15) 963.3143 956.4619
849 11.2406 1002.2(15) 961.6268 954.9854
850 11.2485 1002.6(15) 960.4270 953.5273
851 11.2565 1008.0(15) 960.3176 952.0507
852 11.2644 1019.5(15) 962.8486 950.5927
853 11.2724 1040.5(15) 971.4811 949.1160
854 11.2803 1077.6(15) 992.2676 947.6578
855 11.2883 1138.7(16) 1035.9655 946.1814
856 11.2962 1229.0(16) 1114.8192 944.7232
857 11.3042 1359.3(17) 1244.3162 943.2466
858 11.3121 1538.1(18) 1427.7974 941.7885
859 11.3201 1763.8(20) 1661.4380 940.3120
860 11.3280 1987(2) 1910.8865 938.8538
861 11.3360 2179(2) 2135.3652 937.3771
862 11.3439 2315(2) 2277.6721 935.9192
863 11.3518 2320(2) 2303.4692 934.4610
864 11.3598 2215(2) 2203.2495 932.9844
865 11.3677 2039(2) 2006.0186 931.5264
866 11.3757 1793.4(20) 1755.7361 930.0497
867 11.3836 1576.5(18) 1509.2529 928.5916
868 11.3916 1394.4(17) 1297.9114 927.1151
869 11.3995 1244.2(16) 1143.5114 925.6570
870 11.4075 1143.2(16) 1040.9995 924.1803
871 11.4154 1067.6(15) 981.3243 922.7223
872 11.4234 1019.2(15) 948.9161 921.2457
873 11.4313 985.8(14) 932.9462 919.7875
874 11.4393 964.0(14) 925.0531 918.3110
875 11.4472 950.7(14) 920.9894 916.8529
876 11.4552 940.0(14) 918.4261 915.3762
877 11.4631 933.2(14) 916.4775 913.9181
878 11.4710 927.7(14) 914.7408 912.4601
879 11.4790 924.0(14) 913.0656 910.9835
880 11.4869 920.9(14) 911.4506 909.5253
881 11.4949 917.6(14) 909.8397 908.0488
882 11.5028 914.3(14) 908.2667 906.5907
883 11.5108 911.5(14) 906.6882 905.1140
884 11.5187 908.8(14) 905.1417 903.6561
885 11.5267 906.9(14) 903.5856 902.1794
886 11.5346 905.2(14) 902.0576 900.7213
887 11.5426 903.1(14) 900.5178 899.2448
888 11.5505 901.1(14) 899.0037 897.7866
889 11.5585 899.7(14) 897.4759 896.3100
890 11.5664 898.2(14) 895.9723 894.8520
891 11.5744 896.8(14) 894.4539 893.3754
892 11.5823 895.2(14) 892.9583 891.9172
893 11.5902 892.1(14) 891.4661 890.4590
894 11.5982 890.5(14) 889.9583 888.9825
895 11.6061 889.3(14) 888.4719 887.5244
896 11.6141 888.4(13) 886.9692 886.0477
897 11.6220 888.0(13) 885.4879 884.5898
898 11.6300 885.7(13) 883.9896 883.1132
899 11.6379 883.5(13) 882.5120 881.6550
900 11.6459 882.0(13) 881.2683 880.4291
901 11.6538 880.9(13) 880.0811 879.2579
902 11.6618 879.6(13) 878.8804 878.0718
903 11.6697 878.2(13) 877.6964 876.9007
904 11.6777 876.6(13) 876.4985 875.7146
905 11.6856 875.0(13) 875.3169 874.5433
906 11.6936 873.5(13) 874.1217 873.3574
907 11.7015 872.0(13) 872.9426 872.1862
908 11.7094 870.6(13) 871.7645 871.0149
909 11.7174 869.5(13) 870.5728 869.8290
910 11.7253 868.4(13) 869.3969 868.6577
911 11.7333 867.9(13) 868.2072 867.4716
912 11.7412 865.9(13) 867.0334 866.3004
913 11.7492 864.0(13) 865.8459 865.1144
914 11.7571 863.0(13) 864.6741 863.9432
915 11.7651 861.5(13) 863.4886 862.7573
916 11.7730 861.0(13) 862.3188 861.5860
917 11.7810 861.3(13) 861.1353 860.3999
918 11.7889 860.1(13) 859.9677 859.2287
919 11.7969 858.7(13) 858.7864 858.0427
920 11.8048 857.4(13) 857.6209 856.8715
921 11.8128 855.5(13) 856.4418 855.6854
922 11.8207 854.8(13) 855.2789 854.5143
923 11.8286 853.2(13) 854.1170 853.3431
924 11.8366 852.4(13) 852.9418 852.1570
925 11.8445 851.1(13) 851.7828 850.9858
926 11.8525 849.6(13) 850.6106 849.7998
927 11.8604 848.8(13) 849.4546 848.6285
928 11.8684 847.3(13) 848.2803 847.4426
929 11.8763 845.8(13) 847.1282 846.2714
930 11.8843 844.0(13) 845.9635 845.0853
931 11.8922 843.1(13) 844.8156 843.9140
932 11.9002 842.7(13) 843.6560 842.7281
933 11.9081 841.4(13) 842.5135 841.5568
934 11.9161 840.9(13) 841.3598 840.3708
935 11.9240 839.5(13) 840.2241 839.1996
936 11.9320 837.6(13) 839.0779 838.0135
937 11.9399 836.4(13) 837.9506 836.8423
938 11.9478 835.9(13) 836.8160 835.6712
939 11.9558 835.4(13) 835.6862 834.4851
940 11.9637 835.3(13) 834.5775 833.3139
941 11.9717 835.8(13) 833.4633 832.1279
942 11.9796 835.2(13) 832.3730 830.9567
943 11.9876 834.8(13) 831.2815 829.7706
944 11.9955 834.4(13) 830.2206 828.5995
945 12.0035 833.9(13) 829.1747 827.4134
946 12.0114 834.5(13) 828.2021 826.2422
947 12.0194 836.0(13) 827.3746 825.0562
948 12.0273 840.1(13) 826.9747 823.8850
949 12.0353 847.0(13) 827.6642 822.6989
950 12.0432 858.6(13) 830.9152 821.5278
951 12.0512 877.6(13) 839.8008 820.3417
952 12.0591 910.4(13) 859.2979 819.1705
953 12.0670 960.2(13) 896.9289 817.9992
954 12.0750 1038.1(14) 962.4966 816.8133
955 12.0829 1160.3(15) 1061.8735 815.6420
956 12.0909 1306.0(16) 1198.4670 814.4559
957 12.0988 1476.0(17) 1358.5854 813.2849
958 12.1068 1640.1(18) 1522.7213 812.0988
959 12.1147 1766.1(18) 1654.5126 810.9275
960 12.1227 1828.9(18) 1725.2437 809.7416
961 12.1306 1800.9(18) 1714.5156 808.5703
962 12.1386 1697.1(18) 1624.7148 807.3842
963 12.1465 1545.8(17) 1480.7799 806.2131
964 12.1545 1368.0(16) 1312.3784 805.0270
965 12.1624 1220.3(15) 1154.6121 803.8558
966 12.1704 1093.6(14) 1024.1996 802.6699
967 12.1783 999.1(14) 931.7103 801.4986
968 12.1862 935.7(13) 872.3861 800.3274
969 12.1942 889.1(13) 837.8132 799.1414
970 12.2021 860.2(13) 819.8900 797.9702
971 12.2101 841.2(12) 810.8760 796.7841
972 12.2180 830.6(12) 806.3263 795.6129
973 12.2260 824.3(12) 803.5378 794.4269
974 12.2339 820.5(12) 801.4406 793.2557
975 12.2419 818.6(12) 799.5938 792.0696
976 12.2498 817.1(12) 797.9870 790.8984
977 12.2578 817.0(12) 796.6167 789.7124
978 12.2657 817.0(12) 795.5592 788.5411
979 12.2737 819.1(12) 794.8490 787.3552
980 12.2816 822.8(12) 794.6980 786.1840
981 12.2896 828.7(12) 795.7587 784.9979
982 12.2975 841.0(12) 799.8555 783.8268
983 12.3054 862.6(12) 811.6230 782.6555
984 12.3134 903.0(13) 841.9676 781.4694
985 12.3213 978.2(13) 910.7549 780.2983
986 12.3293 1123.0(14) 1055.8408 779.1122
987 12.3372 1362.8(16) 1325.4260 777.9410
988 12.3452 1755.9(18) 1788.0729 776.7551
989 12.3531 2330(2) 2481.4634 775.5838
990 12.3611 3072(2) 3428.2039 774.3977
991 12.3690 4004(3) 4533.2725 773.2265
992 12.3770 4990(3) 5663.0093 772.0405
993 12.3849 5867(3) 6570.1982 770.8693
994 12.3929 6433(3) 7060.3291 769.6832
995 12.4008 6410(3) 6994.7056 768.5121
996 12.4088 5896(3) 6389.2222 767.3260
997 12.4167 5030(3) 5411.9585 766.1548
998 12.4246 3961(3) 4278.5884 764.9836
999 12.4326 3048(2) 3184.4138 763.7976
1000 12.4405 2287(2) 2297.3372 762.6263
1001 12.4485 1735.4(17) 1648.2599 761.4404
1002 12.4564 1364.8(15) 1235.4601 760.2692
1003 12.4644 1120.0(14) 993.4473 759.0831
1004 12.4723 978.0(13) 868.2056 757.9120
1005 12.4803 891.2(12) 807.2871 756.7259
1006 12.4882 845.6(12) 780.3141 755.5546
1007 12.4962 818.1(12) 768.3167 754.3687
1008 12.5041 800.9(12) 762.7452 753.1974
1009 12.5121 790.7(12) 759.5344 752.0114
1010 12.5200 782.3(12) 757.2539 750.8401
1011 12.5280 777.1(12) 755.2964 749.6542
1012 12.5359 771.3(12) 753.5272 748.4829
1013 12.5438 766.6(12) 751.8571 747.3116
1014 12.5518 763.4(11) 750.2398 746.1257
1015 12.5597 759.7(11) 748.7005 744.9545
1016 12.5677 757.4(11) 747.1901 743.7684
1017 12.5756 756.6(11) 745.7384 742.5973
1018 12.5836 755.2(11) 744.3021 741.4112
1019 12.5915 753.0(11) 742.9123 740.2400
1020 12.5995 752.3(11) 741.5294 739.0540
1021 12.6074 750.6(11) 740.1846 737.8828
1022 12.6154 748.9(11) 738.8409 736.6967
1023 12.6233 748.0(11) 737.5298 735.5256
1024 12.6313 746.0(11) 736.2156 734.3395
1025 12.6392 744.0(11) 734.9298 733.1683
1026 12.6472 742.4(11) 733.6384 731.9823
1027 12.6551 741.3(11) 732.3723 730.8110
1028 12.6630 739.6(11) 731.1143 729.6398
1029 12.6710 737.2(11) 729.8478 728.4539
1030 12.6789 736.2(11) 728.6036 727.2827
1031 12.6869 734.9(11) 727.3495 726.0966
1032 12.6948 733.6(11) 726.1163 724.9253
1033 12.7028 732.9(11) 724.8724 723.7394
1034 12.7107 731.6(11) 723.6482 722.5681
1035 12.7187 730.0(11) 722.4123 721.3820
1036 12.7266 728.3(11) 721.1956 720.2109
1037 12.7346 727.3(11) 719.9665 719.0248
1038 12.7425 726.0(11) 718.7557 717.8536
1039 12.7505 724.4(11) 717.5323 716.6677
1040 12.7584 722.7(11) 716.3265 715.4964
1041 12.7664 721.4(11) 715.1078 714.3103
1042 12.7743 719.6(11) 713.9064 713.1392
1043 12.7823 718.9(11) 712.6917 711.9531
1044 12.7902 718.0(11) 711.4938 710.7819
1045 12.7981 717.0(11) 710.2977 709.6107
1046 12.8061 715.5(11) 709.0879 708.4247
1047 12.8140 714.0(11) 707.8947 707.2535
1048 12.8220 713.5(11) 706.6876 706.0675
1049 12.8299 711.8(11) 705.5710 704.9705
1050 12.8379 710.9(11) 704.8237 704.2408
1051 12.8458 710.9(11) 704.0859 703.5204
1052 12.8538 709.6(11) 703.3399 702.7909
1053 12.8617 708.0(11) 702.6041 702.0704
1054 12.8697 707.6(11) 701.8598 701.3409
1055 12.8776 706.4(11) 701.1257 700.6205
1056 12.8856 705.5(11) 700.3832 699.8909
1057 12.8935 705.5(11) 699.6506 699.1705
1058 12.9015 704.1(11) 698.9096 698.4410
1059 12.9094 702.7(11) 698.1785 697.7205
1060 12.9173 701.2(11) 697.4483 697.0001
1061 12.9253 699.8(11) 696.7093 696.2706
1062 12.9332 698.7(11) 695.9801 695.5501
1063 12.9412 697.0(11) 695.2423 694.8206
1064 12.9491 696.7(11) 694.5144 694.1002
1065 12.9571 695.9(11) 693.7778 693.3706
1066 12.9650 695.2(11) 693.0510 692.6501
1067 12.9730 694.6(11) 692.3156 691.9207
1068 12.9809 693.7(11) 691.5898 691.2002
1069 12.9889 693.1(11) 690.8555 690.4706
1070 12.9968 692.9(11) 690.1380 689.7501
1071 13.0048 692.7(10) 689.4051 689.0206
1072 13.0127 691.9(10) 688.6818 688.3002
1073 13.0207 689.5(10) 687.9500 687.5706
1074 13.0286 688.2(10) 687.2281 686.8503
1075 13.0365 687.7(10) 686.5068 686.1298
1076 13.0445 686.7(10) 685.7770 685.4002
1077 13.0524 686.4(10) 685.0573 684.6799
1078 13.0604 684.5(10) 684.3291 683.9503
1079 13.0683 683.2(10) 683.6109 683.2298
1080 13.0763 682.0(10) 682.8847 682.5003
1081 13.0842 681.3(10) 682.1685 681.7798
1082 13.0922 680.9(10) 681.4445 681.0503
1083 13.1001 679.8(10) 680.7308 680.3299
1084 13.1081 678.6(10) 680.0096 679.6003
1085 13.1160 678.0(10) 679.2991 678.8799
1086 13.1240 677.5(10) 678.5673 678.1504
1087 13.1319 676.1(10) 677.8640 677.4299
1088 13.1399 675.7(10) 677.1555 676.7003
1089 13.1478 675.1(10) 676.4653 675.9799
1090 13.1557 674.0(10) 675.7930 675.2595
1091 13.1637 673.4(10) 675.1450 674.5300
1092 13.1716 673.9(10) 674.5602 673.8095
1093 13.1796 673.5(10) 674.0530 673.0800
1094 13.1875 673.3(10) 673.6643 672.3596
1095 13.1955 673.8(10) 673.4019 671.6299
1096 13.2034 673.1(10) 673.2699 670.9096
1097 13.2114 673.2(10) 673.2513 670.1800
1098 13.2193 674.2(10) 673.3768 669.4595
1099 13.2273 675.6(10) 673.8563 668.7300
1100 13.2352 678.0(10) 675.2921 668.0096
1101 13.2432 683.9(10) 679.1134 667.2800
1102 13.2511 694.7(10) 687.7152 666.5596
1103 13.2591 711.9(10) 705.1646 665.8301
1104 13.2670 740.2(11) 735.7072 665.1096
1105 13.2749 782.0(11) 783.7261 664.3892
1106 13.2829 842.0(11) 851.7855 663.6597
1107 13.2908 921.9(12) 934.6302 662.9392
1108 13.2988 1008.6(12) 1023.9868 662.2097
1109 13.3067 1102.8(13) 1101.8824 661.4893
1110 13.3147 1171.5(13) 1152.8577 660.7597
1111 13.3226 1189.7(13) 1162.9926 660.0392
1112 13.3306 1157.0(13) 1129.6567 659.3098
1113 13.3385 1079.3(13) 1061.9065 658.5893
1114 13.3465 979.7(12) 973.9569 657.8597
1115 13.3544 888.5(12) 885.1069 657.1393
1116 13.3624 811.0(11) 806.5502 656.4097
1117 13.3703 750.9(11) 747.0659 655.6893
1118 13.3783 712.9(10) 705.8563 654.9598
1119 13.3862 687.3(10) 680.7238 654.2393
1120 13.3941 671.1(10) 666.3763 653.5189
1121 13.4021 661.6(10) 658.7693 652.7894
1122 13.4100 656.2(10) 654.9233 652.0690
1123 13.4180 652.7(10) 652.8347 651.3394
1124 13.4259 650.6(10) 651.5592 650.6189
1125 13.4339 648.9(10) 650.5887 649.8894
1126 13.4418 647.8(10) 649.7510 649.1689
1127 13.4498 646.5(10) 648.9489 648.4395
1128 13.4577 644.9(10) 648.1759 647.7190
1129 13.4657 644.1(10) 647.4035 646.9894
1130 13.4736 643.4(10) 646.6475 646.2690
1131 13.4816 642.1(10) 645.8873 645.5395
1132 13.4895 641.1(10) 645.1407 644.8190
1133 13.4975 639.9(10) 644.3882 644.0894
1134 13.5054 638.7(10) 643.6483 643.3691
1135 13.5133 638.4(10) 642.9108 642.6486
1136 13.5213 638.5(10) 642.1660 641.9190
1137 13.5292 638.5(10) 641.4326 641.1987
1138 13.5372 637.9(10) 640.6914 640.4691
1139 13.5451 636.7(10) 639.9610 639.7487
1140 13.5531 635.8(10) 639.2226 639.0191
1141 13.5610 635.0(10) 638.4946 638.2987
1142 13.5690 634.6(10) 637.7583 637.5691
1143 13.5769 634.5(10) 637.0323 636.8488
1144 13.5849 633.9(10) 636.2979 636.1191
1145 13.5928 632.4(10) 635.5734 635.3987
1146 13.6008 631.0(10) 634.8405 634.6692
1147 13.6087 630.2(10) 634.1174 633.9487
1148 13.6167 628.8(9) 633.3859 633.2192
1149 13.6246 628.5(9) 632.6642 632.4987
1150 13.6325 628.1(9) 631.9431 631.7783
1151 13.6405 627.0(9) 631.2135 631.0488
1152 13.6484 626.5(9) 630.4937 630.3283
1153 13.6564 625.3(9) 629.7654 629.5988
1154 13.6643 624.8(9) 629.0469 628.8784
1155 13.6723 623.5(9) 628.3200 628.1487
1156 13.6802 623.3(9) 627.6031 627.4284
1157 13.6882 623.1(9) 626.8779 626.6988
1158 13.6961 623.1(9) 626.1627 625.9784
1159 13.7041 623.5(9) 625.4396 625.2489
1160 13.7120 622.8(9) 624.7269 624.5284
1161 13.7200 622.3(9) 624.0070 623.7988
1162 13.7279 620.7(9) 623.2995 623.0785
1163 13.7359 619.7(9) 622.5906 622.3489
1164 13.7438 619.0(9) 621.9094 621.6284
1165 13.7517 618.1(9) 621.2874 620.9080
1166 13.7597 617.6(9) 620.7602 620.1785
1167 13.7676 617.9(9) 620.4868 619.4580
1168 13.7756 618.9(9) 620.7058 618.7285
1169 13.7835 620.9(9) 621.7883 618.0081
1170 13.7915 625.0(9) 624.2676 617.2785
1171 13.7994 630.8(9) 628.5613 616.5580
1172 13.8074 639.5(9) 635.0654 615.8286
1173 13.8153 651.7(10) 643.3786 615.1081
1174 13.8233 666.0(10) 652.7693 614.3785
1175 13.8312 679.9(10) 661.4045 613.6581
1176 13.8392 690.9(10) 667.5765 612.9286
1177 13.8471 696.4(10) 669.5558 612.2081
1178 13.8551 694.0(10) 666.7723 611.4786
1179 13.8630 682.8(10) 659.9498 610.7582
1180 13.8709 667.6(10) 650.7344 610.0377
1181 13.8789 650.4(9) 641.0366 609.3082
1182 13.8868 636.4(9) 632.8546 608.5878
1183 13.8948 628.3(9) 627.0213 607.8582
1184 13.9027 624.4(9) 623.8671 607.1377
1185 13.9107 623.4(9) 622.8791 606.4082
1186 13.9186 623.9(9) 623.5042 605.6877
1187 13.9266 625.4(9) 625.6016 604.9582
1188 13.9345 627.4(9) 629.9667 604.2378
1189 13.9425 631.6(9) 639.0137 603.5082
1190 13.9504 640.7(9) 656.1642 602.7878
1191 13.9584 659.8(9) 686.1888 602.0583
1192 13.9663 694.5(10) 731.6133 601.3378
1193 13.9743 750.0(10) 793.6596 600.6083
1194 13.9822 839.7(11) 865.7141 599.8879
1195 13.9901 942.9(11) 937.9772 599.1674
1196 13.9981 1040.9(12) 996.9797 598.4379
1197 14.0060 1110.1(12) 1027.6219 597.7175
1198 14.0140 1122.1(12) 1022.5334 596.9879
1199 14.0219 1079.3(12) 982.9436 596.3940
1200 14.0299 991.4(12) 917.5342 595.9310
1201 14.0378 883.4(11) 841.8294 595.4737
1202 14.0458 788.0(10) 767.7484 595.0106
1203 14.0537 712.4(10) 706.6295 594.5533
1204 14.0617 666.9(9) 661.0798 594.0903
1205 14.0696 638.1(9) 631.8506 593.6330
1206 14.0776 623.8(9) 615.3940 593.1700
1207 14.0855 620.2(9) 608.9351 592.7127
1208 14.0935 623.1(9) 609.8235 592.2496
1209 14.1014 631.7(9) 616.5167 591.7923
1210 14.1093 646.0(9) 627.9109 591.3351
1211 14.1173 665.5(9) 642.8508 590.8720
1212 14.1252 688.0(10) 658.7753 590.4147
1213 14.1332 709.8(10) 673.0493 589.9517
1214 14.1411 725.1(10) 682.1515 589.4944
1215 14.1491 729.4(10) 683.9351 589.0313
1216 14.1570 721.5(10) 677.7736 588.5740
1217 14.1650 703.7(10) 664.9535 588.1110
1218 14.1729 679.6(9) 648.5995 587.6537
1219 14.1809 656.1(9) 631.4724 587.1907
1220 14.1888 635.0(9) 616.4775 586.7333
1221 14.1968 619.1(9) 604.5988 586.2703
1222 14.2047 607.5(9) 596.3505 585.8130
1223 14.2127 600.2(9) 590.9825 585.3500
1224 14.2206 595.2(9) 587.7986 584.8926
1225 14.2285 591.6(9) 585.9358 584.4354
1226 14.2365 588.6(9) 584.7998 583.9724
1227 14.2444 586.6(9) 584.0484 583.5150
1228 14.2524 585.7(9) 583.4572 583.0519
1229 14.2603 584.5(9) 582.9432 582.5947
1230 14.2683 584.0(9) 582.4504 582.1317
1231 14.2762 583.0(9) 581.9746 581.6743
1232 14.2842 581.9(9) 581.4977 581.2113
1233 14.2921 581.3(9) 581.0295 580.7540
1234 14.3001 580.6(9) 580.5572 580.2910
1235 14.3080 580.4(9) 580.0923 579.8337
1236 14.3160 579.9(9) 579.6230 579.3706
1237 14.3239 579.4(9) 579.1606 578.9133
1238 14.3319 579.3(9) 578.6854 578.4503
1239 14.3398 577.9(9) 578.2250 577.9930
1240 14.3477 577.4(9) 577.7656 577.5357
1241 14.3557 577.0(9) 577.3012 577.0727
1242 14.3636 576.1(9) 576.8433 576.6154
1243 14.3716 575.9(9) 576.3802 576.1523
1244 14.3795 575.6(9) 575.9236 575.6950
1245 14.3875 575.7(9) 575.4644 575.2320
1246 14.3954 574.8(9) 575.0091 574.7747
1247 14.4034 574.5(8) 574.5487 574.3116
1248 14.4113 574.0(8) 574.0948 573.8544
1249 14.4193 573.1(8) 573.6357 573.3913
1250 14.4272 573.3(8) 573.1830 572.9340
1251 14.4352 572.8(8) 572.7254 572.4709
1252 14.4431 572.3(8) 572.2741 572.0137
1253 14.4511 572.4(8) 571.8179 571.5506
1254 14.4590 571.7(8) 571.3681 571.0933
1255 14.4669 571.4(8) 570.9192 570.6360
1256 14.4749 570.7(8) 570.4655 570.1730
1257 14.4828 570.0(8) 570.0186 569.7158
1258 14.4908 569.9(8) 569.5668 569.2526
1259 14.4987 569.7(8) 569.1219 568.7953
1260 14.5067 569.5(8) 568.6728 568.3323
1261 14.5146 569.6(8) 568.2306 567.8751
1262 14.5226 569.3(8) 567.7842 567.4119
1263 14.5305 568.2(8) 567.3525 566.9547
1264 14.5385 567.6(8) 566.9100 566.4916
1265 14.5464 567.0(8) 566.4751 566.0343
1266 14.5544 566.5(8) 566.0371 565.5712
1267 14.5623 566.8(8) 565.6074 565.1140
1268 14.5703 566.7(8) 565.1752 564.6509
1269 14.5782 566.4(8) 564.7520 564.1936
1270 14.5861 566.0(8) 564.3328 563.7364
1271 14.5941 565.8(8) 563.9130 563.2733
1272 14.6020 565.5(8) 563.5039 562.8160
1273 14.6100 565.8(8) 563.0961 562.3530
1274 14.6179 566.0(8) 562.7008 561.8957
1275 14.6259 566.4(8) 562.3096 561.4326
1276 14.6338 566.8(8) 561.9344 560.9754
1277 14.6418 566.8(8) 561.5691 560.5123
1278 14.6497 567.7(8) 561.2309 560.0550
1279 14.6577 568.1(8) 560.9324 559.5920
1280 14.6656 569.2(8) 560.7391 559.1346
1281 14.6736 570.7(8) 560.8130 558.6716
1282 14.6815 573.8(8) 561.5226 558.2143
1283 14.6895 578.9(8) 563.7769 557.7513
1284 14.6974 587.7(8) 569.2685 557.2939
1285 14.7053 602.9(8) 581.1013 556.8367
1286 14.7133 624.1(9) 604.4520 556.3737
1287 14.7212 662.1(9) 645.1288 555.9164
1288 14.7292 712.6(9) 710.9958 555.4532
1289 14.7371 791.3(10) 805.0399 554.9960
1290 14.7451 892.3(10) 929.2181 554.5330
1291 14.7530 1008.7(11) 1072.5977 554.0757
1292 14.7610 1155.2(12) 1223.6445 553.6126
1293 14.7689 1290.5(12) 1359.9937 553.1553
1294 14.7769 1412.1(13) 1468.1487 552.6923
1295 14.7848 1516.3(13) 1536.1654 552.2350
1296 14.7928 1603.0(14) 1565.9197 551.7719
1297 14.8007 1680.6(14) 1562.9592 551.3146
1298 14.8087 1740.7(14) 1534.1238 550.8516
1299 14.8166 1761.1(14) 1483.5481 550.3943
1300 14.8245 1717.6(14) 1411.1425 549.9370
1301 14.8325 1599.6(14) 1315.3440 549.4739
1302 14.8404 1431.7(13) 1201.3929 549.0167
1303 14.8484 1234.9(12) 1074.1772 548.5536
1304 14.8563 1047.6(11) 948.2116 548.0963
1305 14.8643 892.4(10) 832.0488 547.6333
1306 14.8722 764.9(9) 736.9897 547.1760
1307 14.8802 683.0(9) 664.2814 546.7129
1308 14.8881 628.2(9) 614.7302 546.2557
1309 14.8961 596.5(8) 582.9663 545.7926
1310 14.9040 577.8(8) 564.6791 545.3353
1311 14.9120 567.1(8) 554.6280 544.8723
1312 14.9199 561.6(8) 549.5155 544.4150
1313 14.9279 558.0(8) 546.8724 543.9519
1314 14.9358 555.4(8) 545.4520 543.4947
1315 14.9437 553.6(8) 544.5486 543.0374
1316 14.9517 552.0(8) 543.8514 542.5743
1317 14.9596 550.6(8) 543.2505 542.1170
1318 14.9676 549.6(8) 542.6806 541.6540
1319 14.9755 548.6(8) 542.1376 541.1967
1320 14.9835 547.6(8) 541.6010 540.7336
1321 14.9914 546.9(8) 541.0807 540.2764
1322 14.9994 546.6(8) 540.5620 539.8132
1323 15.0073 545.5(8) 540.0565 539.3560
1324 15.0153 545.2(8) 539.5504 538.8929
1325 15.0232 544.4(8) 539.0555 538.4357
1326 15.0312 543.6(8) 538.5516 537.9725
1327 15.0391 542.9(8) 538.0648 537.5153
1328 15.0471 541.8(8) 537.5750 537.0522
1329 15.0550 541.0(8) 537.0942 536.5950
1330 15.0630 540.3(8) 536.6099 536.1319
1331 15.0709 540.1(8) 536.1340 535.6746
1332 15.0788 539.6(8) 535.6600 535.2173
1333 15.0868 539.4(8) 535.1819 534.7543
1334 15.0947 538.6(8) 534.7114 534.2970
1335 15.1027 537.9(8) 534.2365 533.8339
1336 15.1106 537.0(8) 533.7689 533.3766
1337 15.1186 536.6(8) 533.2968 532.9136
1338 15.1265 536.7(8) 532.8317 532.4563
1339 15.1345 536.4(8) 532.3619 531.9933
1340 15.1424 536.4(8) 531.8991 531.5360
1341 15.1504 535.7(8) 531.4314 531.0729
1342 15.1583 535.2(8) 530.9706 530.6156
1343 15.1663 534.8(8) 530.5050 530.1526
1344 15.1742 534.4(8) 530.0446 529.6953
1345 15.1821 533.7(8) 529.5867 529.2380
1346 15.1901 533.2(8) 529.1240 528.7750
1347 15.1980 532.8(8) 528.6681 528.3177
1348 15.2060 532.4(8) 528.2074 527.8546
1349 15.2139 532.6(8) 527.8004 527.4442
1350 15.2219 532.0(8) 527.4015 527.0406
1351 15.2298 531.1(8) 527.0087 526.6422
1352 15.2378 530.6(8) 526.6124 526.2386
1353 15.2457 529.8(8) 526.2223 525.8401
1354 15.2537 530.2(8) 525.8290 525.4365
1355 15.2616 530.1(8) 525.4424 525.0381
1356 15.2696 529.6(8) 525.0530 524.6345
1357 15.2775 529.2(8) 524.6710 524.2360
1358 15.2855 528.5(8) 524.2874 523.8325
1359 15.2934 527.9(8) 523.9139 523.4340
1360 15.3014 527.4(8) 523.5461 523.0303
1361 15.3093 527.0(8) 523.2083 522.6318
1362 15.3172 527.1(8) 522.9340 522.2334
1363 15.3252 526.8(8) 522.8151 521.8298
1364 15.3331 527.2(8) 523.0577 521.4313
1365 15.3411 527.6(8) 524.0751 521.0278
1366 15.3490 528.4(8) 526.5070 520.6293
1367 15.3570 530.5(8) 531.4399 520.2256
1368 15.3649 534.8(8) 539.9793 519.8272
1369 15.3729 543.6(8) 553.4893 519.4236
1370 15.3808 560.2(8) 572.0848 519.0251
1371 15.3888 585.8(8) 595.3489 518.6216
1372 15.3967 622.0(8) 620.1141 518.2231
1373 15.4047 661.7(8) 642.8407 517.8195
1374 15.4126 694.4(9) 658.3270 517.4210
1375 15.4206 706.1(9) 663.2368 517.0175
1376 15.4285 691.9(9) 656.1609 516.6190
1377 15.4364 658.3(8) 638.8804 516.2204
1378 15.4444 616.9(8) 614.9370 515.8169
1379 15.4523 580.1(8) 589.6145 515.4184
1380 15.4603 555.4(8) 566.4199 515.0148
1381 15.4682 543.6(8) 548.6204 514.6163
1382 15.4762 540.1(8) 537.1296 514.2128
1383 15.4841 543.4(8) 532.9525 513.8143
1384 15.4921 553.4(8) 537.0109 513.4108
1385 15.5000 571.0(8) 551.1597 513.0122
1386 15.5080 600.2(8) 578.6428 512.6086
1387 15.5159 640.2(8) 621.4702 512.2102
1388 15.5239 688.7(8) 681.4628 511.8066
1389 15.5318 749.5(9) 753.7812 511.4081
1390 15.5398 810.8(9) 831.5682 511.0046
1391 15.5477 865.8(10) 899.9789 510.6060
1392 15.5556 903.6(10) 945.9568 510.2075
1393 15.5636 918.6(10) 958.7344 509.8040
1394 15.5715 896.6(10) 934.7898 509.4055
1395 15.5795 847.3(9) 879.3911 509.0019
1396 15.5874 778.9(9) 806.2478 508.6034
1397 15.5954 706.9(9) 728.0285 508.1999
1398 15.6033 646.7(8) 658.6031 507.8014
1399 15.6113 604.1(8) 603.5443 507.3978
1400 15.6192 576.1(8) 566.7030 506.9993
1401 15.6272 564.3(8) 546.6255 506.5958
1402 15.6351 566.9(8) 542.6403 506.1972
1403 15.6431 582.4(8) 554.4822 505.7937
1404 15.6510 614.0(8) 583.1220 505.3952
1405 15.6590 667.0(8) 630.9406 504.9916
1406 15.6669 732.2(9) 696.5785 504.5931
1407 15.6748 810.0(9) 776.3446 504.1946
1408 15.6828 889.9(10) 862.0020 503.7911
1409 15.6907 957.9(10) 938.1288 503.3926
1410 15.6987 1011.9(10) 993.2341 502.9890
1411 15.7066 1036.7(10) 1018.2687 502.5905
1412 15.7146 1028.6(10) 1016.4646 502.1870
1413 15.7225 999.0(10) 1001.3086 501.7885
1414 15.7305 971.2(10) 992.4615 501.3849
1415 15.7384 968.9(10) 1008.1422 500.9864
1416 15.7464 1007.8(10) 1057.1532 500.5829
1417 15.7543 1090.1(10) 1132.1677 500.1843
1418 15.7623 1191.4(11) 1215.2065 499.7808
1419 15.7702 1272.1(11) 1277.9071 499.3823
1420 15.7782 1305.5(11) 1298.4196 498.9787
1421 15.7861 1268.3(11) 1265.8031 498.5802
1422 15.7940 1169.9(11) 1186.7864 498.1817
1423 15.8020 1044.0(10) 1078.9208 497.7782
1424 15.8099 926.2(10) 968.6022 497.3796
1425 15.8179 843.2(9) 872.7728 496.9761
1426 15.8258 800.1(9) 803.3118 496.5776
1427 15.8338 790.2(9) 757.3992 496.1740
1428 15.8417 788.0(9) 727.9620 495.7756
1429 15.8497 777.6(9) 703.9209 495.3720
1430 15.8576 750.7(9) 678.3901 494.9735
1431 15.8656 702.8(8) 647.9397 494.5699
1432 15.8735 651.0(8) 614.8054 494.1714
1433 15.8815 600.5(8) 581.7867 493.7679
1434 15.8894 560.8(7) 553.2424 493.3694
1435 15.8974 536.1(7) 530.5869 492.9658
1436 15.9053 520.0(7) 514.7625 492.5673
1437 15.9132 511.2(7) 504.5326 492.1688
1438 15.9212 505.7(7) 498.3656 491.7653
1439 15.9291 503.2(7) 494.9460 491.3668
1440 15.9371 501.7(7) 493.0341 490.9632
1441 15.9450 500.5(7) 491.9392 490.5647
1442 15.9530 500.0(7) 491.2077 490.1611
1443 15.9609 499.4(7) 490.6478 489.7626
1444 15.9689 498.9(7) 490.1489 489.3591
1445 15.9768 498.5(7) 489.6846 488.9606
1446 15.9848 497.8(7) 489.2281 488.5570
1447 15.9927 497.0(7) 488.7853 488.1585
1448 16.0007 496.5(7) 488.3425 487.7550
1449 16.0086 495.7(7) 487.9099 487.3564
1450 16.0166 495.2(7) 487.4757 486.9529
1451 16.0245 495.1(7) 487.0502 486.5544
1452 16.0324 494.5(7) 486.6286 486.1559
1453 16.0404 493.6(7) 486.2034 485.7524
1454 16.0483 492.4(7) 485.7857 485.3539
1455 16.0563 491.4(7) 485.3649 484.9503
1456 16.0642 490.0(7) 484.9513 484.5518
1457 16.0722 489.8(7) 484.5340 484.1482
1458 16.0801 489.4(7) 484.1237 483.7498
1459 16.0881 488.7(7) 483.7096 483.3462
1460 16.0960 488.1(7) 483.3021 482.9476
1461 16.1040 487.2(7) 482.8908 482.5441
1462 16.1119 486.7(7) 482.4858 482.1456
1463 16.1199 486.9(7) 482.0771 481.7421
1464 16.1278 486.8(7) 481.6747 481.3436
1465 16.1358 486.6(7) 481.2684 480.9400
1466 16.1437 486.0(7) 480.8685 480.5415
1467 16.1516 485.6(7) 480.4698 480.1430
1468 16.1596 485.1(7) 480.0675 479.7395
1469 16.1675 484.5(7) 479.6717 479.3409
1470 16.1755 483.9(7) 479.2723 478.9373
1471 16.1834 483.4(7) 478.8798 478.5389
1472 16.1914 483.1(7) 478.4841 478.1353
1473 16.1993 482.9(7) 478.0956 477.7368
1474 16.2073 483.0(7) 477.7045 477.3333
1475 16.2152 482.6(7) 477.3211 476.9348
1476 16.2232 482.4(7) 476.9362 476.5312
1477 16.2311 482.1(7) 476.5601 476.1327
1478 16.2391 481.8(7) 476.1843 475.7292
1479 16.2470 481.7(7) 475.8206 475.3307
1480 16.2550 481.2(7) 475.4661 474.9271
1481 16.2629 480.8(7) 475.1470 474.5286
1482 16.2708 480.4(7) 474.9059 474.1301
1483 16.2788 480.2(7) 474.8650 473.7266
1484 16.2867 481.3(7) 475.3109 473.3281
1485 16.2947 482.3(7) 476.8692 472.9244
1486 16.3026 484.4(7) 480.6398 472.5259
1487 16.3106 488.8(7) 488.6395 472.1224
1488 16.3185 497.4(7) 503.3674 471.7239
1489 16.3265 515.5(7) 528.4062 471.3204
1490 16.3344 550.3(7) 565.8091 470.9218
1491 16.3424 605.0(7) 617.2045 470.5183
1492 16.3503 688.1(8) 678.4158 470.1198
1493 16.3583 792.8(9) 743.5826 469.7163
1494 16.3662 894.1(9) 800.2728 469.3177
1495 16.3742 972.5(9) 838.0486 468.9142
1496 16.3821 987.6(10) 847.2468 468.5157
1497 16.3900 939.8(9) 826.1757 468.1172
1498 16.3980 841.5(9) 779.0602 467.7281
1499 16.4059 724.0(8) 717.4908 467.4733
1500 16.4139 624.7(8) 651.6971 467.2151
1501 16.4218 556.3(7) 593.0826 466.9602
1502 16.4298 513.8(7) 545.9083 466.7021
1503 16.4377 492.5(7) 512.7646 466.4472
1504 16.4457 481.9(7) 491.1791 466.1891
1505 16.4536 476.5(7) 478.6815 465.9342
1506 16.4616 473.9(7) 471.8399 465.6761
1507 16.4695 472.3(7) 468.4173 465.4212
1508 16.4775 470.8(7) 466.7072 465.1630
1509 16.4854 469.5(7) 465.8431 464.9082
1510 16.4934 468.4(6) 465.3386 464.6500
1511 16.5013 468.0(6) 465.0117 464.3951
1512 16.5092 467.5(6) 464.7964 464.1403
1513 16.5172 467.5(6) 464.7040 463.8821
1514 16.5251 467.3(6) 464.7854 463.6272
1515 16.5331 467.4(6) 465.1042 463.3691
1516 16.5410 468.2(6) 465.6969 463.1142
1517 16.5490 469.2(6) 466.5710 462.8561
1518 16.5569 470.5(6) 467.6163 462.6012
1519 16.5649 472.5(6) 468.6783 462.3430
1520 16.5728 474.2(6) 469.4933 462.0881
1521 16.5808 475.1(6) 469.8463 461.8300
1522 16.5887 474.5(6) 469.5829 461.5751
1523 16.5967 472.6(6) 468.6942 461.3170
1524 16.6046 470.1(6) 467.3402 461.0621
1525 16.6126 467.3(6) 465.7361 460.8040
1526 16.6205 465.0(6) 464.1516 460.5490
1527 16.6284 463.4(6) 462.7439 460.2942
1528 16.6364 461.9(6) 461.5891 460.0360
1529 16.6443 461.1(6) 460.7231 459.7811
1530 16.6523 460.4(6) 460.0780 459.5230
1531 16.6602 460.3(6) 459.6047 459.2681
1532 16.6682 459.8(6) 459.2360 459.0100
1533 16.6761 459.1(6) 458.9240 458.7551
1534 16.6841 458.1(6) 458.6381 458.4970
1535 16.6920 457.3(6) 458.3695 458.2421
1536 16.7000 457.0(6) 458.1034 457.9839
1537 16.7079 456.5(6) 457.8434 457.7291
1538 16.7159 456.6(6) 457.5810 457.4709
1539 16.7238 455.9(6) 457.3226 457.2160
1540 16.7318 455.7(6) 457.0613 456.9579
1541 16.7397 455.2(6) 456.8036 456.7030
1542 16.7476 455.1(6) 456.5383 456.4481
1543 16.7556 455.0(6) 456.2780 456.1900
1544 16.7635 454.6(6) 456.0211 455.9351
1545 16.7715 454.3(6) 455.7613 455.6770
1546 16.7794 454.1(6) 455.5048 455.4221
1547 16.7874 453.9(6) 455.2453 455.1639
1548 16.7953 453.7(6) 454.9894 454.9091
1549 16.8033 453.3(6) 454.7303 454.6509
1550 16.8112 453.0(6) 454.4746 454.3960
1551 16.8192 452.1(6) 454.2033 454.1379
1552 16.8271 451.0(6) 453.9543 453.8830
1553 16.8351 450.4(6) 453.6962 453.6248
1554 16.8430 449.8(6) 453.4415 453.3700
1555 16.8510 449.4(6) 453.1837 453.1118
1556 16.8589 450.2(6) 452.9294 452.8569
1557 16.8668 450.3(6) 452.6753 452.6020
1558 16.8748 450.5(6) 452.4182 452.3439
1559 16.8827 450.5(6) 452.1646 452.0890
1560 16.8907 450.3(6) 451.9068 451.8309
1561 16.8986 449.5(6) 451.6539 451.5760
1562 16.9066 449.0(6) 451.3982 451.3178
1563 16.9145 448.5(6) 451.1461 451.0630
1564 16.9225 447.8(6) 450.8914 450.8048
1565 16.9304 447.1(6) 450.6405 450.5499
1566 16.9384 446.5(6) 450.3872 450.2918
1567 16.9463 446.6(6) 450.1382 450.0369
1568 16.9543 446.2(6) 449.8883 449.7788
1569 16.9622 446.7(6) 449.6462 449.5239
1570 16.9702 447.0(6) 449.4133 449.2658
1571 16.9781 447.0(6) 449.2140 449.0109
1572 16.9860 446.9(6) 449.0883 448.7560
1573 16.9940 446.3(6) 449.1293 448.4979
1574 17.0019 446.1(6) 449.5099 448.2430
1575 17.0099 446.9(6) 450.5347 447.9849
1576 17.0178 449.2(6) 452.5962 447.7299
1577 17.0258 453.1(6) 456.2527 447.4718
1578 17.0337 458.7(6) 461.8474 447.2169
1579 17.0417 466.6(6) 469.6662 446.9588
1580 17.0496 476.7(6) 479.1137 446.7039
1581 17.0576 488.8(6) 489.3228 446.4458
1582 17.0655 500.6(6) 498.3729 446.1909
1583 17.0735 509.7(6) 504.6061 445.9327
1584 17.0814 512.0(6) 506.4152 445.6778
1585 17.0894 507.5(6) 503.3399 445.4197
1586 17.0973 497.6(6) 496.1240 445.1648
1587 17.1052 484.8(6) 486.2976 444.9099
1588 17.1132 471.7(6) 475.5726 444.6518
1589 17.1211 461.0(6) 465.8157 444.3969
1590 17.1291 453.4(6) 457.7832 444.1387
1591 17.1370 448.2(6) 451.9886 443.8839
1592 17.1450 445.5(6) 448.0757 443.6257
1593 17.1529 443.3(6) 445.6880 443.3708
1594 17.1609 442.2(6) 444.2643 443.1127
1595 17.1688 441.0(6) 443.4393 442.8578
1596 17.1768 440.2(6) 442.9160 442.5997
1597 17.1847 439.8(6) 442.5477 442.3448
1598 17.1927 439.1(6) 442.2410 442.0867
1599 17.2006 438.9(6) 441.9648 441.8318
1600 17.2086 438.6(6) 441.6957 441.5737
1601 17.2165 438.5(6) 441.4342 441.3188
1602 17.2244 438.1(6) 441.1746 441.0639
1603 17.2324 437.5(6) 440.9128 440.8057
1604 17.2403 437.0(6) 440.6552 440.5508
1605 17.2483 436.9(6) 440.3949 440.2927
1606 17.2562 437.0(6) 440.1384 440.0378
1607 17.2642 436.9(6) 439.8792 439.7797
1608 17.2721 436.7(6) 439.6236 439.5247
1609 17.2801 436.5(6) 439.3652 439.2667
1610 17.2880 436.5(6) 439.1104 439.0117
1611 17.2960 436.3(6) 438.8526 438.7536
1612 17.3039 436.3(6) 438.5984 438.4987
1613 17.3119 435.9(6) 438.3412 438.2406
1614 17.3198 435.6(6) 438.0876 437.9857
1615 17.3278 435.4(6) 437.8309 437.7276
1616 17.3357 435.0(6) 437.5790 437.4727
1617 17.3437 434.7(6) 437.3229 437.2145
1618 17.3516 434.6(6) 437.0704 436.9596
1619 17.3595 434.9(6) 436.8181 436.7047
1620 17.3675 434.9(6) 436.5630 436.4466
1621 17.3754 435.1(6) 436.3113 436.1917
1622 17.3834 435.5(6) 436.0568 435.9336
1623 17.3913 434.7(6) 435.8058 435.6787
1624 17.3993 434.6(6) 435.5521 435.4206
1625 17.4072 434.0(6) 435.3019 435.1657
1626 17.4152 433.9(6) 435.0490 434.9076
1627 17.4231 433.4(6) 434.7997 434.6527
1628 17.4311 433.2(6) 434.5417 434.3945
1629 17.4390 433.3(6) 434.2936 434.1397
1630 17.4470 433.0(6) 434.0430 433.8815
1631 17.4549 433.5(6) 433.7980 433.6266
1632 17.4629 433.7(6) 433.5490 433.3685
1633 17.4708 434.0(6) 433.3040 433.1136
1634 17.4787 434.1(6) 433.0601 432.8587
1635 17.4867 433.8(6) 432.8142 432.6006
1636 17.4946 433.4(6) 432.5728 432.3457
1637 17.5026 432.8(6) 432.3300 432.0876
1638 17.5105 432.8(6) 432.0925 431.8326
1639 17.5185 432.7(6) 431.8557 431.5746
1640 17.5264 432.7(6) 431.6286 431.3196
1641 17.5344 432.9(6) 431.4143 431.0615
1642 17.5423 433.0(6) 431.2382 430.8066
1643 17.5503 433.4(6) 431.1401 430.5485
1644 17.5582 433.9(6) 431.2079 430.2935
1645 17.5662 434.6(6) 431.5940 430.0354
1646 17.5741 435.7(6) 432.5160 429.7805
1647 17.5821 437.6(6) 434.2843 429.5224
1648 17.5900 440.9(6) 437.2576 429.3782
1649 17.5979 446.7(6) 441.6699 429.3881
1650 17.6059 454.5(6) 447.3732 429.3982
1651 17.6138 465.3(6) 453.8255 429.4082
1652 17.6218 477.2(6) 460.5247 429.4183
1653 17.6297 489.4(6) 466.7033 429.4283
1654 17.6377 500.4(6) 472.4780 429.4384
1655 17.6456 510.8(6) 478.7993 429.4484
1656 17.6536 523.1(6) 488.4226 429.4585
1657 17.6615 541.1(6) 504.8447 429.4684
1658 17.6695 570.7(7) 532.4328 429.4785
1659 17.6774 610.7(7) 572.8735 429.4885
1660 17.6854 659.8(7) 626.2047 429.4986
1661 17.6933 712.0(7) 685.6609 429.5086
1662 17.7013 755.1(7) 742.9944 429.5187
1663 17.7092 781.2(8) 785.2480 429.5287
1664 17.7171 787.3(8) 803.3282 429.5387
1665 17.7251 765.3(8) 792.2026 429.5488
1666 17.7330 721.1(7) 754.4933 429.5587
1667 17.7410 659.2(7) 697.7797 429.5688
1668 17.7489 598.4(7) 634.6307 429.5788
1669 17.7569 544.6(6) 573.9501 429.5889
1670 17.7648 505.6(6) 524.2799 429.5989
1671 17.7728 480.5(6) 487.2960 429.6090
1672 17.7807 465.4(6) 463.6096 429.6190
1673 17.7887 459.4(6) 450.6044 429.6291
1674 17.7966 460.1(6) 446.5867 429.6390
1675 17.8046 467.2(6) 450.4814 429.6491
1676 17.8125 482.2(6) 462.7153 429.6591
1677 17.8205 507.6(6) 485.3777 429.6692
1678 17.8284 547.5(6) 519.9877 429.6792
1679 17.8363 605.5(7) 567.7175 429.6892
1680 17.8443 680.9(7) 627.6397 429.6993
1681 17.8522 767.9(7) 692.7076 429.7093
1682 17.8602 851.8(8) 755.2574 429.7194
1683 17.8681 919.8(8) 802.8838 429.7293
1684 17.8761 948.0(8) 827.5037 429.7394
1685 17.8840 933.6(8) 824.4039 429.7494
1686 17.8920 880.3(8) 796.3522 429.7595
1687 17.8999 808.3(8) 752.4409 429.7695
1688 17.9079 734.7(7) 702.1909 429.7796
1689 17.9158 672.0(7) 655.5594 429.7896
1690 17.9238 623.8(7) 616.0721 429.7997
1691 17.9317 590.6(7) 585.0422 429.8096
1692 17.9397 562.5(6) 559.3094 429.8197
1693 17.9476 537.8(6) 536.7329 429.8297
1694 17.9555 515.5(6) 515.3598 429.8397
1695 17.9635 492.9(6) 494.8441 429.8498
1696 17.9714 474.7(6) 476.5811 429.8598
1697 17.9794 460.3(6) 461.1726 429.8699
1698 17.9873 450.0(6) 449.5895 429.8799
1699 17.9953 443.1(6) 441.4516 429.8900
1700 18.0032 438.8(6) 436.3657 429.8999
1701 18.0112 436.0(6) 433.3829 429.9100
1702 18.0191 433.8(6) 431.8146 429.9200
1703 18.0271 432.6(6) 431.0298 429.9301
1704 18.0350 432.0(6) 430.6686 429.9401
1705 18.0430 431.2(6) 430.5023 429.9502
1706 18.0509 430.5(5) 430.4251 429.9601
1707 18.0589 429.9(5) 430.3841 429.9702
1708 18.0668 429.3(5) 430.3593 429.9802
1709 18.0747 429.2(5) 430.3419 429.9902
1710 18.0827 429.5(5) 430.3288 430.0003
1711 18.0906 429.0(5) 430.3192 430.0103
1712 18.0986 429.0(5) 430.3117 430.0204
1713 18.1065 429.1(5) 430.3064 430.0304
1714 18.1145 429.5(5) 430.3029 430.0405
1715 18.1224 429.9(5) 430.3011 430.0504
1716 18.1304 429.7(5) 430.2997 430.0605
1717 18.1383 429.9(5) 430.3006 430.0705
1718 18.1463 429.3(5) 430.3035 430.0806
1719 18.1542 429.1(5) 430.3066 430.0906
1720 18.1622 428.7(5) 430.3109 430.1007
1721 18.1701 428.1(5) 430.3159 430.1107
1722 18.1781 427.9(5) 430.3220 430.1208
1723 18.1860 428.2(5) 430.3288 430.1307
1724 18.1939 428.9(5) 430.3365 430.1407
1725 18.2019 429.0(5) 430.3452 430.1508
1726 18.2098 429.4(5) 430.3547 430.1608
1727 18.2178 429.9(5) 430.3653 430.1709
1728 18.2257 429.8(5) 430.3767 430.1809
1729 18.2337 430.2(5) 430.3894 430.1910
1730 18.2416 430.1(5) 430.4032 430.2010
1731 18.2496 429.9(5) 430.4189 430.2111
1732 18.2575 430.2(5) 430.4372 430.2210
1733 18.2655 430.3(5) 430.4612 430.2311
1734 18.2734 430.6(5) 430.4984 430.2411
1735 18.2814 430.8(5) 430.5695 430.2512
1736 18.2893 431.2(5) 430.7192 430.2612
1737 18.2973 431.9(5) 431.0511 430.2713
1738 18.3052 432.7(5) 431.7432 430.2812
1739 18.3131 434.2(5) 433.1078 430.2912
1740 18.3211 436.4(5) 435.6350 430.3013
1741 18.3290 440.0(5) 439.8124 430.3113
1742 18.3370 446.0(5) 446.2548 430.3214
1743 18.3449 454.9(6) 455.0092 430.3314
1744 18.3529 465.8(6) 465.9211 430.3415
1745 18.3608 478.5(6) 477.6010 430.3515
1746 18.3688 491.3(6) 488.5195 430.3616
1747 18.3767 500.0(6) 496.3358 430.3716
1748 18.3847 503.2(6) 499.5024 430.3817
1749 18.3926 499.6(6) 497.2177 430.3916
1750 18.4006 490.0(6) 490.0158 430.4017
1751 18.4085 478.1(6) 479.7576 430.4117
1752 18.4165 466.6(6) 468.4246 430.4218
1753 18.4244 457.7(5) 458.4319 430.4318
1754 18.4323 452.2(5) 451.3104 430.4417
1755 18.4403 450.4(5) 448.1911 430.4518
1756 18.4482 453.3(5) 449.8577 430.4618
1757 18.4562 462.3(6) 456.6863 430.4719
1758 18.4641 478.7(6) 468.3512 430.4819
1759 18.4721 503.0(6) 484.2091 430.4920
1760 18.4800 531.1(6) 501.9402 430.5020
1761 18.4880 562.1(6) 519.0643 430.5121
1762 18.4959 589.0(6) 531.8311 430.5221
1763 18.5039 601.1(6) 537.6907 430.5322
1764 18.5118 596.2(6) 535.1204 430.5421
1765 18.5198 575.4(6) 524.7181 430.5522
1766 18.5277 543.6(6) 509.1685 430.5622
1767 18.5357 512.2(6) 491.4882 430.5723
1768 18.5436 485.1(6) 475.4438 430.5823
1769 18.5515 467.2(5) 463.4543 430.5923
1770 18.5595 459.8(5) 457.2716 430.6024
1771 18.5674 461.4(5) 458.1273 430.6123
1772 18.5754 470.6(6) 466.5590 430.6224
1773 18.5833 488.8(6) 482.2105 430.6324
1774 18.5913 513.7(6) 504.2926 430.6425
1775 18.5992 546.4(6) 529.6913 430.6525
1776 18.6072 579.2(6) 554.9922 430.6626
1777 18.6151 606.4(6) 574.7720 430.6726
1778 18.6231 622.0(6) 585.1313 430.6827
1779 18.6310 617.4(6) 583.3750 430.6927
1780 18.6390 594.4(6) 569.8665 430.7028
1781 18.6469 560.8(6) 547.9886 430.7127
1782 18.6549 523.4(6) 521.7618 430.7228
1783 18.6628 492.6(6) 496.2800 430.7328
1784 18.6707 469.6(5) 474.4319 430.7428
1785 18.6787 454.5(5) 457.5739 430.7529
1786 18.6866 445.1(5) 446.1596 430.7629
1787 18.6946 440.0(5) 438.9730 430.7730
1788 18.7025 437.4(5) 434.9531 430.7830
1789 18.7105 436.0(5) 432.8397 430.7931
1790 18.7184 435.5(5) 431.8423 430.8030
1791 18.7264 435.1(5) 431.3921 430.8131
1792 18.7343 434.4(5) 431.2043 430.8231
1793 18.7423 433.9(5) 431.1251 430.8332
1794 18.7502 433.9(5) 431.0909 430.8432
1795 18.7582 433.6(5) 431.0738 430.8533
1796 18.7661 433.9(5) 431.0643 430.8633
1797 18.7741 434.1(5) 431.0526 430.8734
1798 18.7820 433.9(5) 431.0353 430.8694
1799 18.7899 433.5(5) 431.0152 430.8604
1800 18.7979 433.0(5) 430.9959 430.8512
1801 18.8058 432.6(5) 430.9781 430.8422
1802 18.8138 432.4(5) 430.9611 430.8330
1803 18.8217 432.2(5) 430.9453 430.8240
1804 18.8297 432.6(5) 430.9300 430.8148
1805 18.8376 432.3(5) 430.9155 430.8058
1806 18.8456 432.3(5) 430.9015 430.7967
1807 18.8535 432.7(5) 430.8882 430.7876
1808 18.8615 433.0(5) 430.8752 430.7785
1809 18.8694 433.1(5) 430.8628 430.7695
1810 18.8774 433.1(5) 430.8506 430.7603
1811 18.8853 433.0(5) 430.8390 430.7513
1812 18.8933 433.0(5) 430.8275 430.7421
1813 18.9012 433.5(5) 430.8196 430.7331
1814 18.9091 434.5(5) 430.8089 430.7241
1815 18.9171 435.4(5) 430.7984 430.7149
1816 18.9250 436.2(5) 430.7888 430.7059
1817 18.9330 437.1(5) 430.7726 430.6967
1818 18.9409 437.3(5) 430.7631 430.6877
1819 18.9489 438.3(5) 430.7537 430.6786
1820 18.9568 438.5(5) 430.7447 430.6695
1821 18.9648 438.4(5) 430.7360 430.6604
1822 18.9727 437.2(5) 430.7276 430.6514
1823 18.9807 435.8(5) 430.7195 430.6422
1824 18.9886 434.4(5) 430.7118 430.6332
1825 18.9966 433.6(5) 430.7030 430.6240
1826 19.0045 433.8(5) 430.6963 430.6150
1827 19.0125 433.6(5) 430.6904 430.6059
1828 19.0204 433.5(5) 430.6860 430.5968
1829 19.0283 433.2(5) 430.6847 430.5878
1830 19.0363 433.0(5) 430.6911 430.5786
1831 19.0442 432.8(5) 430.7154 430.5696
1832 19.0522 432.7(5) 430.7809 430.5605
1833 19.0601 433.4(5) 430.9288 430.5514
1834 19.0681 433.7(5) 431.2375 430.5423
1835 19.0760 434.5(5) 431.8101 430.5333
1836 19.0840 435.1(5) 432.7999 430.5241
1837 19.0919 436.1(5) 434.3178 430.5151
1838 19.0999 438.4(5) 436.4881 430.5059
1839 19.1078 442.0(5) 439.2281 430.4969
1840 19.1158 446.0(5) 442.4321 430.4878
1841 19.1237 450.3(5) 445.7359 430.4787
1842 19.1317 454.3(5) 448.9389 430.4696
1843 19.1396 458.4(5) 451.8317 430.4605
1844 19.1475 461.7(5) 454.5987 430.4515
1845 19.1555 466.4(5) 457.6752 430.4424
1846 19.1634 472.8(5) 461.4188 430.4333
1847 19.1714 481.0(5) 466.0801 430.4242
1848 19.1793 492.4(5) 471.1612 430.4152
1849 19.1873 503.0(5) 475.8323 430.4060
1850 19.1952 510.1(5) 478.7400 430.3970
1851 19.2032 511.0(5) 478.8737 430.3878
1852 19.2111 505.3(5) 475.8004 430.3788
1853 19.2191 494.0(5) 469.8545 430.3697
1854 19.2270 480.2(5) 462.2533 430.3606
1855 19.2350 466.2(5) 454.1300 430.3515
1856 19.2429 455.0(5) 446.8279 430.3424
1857 19.2509 446.6(5) 440.8720 430.3333
1858 19.2588 441.5(5) 436.6210 430.3243
1859 19.2667 438.6(5) 433.8327 430.3152
1860 19.2747 436.7(5) 432.1497 430.3061
1861 19.2826 435.9(5) 431.2420 430.2971
1862 19.2906 435.0(5) 430.7784 430.2879
1863 19.2985 434.2(5) 430.5612 430.2789
1864 19.3065 433.6(5) 430.4610 430.2697
1865 19.3144 433.4(5) 430.4137 430.2607
1866 19.3224 432.9(5) 430.3880 430.2516
1867 19.3303 433.1(5) 430.3714 430.2425
1868 19.3383 432.9(5) 430.3585 430.2334
1869 19.3462 433.0(5) 430.3477 430.2244
1870 19.3542 433.3(5) 430.3380 430.2152
1871 19.3621 433.4(5) 430.3296 430.2062
1872 19.3701 433.2(5) 430.3222 430.1970
1873 19.3780 433.1(5) 430.3161 430.1880
1874 19.3859 433.1(5) 430.3116 430.1790
1875 19.3939 433.0(5) 430.3097 430.1698
1876 19.4018 433.2(5) 430.3138 430.1608
1877 19.4098 432.8(5) 430.3327 430.1516
1878 19.4177 432.6(5) 430.3869 430.1426
1879 19.4257 432.5(5) 430.5255 430.1335
1880 19.4336 432.6(5) 430.8392 430.1244
1881 19.4416 432.9(5) 431.5060 430.1153
1882 19.4495 433.9(5) 432.7750 430.1063
1883 19.4575 435.0(5) 435.0381 430.0971
1884 19.4654 437.6(5) 438.6193 430.0881
1885 19.4734 442.1(5) 443.8869 430.0789
1886 19.4813 450.4(5) 450.6863 430.0699
1887 19.4893 463.2(5) 458.6863 430.0608
1888 19.4972 478.7(5) 466.6757 430.0517
1889 19.5051 493.4(5) 473.3863 430.0427
1890 19.5131 501.7(5) 477.4822 430.0335
1891 19.5210 501.7(5) 477.9368 430.0245
1892 19.5290 491.8(5) 474.6550 430.0154
1893 19.5369 476.4(5) 468.4639 430.0063
1894 19.5449 461.8(5) 460.5444 429.9972
1895 19.5528 450.0(5) 452.5155 429.9882
1896 19.5608 442.1(5) 445.3118 429.9790
1897 19.5687 437.9(5) 439.7453 429.9700
1898 19.5767 435.4(5) 435.8309 429.9608
1899 19.5846 434.2(5) 433.5055 429.9518
1900 19.5926 434.2(5) 432.4589 429.9427
1901 19.6005 435.1(5) 432.5624 429.9336
1902 19.6085 436.4(5) 433.8548 429.9245
1903 19.6164 438.1(5) 436.5280 429.9154
1904 19.6243 441.2(5) 440.8939 429.9064
1905 19.6323 447.7(5) 447.2387 429.8973
1906 19.6402 458.6(5) 455.2641 429.8882
1907 19.6482 475.8(5) 464.5173 429.8791
1908 19.6561 494.6(5) 473.6444 429.8701
1909 19.6641 513.4(5) 481.5304 429.8609
1910 19.6720 525.3(5) 486.9445 429.8519
1911 19.6800 527.3(5) 489.8148 429.8427
1912 19.6879 520.5(5) 490.9524 429.8337
1913 19.6959 510.5(5) 492.1416 429.8246
1914 19.7038 503.9(5) 495.1723 429.8155
1915 19.7118 501.4(5) 501.1690 429.8064
1916 19.7197 506.4(5) 509.5865 429.7973
1917 19.7277 511.9(5) 518.7128 429.7882
1918 19.7356 516.6(5) 525.5241 429.7792
1919 19.7435 520.4(5) 527.5049 429.7701
1920 19.7515 517.2(5) 523.1251 429.7610
1921 19.7594 509.5(5) 512.8410 429.7520
1922 19.7674 499.1(5) 498.3550 429.7428
1923 19.7753 486.6(5) 482.7581 429.7338
1924 19.7833 476.8(5) 468.2858 429.7246
1925 19.7912 470.4(5) 457.1228 429.7156
1926 19.7992 466.3(5) 449.7664 429.7065
1927 19.8071 465.4(5) 446.2186 429.6974
1928 19.8151 467.1(5) 445.5403 429.6883
1929 19.8230 468.8(5) 446.5881 429.6793
1930 19.8310 470.0(5) 448.1746 429.6701
1931 19.8389 470.2(5) 449.2625 429.6611
1932 19.8469 468.5(5) 449.2548 429.6519
1933 19.8548 465.4(5) 448.0330 429.6429
1934 19.8628 461.2(5) 445.9583 429.6338
1935 19.8707 457.6(5) 443.8973 429.6247
1936 19.8786 454.6(5) 442.9685 429.6157
1937 19.8866 454.6(5) 444.6422 429.6065
1938 19.8945 458.4(5) 450.5669 429.5975
1939 19.9025 468.7(5) 462.7128 429.5883
1940 19.9104 486.9(5) 482.2791 429.5793
1941 19.9184 517.2(5) 510.2955 429.5702
1942 19.9263 558.5(5) 544.8352 429.5612
1943 19.9343 605.7(5) 583.2019 429.5520
1944 19.9422 658.1(6) 618.8818 429.5430
1945 19.9502 700.8(6) 646.1845 429.5338
1946 19.9581 719.7(6) 658.8929 429.5248
1947 19.9661 711.1(6) 654.5777 429.5133
1948 19.9740 674.9(6) 634.4124 429.4421
1949 19.9820 624.9(5) 602.4315 429.3701
1950 19.9899 573.5(5) 565.5033 429.2989
1951 19.9978 529.3(5) 529.1202 429.2277
1952 20.0058 495.3(5) 497.1871 429.1557
1953 20.0137 475.6(5) 472.6318 429.0845
1954 20.0217 463.0(5) 455.0468 429.0125
1955 20.0296 456.0(5) 443.8448 428.9413
1956 20.0376 453.0(5) 437.2480 428.8692
1957 20.0455 452.0(5) 434.1027 428.7981
1958 20.0535 452.1(5) 433.5106 428.7260
1959 20.0614 453.4(5) 435.3382 428.6548
1960 20.0694 456.6(5) 440.1371 428.5828
1961 20.0773 461.3(5) 448.7500 428.5116
1962 20.0853 469.9(5) 462.4853 428.4395
1963 20.0932 482.3(5) 481.5821 428.3684
1964 20.1012 501.5(5) 505.9547 428.2963
1965 20.1091 528.0(5) 532.8091 428.2251
1966 20.1170 557.7(5) 558.6481 428.1540
1967 20.1250 586.3(5) 579.0333 428.0819
1968 20.1329 603.3(5) 589.2061 428.0107
1969 20.1409 603.7(5) 587.0366 427.9387
1970 20.1488 588.5(5) 573.0598 427.8675
1971 20.1568 559.7(5) 550.0899 427.7955
1972 20.1647 527.4(4) 523.2585 427.7243
1973 20.1727 498.2(4) 496.4768 427.6522
1974 20.1806 476.3(4) 473.7343 427.5811
1975 20.1886 462.2(4) 456.0701 427.5090
1976 20.1965 453.3(4) 444.0092 427.4378
1977 20.2045 447.6(4) 436.3307 427.3658
1978 20.2124 444.9(4) 431.9734 427.2946
1979 20.2204 442.4(4) 429.6462 427.2226
1980 20.2283 440.6(4) 428.5411 427.1514
1981 20.2362 439.4(4) 428.0805 427.0802
1982 20.2442 438.7(4) 427.9805 427.0082
1983 20.2521 438.8(4) 428.1358 426.9370
1984 20.2601 439.8(4) 428.5732 426.8649
1985 20.2680 441.6(4) 429.4227 426.7938
1986 20.2760 444.2(4) 430.9932 426.7217
1987 20.2839 447.2(4) 433.6893 426.6505
1988 20.2919 451.9(4) 438.1787 426.5785
1989 20.2998 457.8(4) 444.9748 426.5073
1990 20.3078 466.5(4) 454.6982 426.4352
1991 20.3157 476.6(4) 467.0620 426.3641
1992 20.3237 489.7(4) 481.5539 426.2920
1993 20.3316 503.5(4) 496.1535 426.2209
1994 20.3396 515.3(4) 508.8993 426.1488
1995 20.3475 524.3(4) 517.1069 426.0776
1996 20.3554 527.0(4) 519.2411 426.0065
1997 20.3634 521.8(4) 514.6965 425.9344
1998 20.3713 510.8(4) 504.4810 425.8633
1999 20.3793 494.3(4) 490.3772 425.7912
2000 20.3872 478.0(4) 475.1855 425.7200
2001 20.3952 463.6(4) 460.7447 425.6479
2002 20.4031 452.2(4) 448.8730 425.5768
2003 20.4111 444.8(4) 439.8520 425.5047
2004 20.4190 440.9(4) 433.7791 425.4336
2005 20.4270 438.6(4) 429.9408 425.3615
2006 20.4349 437.7(4) 427.7610 425.2903
2007 20.4429 438.2(4) 426.5797 425.2183
2008 20.4508 438.6(4) 425.9907 425.1471
2009 20.4588 439.9(4) 425.7018 425.0751
2010 20.4667 441.7(4) 425.5772 425.0039
2011 20.4746 444.5(4) 425.5666 424.9327
2012 20.4826 448.5(4) 425.7161 424.8607
2013 20.4905 453.2(4) 426.1858 424.7895
2014 20.4985 459.4(4) 427.3542 424.7174
2015 20.5064 466.7(4) 429.8645 424.6463
2016 20.5144 475.9(4) 434.9034 424.5742
2017 20.5223 487.7(4) 443.9037 424.5031
2018 20.5303 502.6(4) 458.9503 424.4310
2019 20.5382 520.4(4) 481.2456 424.3598
2020 20.5462 542.5(4) 511.8451 424.2878
2021 20.5541 567.9(5) 548.4906 424.2166
2022 20.5621 591.5(5) 588.0474 424.1445
2023 20.5700 612.9(5) 623.4083 424.0734
2024 20.5780 625.4(5) 648.4963 424.0013
2025 20.5859 628.2(5) 657.2118 423.9301
2026 20.5938 618.8(5) 647.8849 423.8590
2027 20.6018 601.8(5) 622.2471 423.7869
2028 20.6097 578.6(5) 586.5007 423.7158
2029 20.6177 554.2(4) 546.7241 423.6437
2030 20.6256 531.3(4) 510.0724 423.5725
2031 20.6336 511.7(4) 479.6998 423.5005
2032 20.6415 497.4(4) 457.9274 423.4293
2033 20.6495 486.3(4) 443.8690 423.3572
2034 20.6574 479.1(4) 436.5580 423.2861
2035 20.6654 474.3(4) 434.2987 423.2140
2036 20.6733 473.0(4) 435.9109 423.1429
2037 20.6813 473.1(4) 440.4585 423.0708
2038 20.6892 475.1(4) 446.9272 422.9996
2039 20.6972 478.1(4) 454.3824 422.9276
2040 20.7051 480.8(4) 461.2994 422.8564
2041 20.7130 482.0(4) 466.3642 422.7852
2042 20.7210 481.5(4) 468.4304 422.7132
2043 20.7289 478.5(4) 466.9380 422.6420
2044 20.7369 474.0(4) 462.1976 422.5699
2045 20.7448 468.0(4) 455.3840 422.4988
2046 20.7528 461.0(4) 447.7375 422.4267
2047 20.7607 454.9(4) 440.7606 422.3555
2048 20.7687 449.9(4) 435.2465 422.2835
2049 20.7766 446.2(4) 431.8305 422.2123
2050 20.7846 444.1(4) 430.5323 422.1403
2051 20.7925 443.6(4) 431.2119 422.0691
2052 20.8005 444.3(4) 433.5366 421.9970
2053 20.8084 445.9(4) 436.9969 421.9259
2054 20.8164 448.3(4) 441.1965 421.8538
2055 20.8243 451.3(4) 445.6176 421.7826
2056 20.8322 454.7(4) 450.0926 421.7115
2057 20.8402 458.6(4) 454.7313 421.6394
2058 20.8481 463.3(4) 459.6555 421.5682
2059 20.8561 471.0(4) 465.1687 421.4962
2060 20.8640 481.5(4) 470.9260 421.4250
2061 20.8720 493.8(4) 476.2903 421.3530
2062 20.8799 503.1(4) 479.9207 421.2818
2063 20.8879 505.3(4) 480.6568 421.2097
2064 20.8958 498.7(4) 477.7654 421.1386
2065 20.9038 484.2(4) 471.3476 421.0665
2066 20.9117 467.7(4) 462.5842 420.9954
2067 20.9197 452.2(4) 452.7506 420.9233
2068 20.9276 440.5(4) 443.5251 420.8521
2069 20.9356 432.9(4) 435.6941 420.7801
2070 20.9435 428.5(4) 429.8827 420.7089
2071 20.9514 426.0(4) 425.9183 420.6377
2072 20.9594 425.5(4) 423.4220 420.5656
2073 20.9673 425.4(4) 422.0076 420.4945
2074 20.9753 425.6(4) 421.2357 420.4224
2075 20.9832 425.4(4) 420.8374 420.3513
2076 20.9912 425.2(4) 420.6202 420.2792
2077 20.9991 424.6(4) 420.4914 420.2080
2078 21.0071 424.4(4) 420.3986 420.1360
2079 21.0150 424.4(4) 420.3232 420.0648
2080 21.0230 424.7(4) 420.2516 419.9927
2081 21.0309 425.6(4) 420.1907 419.9216
2082 21.0389 426.0(4) 420.1386 419.8495
2083 21.0468 427.2(4) 420.1050 419.7784
2084 21.0548 428.2(4) 420.1173 419.7063
2085 21.0627 429.9(4) 420.2421 419.6351
2086 21.0706 432.5(4) 420.6278 419.5640
2087 21.0786 435.5(4) 421.5910 419.4919
2088 21.0865 439.4(4) 423.6537 419.4207
2089 21.0945 444.7(4) 427.7476 419.3487
2090 21.1024 451.2(4) 434.9457 419.2775
2091 21.1104 458.8(4) 446.7408 419.2055
2092 21.1183 468.2(4) 463.8087 419.1343
2093 21.1263 480.1(4) 486.5994 419.0622
2094 21.1342 493.0(4) 512.9965 418.9911
2095 21.1422 505.1(4) 540.3402 418.9190
2096 21.1501 515.9(4) 563.3523 418.8478
2097 21.1581 521.2(4) 577.8577 418.7896
2098 21.1660 521.2(4) 580.2408 418.7573
2099 21.1740 515.5(4) 569.9520 418.7246
2100 21.1819 505.1(4) 549.6055 418.6923
2101 21.1898 493.0(4) 523.4490 418.6600
2102 21.1978 479.8(4) 495.8940 418.6273
2103 21.2057 467.9(4) 471.5103 418.5950
2104 21.2137 458.6(4) 451.9428 418.5623
2105 21.2216 451.2(4) 438.1972 418.5300
2106 21.2296 444.5(4) 429.2415 418.4973
2107 21.2375 439.3(4) 424.0839 418.4650
2108 21.2455 435.0(4) 421.3391 418.4323
2109 21.2534 431.9(4) 420.1234 418.4001
2110 21.2614 429.8(4) 419.7850 418.3673
2111 21.2693 428.4(4) 420.0031 418.3351
2112 21.2773 427.5(4) 420.6223 418.3024
2113 21.2852 426.7(4) 421.5318 418.2701
2114 21.2932 426.5(4) 422.6420 418.2374
2115 21.3011 426.3(4) 423.7622 418.2051
2116 21.3090 426.6(4) 424.7003 418.1728
2117 21.3170 426.5(4) 425.2580 418.1401
2118 21.3249 426.3(4) 425.2849 418.1078
2119 21.3329 425.2(4) 424.7646 418.0751
2120 21.3408 424.1(4) 423.8198 418.0428
2121 21.3488 423.2(4) 422.6219 418.0101
2122 21.3567 422.1(4) 421.4079 417.9778
2123 21.3647 420.9(4) 420.3143 417.9452
2124 21.3726 420.2(4) 419.4589 417.9129
2125 21.3806 419.2(4) 418.8383 417.8802
2126 21.3885 418.3(4) 418.4354 417.8479
2127 21.3965 418.3(4) 418.1849 417.8152
2128 21.4044 418.1(4) 418.0391 417.7829
2129 21.4124 418.5(4) 417.9507 417.7502
2130 21.4203 418.7(4) 417.8956 417.7179
2131 21.4282 418.4(4) 417.8551 417.6856
2132 21.4362 417.9(4) 417.8224 417.6529
2133 21.4441 417.7(4) 417.7940 417.6206
2134 21.4521 417.5(4) 417.7677 417.5880
2135 21.4600 417.6(4) 417.7449 417.5557
2136 21.4680 417.9(4) 417.7226 417.5229
2137 21.4759 417.9(4) 417.7032 417.4907
2138 21.4839 418.2(4) 417.6874 417.4580
2139 21.4918 418.0(4) 417.6791 417.4257
2140 21.4998 418.0(4) 417.6879 417.3930
2141 21.5077 418.2(4) 417.7393 417.3607
2142 21.5157 418.5(4) 417.9000 417.3280
2143 21.5236 419.5(4) 418.3107 417.2957
2144 21.5316 421.1(4) 419.2833 417.2630
2145 21.5395 423.4(4) 421.3317 417.2307
2146 21.5474 426.1(4) 425.3204 417.1985
2147 21.5554 431.1(4) 432.5413 417.1657
2148 21.5633 439.8(4) 444.1417 417.1335
2149 21.5713 454.8(4) 461.4881 417.1008
2150 21.5792 478.6(4) 484.2592 417.0685
2151 21.5872 508.5(4) 511.5681 417.0358
2152 21.5951 545.5(4) 539.4813 417.0035
2153 21.6031 580.9(4) 563.9733 416.9708
2154 21.6110 605.3(5) 579.5557 416.9385
2155 21.6190 611.2(5) 583.0313 416.9058
2156 21.6269 596.2(5) 573.4902 416.8735
2157 21.6349 565.4(4) 552.9553 416.8408
2158 21.6428 526.7(4) 526.3085 416.8085
2159 21.6508 490.0(4) 497.9058 416.7758
2160 21.6587 463.0(4) 472.5656 416.7436
2161 21.6666 444.0(4) 452.3039 416.7113
2162 21.6746 432.6(4) 437.5984 416.6786
2163 21.6825 425.9(4) 428.1871 416.6463
2164 21.6905 422.6(4) 422.5587 416.6136
2165 21.6984 420.6(4) 419.5503 416.5813
2166 21.7064 418.9(4) 418.0242 416.5486
2167 21.7143 417.8(4) 417.3150 416.5163
2168 21.7223 417.5(4) 416.9860 416.4836
2169 21.7302 416.9(4) 416.8318 416.4513
2170 21.7382 417.0(4) 416.7470 416.4186
2171 21.7461 416.6(4) 416.6923 416.3864
2172 21.7541 416.4(4) 416.6509 416.3536
2173 21.7620 417.0(4) 416.6215 416.3214
2174 21.7700 417.5(4) 416.6093 416.2887
2175 21.7779 418.1(4) 416.6362 416.2564
2176 21.7858 418.4(4) 416.7516 416.2241
2177 21.7938 419.2(4) 417.0693 416.1914
2178 21.8017 420.7(4) 417.7856 416.1591
2179 21.8097 423.2(4) 419.2633 416.1264
2180 21.8176 426.5(4) 421.9670 416.0941
2181 21.8256 429.9(4) 426.5902 416.0614
2182 21.8335 434.4(4) 433.6044 416.0291
2183 21.8415 440.1(4) 443.4957 415.9964
2184 21.8494 447.2(4) 455.7469 415.9641
2185 21.8574 456.7(4) 469.5956 415.9315
2186 21.8653 467.1(4) 482.8854 415.8992
2187 21.8733 478.4(4) 493.7390 415.8665
2188 21.8812 487.0(4) 499.9409 415.8342
2189 21.8892 491.7(4) 500.6313 415.8015
2190 21.8971 492.4(4) 496.1170 415.7692
2191 21.9051 488.5(4) 487.8219 415.7365
2192 21.9130 481.5(4) 478.0773 415.7042
2193 21.9209 472.5(4) 468.7781 415.6719
2194 21.9289 464.6(4) 461.0956 415.6392
2195 21.9368 458.9(4) 455.5041 415.6069
2196 21.9448 454.7(4) 451.3202 415.5742
2197 21.9527 452.0(4) 447.7393 415.5420
2198 21.9607 447.9(4) 443.8800 415.5092
2199 21.9686 443.3(4) 439.5100 415.4770
2200 21.9766 437.9(4) 434.6830 415.4443
2201 21.9845 432.9(4) 429.9915 415.4120
2202 21.9925 428.4(4) 425.8624 415.3793
2203 22.0004 424.9(4) 422.8265 415.3470
2204 22.0084 423.0(4) 421.0830 415.3143
2205 22.0163 422.1(4) 420.8545 415.2820
2206 22.0243 423.1(4) 422.3427 415.2493
2207 22.0322 425.2(4) 425.8197 415.2170
2208 22.0401 429.3(4) 431.6729 415.1848
2209 22.0481 435.4(4) 440.3074 415.1520
2210 22.0560 442.7(4) 451.4026 415.1198
2211 22.0640 451.8(4) 464.4352 415.0871
2212 22.0719 462.0(4) 477.4946 415.0548
2213 22.0799 471.0(4) 488.6962 415.0221
2214 22.0878 476.9(4) 495.5426 414.9898
2215 22.0958 478.4(4) 496.6806 414.9571
2216 22.1037 475.0(4) 491.8935 414.9248
2217 22.1117 467.0(4) 482.3105 414.8921
2218 22.1196 457.9(4) 470.3116 414.8598
2219 22.1276 449.6(4) 457.9118 414.8271
2220 22.1355 443.7(4) 447.1607 414.7948
2221 22.1434 440.5(4) 438.7701 414.7625
2222 22.1514 438.3(4) 432.7865 414.7299
2223 22.1593 436.6(4) 429.0565 414.6976
2224 22.1673 435.8(4) 427.2208 414.6649
2225 22.1752 435.8(4) 427.4363 414.6326
2226 22.1832 438.0(4) 430.3240 414.5999
2227 22.1911 444.0(4) 436.7956 414.5676
2228 22.1991 453.5(4) 448.0827 414.5349
2229 22.2070 468.8(4) 464.5134 414.5026
2230 22.2150 489.5(4) 486.1401 414.4699
2231 22.2229 513.0(4) 510.7119 414.4376
2232 22.2309 536.7(4) 535.7064 414.4049
2233 22.2388 555.6(4) 556.5668 414.3727
2234 22.2468 564.5(4) 569.9488 414.3399
2235 22.2547 562.0(4) 573.0219 414.3076
2236 22.2627 548.2(4) 565.4612 414.2750
2237 22.2706 528.3(4) 549.2433 414.2427
2238 22.2785 507.5(4) 527.6539 414.2104
2239 22.2865 489.2(4) 504.1785 414.1777
2240 22.2944 474.5(4) 482.6129 414.1454
2241 22.3024 463.0(4) 464.3564 414.1127
2242 22.3103 453.9(4) 450.4637 414.0804
2243 22.3183 447.1(4) 440.1971 414.0477
2244 22.3262 440.9(4) 433.0172 414.0154
2245 22.3342 436.2(4) 427.9711 413.9827
2246 22.3421 432.2(4) 424.6731 413.9504
2247 22.3501 429.8(4) 422.7717 413.9145
2248 22.3580 428.8(4) 422.1788 413.8772
2249 22.3660 428.2(4) 422.7134 413.8395
2250 22.3739 427.7(4) 424.0638 413.8022
2251 22.3819 427.1(4) 425.8049 413.7645
2252 22.3898 426.1(4) 427.3543 413.7273
2253 22.3977 425.7(4) 428.2458 413.6900
2254 22.4057 425.8(4) 428.1775 413.6523
2255 22.4136 425.6(4) 427.1645 413.6151
2256 22.4216 424.8(4) 425.5321 413.5773
2257 22.4295 423.7(4) 423.9323 413.5401
2258 22.4375 423.5(4) 423.1178 413.5023
2259 22.4454 424.8(4) 423.9537 413.4651
2260 22.4534 427.7(4) 427.2795 413.4274
2261 22.4613 432.9(4) 433.6105 413.3901
2262 22.4693 440.8(4) 443.2591 413.3524
2263 22.4772 451.7(4) 455.4213 413.3152
2264 22.4852 465.4(4) 468.9465 413.2774
2265 22.4931 477.8(4) 481.2929 413.2402
2266 22.5011 487.3(4) 490.2743 413.2025
2267 22.5090 491.5(4) 493.6478 413.1652
2268 22.5169 488.0(4) 490.7349 413.1280
2269 22.5249 479.0(4) 482.0656 413.0902
2270 22.5328 465.3(4) 469.7612 413.0530
2271 22.5408 451.8(4) 455.9611 413.0152
2272 22.5487 440.0(4) 443.1702 412.9780
2273 22.5567 431.2(4) 432.5027 412.9403
2274 22.5646 424.7(4) 424.7520 412.9030
2275 22.5726 420.5(4) 419.5492 412.8653
2276 22.5805 417.9(4) 416.4795 412.8280
2277 22.5885 416.1(4) 414.8510 412.7903
2278 22.5964 415.7(4) 414.2444 412.7531
2279 22.6044 415.5(4) 414.4240 412.7153
2280 22.6123 416.8(4) 415.4335 412.6781
2281 22.6203 419.1(4) 417.5900 412.6404
2282 22.6282 422.6(4) 421.2914 412.6031
2283 22.6361 429.4(4) 427.0219 412.5659
2284 22.6441 438.6(4) 435.1609 412.5281
2285 22.6520 451.9(4) 445.3104 412.4909
2286 22.6600 468.4(4) 456.8561 412.4532
2287 22.6679 485.0(4) 467.9946 412.4159
2288 22.6759 500.8(4) 477.0625 412.3782
2289 22.6838 511.4(4) 482.0576 412.3409
2290 22.6918 512.2(4) 482.0188 412.3032
2291 22.6997 505.6(4) 476.9906 412.2660
2292 22.7077 490.3(4) 468.0185 412.2282
2293 22.7156 474.5(4) 457.2115 412.1910
2294 22.7236 458.8(4) 446.3427 412.1533
2295 22.7315 448.5(4) 437.3351 412.1160
2296 22.7395 442.4(4) 430.9684 412.0783
2297 22.7474 441.3(4) 427.7251 412.0410
2298 22.7553 443.2(4) 427.3438 412.0038
2299 22.7633 447.9(4) 429.4625 411.9661
2300 22.7712 455.2(4) 433.6013 411.9288
2301 22.7792 464.3(4) 439.5538 411.8911
2302 22.7871 475.1(4) 447.0412 411.8538
2303 22.7951 487.1(4) 456.2440 411.8161
2304 22.8030 500.6(4) 466.8896 411.7789
2305 22.8110 514.5(4) 478.9257 411.7411
2306 22.8189 528.8(4) 491.2338 411.7039
2307 22.8269 541.3(4) 502.7043 411.6662
2308 22.8348 550.1(4) 511.1633 411.6289
2309 22.8428 554.1(4) 514.8607 411.5912
2310 22.8507 549.7(4) 512.3762 411.5539
2311 22.8587 538.4(4) 503.5446 411.5162
2312 22.8666 521.4(4) 489.8931 411.4789
2313 22.8745 501.6(4) 473.6191 411.4417
2314 22.8825 483.0(4) 457.0200 411.4040
2315 22.8904 467.9(4) 442.5470 411.3667
2316 22.8984 453.5(4) 431.0050 411.3290
2317 22.9063 443.7(4) 422.9112 411.2917
2318 22.9143 435.1(4) 417.6260 411.2540
2319 22.9222 429.9(4) 414.5539 411.2168
2320 22.9302 425.3(4) 412.8661 411.1790
2321 22.9381 422.0(4) 412.0243 411.1418
2322 22.9461 418.8(4) 411.6112 411.1041
2323 22.9540 416.3(4) 411.4135 411.0668
2324 22.9620 414.7(4) 411.3063 411.0291
2325 22.9699 413.4(4) 411.2391 410.9919
2326 22.9779 412.8(4) 411.1870 410.9541
2327 22.9858 412.1(4) 411.1425 410.9169
2328 22.9937 412.0(4) 411.1026 410.8796
2329 23.0017 411.9(4) 411.0649 410.8419
2330 23.0096 412.0(4) 411.0314 410.8047
2331 23.0176 412.2(4) 411.0035 410.7669
2332 23.0255 412.1(4) 410.9899 410.7297
2333 23.0335 412.0(4) 411.0089 410.6920
2334 23.0414 412.1(4) 411.1041 410.6547
2335 23.0494 412.5(4) 411.3732 410.6170
2336 23.0573 413.2(4) 411.9873 410.5797
2337 23.0653 414.3(4) 413.2661 410.5420
2338 23.0732 416.0(4) 415.6134 410.5048
2339 23.0812 418.2(4) 419.6296 410.4670
2340 23.0891 421.2(4) 425.7153 410.4298
2341 23.0971 426.2(4) 434.2817 410.3921
2342 23.1050 435.0(4) 444.8968 410.3548
2343 23.1129 446.2(4) 456.8489 410.3175
2344 23.1209 460.7(4) 469.0105 410.2798
2345 23.1288 473.6(4) 479.6800 410.2426
2346 23.1368 484.2(4) 488.0803 410.2048
2347 23.1447 488.6(4) 493.7026 410.1676
2348 23.1527 490.2(4) 497.1078 410.1299
2349 23.1606 489.8(4) 498.8490 410.0926
2350 23.1686 490.0(4) 499.2527 410.0549
2351 23.1765 490.3(4) 497.9403 410.0176
2352 23.1845 488.7(4) 494.0549 409.9799
2353 23.1924 484.4(4) 487.0242 409.9427
2354 23.2004 475.0(4) 476.7330 409.9049
2355 23.2083 463.1(4) 464.3889 409.8677
2356 23.2163 450.1(4) 451.2361 409.8300
2357 23.2242 437.7(4) 439.1655 409.7927
2358 23.2321 428.4(4) 429.1328 409.7555
2359 23.2401 421.6(4) 421.5347 409.7177
2360 23.2480 418.0(4) 416.4533 409.6805
2361 23.2560 415.6(4) 413.2747 409.6428
2362 23.2639 414.2(4) 411.4977 409.6055
2363 23.2719 412.4(4) 410.5529 409.5678
2364 23.2798 412.3(4) 410.0899 409.5305
2365 23.2878 412.3(4) 409.8616 409.4928
2366 23.2957 412.3(4) 409.7444 409.4556
2367 23.3037 412.2(4) 409.6716 409.4178
2368 23.3116 411.3(4) 409.6206 409.3806
2369 23.3196 411.6(4) 409.5775 409.3429
2370 23.3275 411.9(4) 409.5382 409.3056
2371 23.3355 412.4(4) 409.5029 409.2679
2372 23.3434 413.1(4) 409.4710 409.2307
2373 23.3513 413.5(4) 409.4428 409.1934
2374 23.3593 413.9(4) 409.4192 409.1557
2375 23.3672 414.8(4) 409.4058 409.1184
2376 23.3752 415.8(4) 409.4148 409.0807
2377 23.3831 417.0(4) 409.4780 409.0434
2378 23.3911 418.2(4) 409.6649 409.0057
2379 23.3990 420.1(4) 410.1084 408.9684
2380 23.4070 422.6(4) 411.0691 408.9307
2381 23.4149 426.3(4) 412.9090 408.8935
2382 23.4229 431.5(4) 416.2086 408.8558
2383 23.4308 437.9(4) 421.4834 408.8185
2384 23.4388 446.8(4) 429.4023 408.7808
2385 23.4467 458.1(4) 440.0386 408.7435
2386 23.4547 472.1(4) 453.5811 408.7058
2387 23.4626 487.9(4) 469.2827 408.6685
2388 23.4705 505.9(4) 486.8060 408.6313
2389 23.4785 525.2(4) 506.0629 408.5936
2390 23.4864 547.6(4) 526.4561 408.5563
2391 23.4944 574.0(4) 548.2667 408.5186
2392 23.5023 603.4(4) 569.9440 408.4814
2393 23.5103 627.5(4) 589.6255 408.4436
2394 23.5182 643.7(5) 603.2237 408.4064
2395 23.5262 647.0(5) 607.2184 408.3687
2396 23.5341 635.0(5) 599.1083 408.3314
2397 23.5421 611.1(4) 579.1046 408.4013
2398 23.5500 576.3(4) 550.7556 408.4745
2399 23.5580 543.1(4) 518.2228 408.5486
2400 23.5659 513.3(4) 487.2147 408.6218
2401 23.5739 486.9(4) 460.5923 408.6959
2402 23.5818 466.6(4) 440.6929 408.7691
2403 23.5897 452.4(4) 427.0949 408.8423
2404 23.5977 441.6(4) 418.5912 408.9164
2405 23.6056 434.9(4) 413.8806 408.9896
2406 23.6136 428.7(4) 411.4457 409.0637
2407 23.6215 424.5(4) 410.3340 409.1369
2408 23.6295 420.5(4) 409.8697 409.2110
2409 23.6374 418.3(4) 409.7123 409.2842
2410 23.6454 416.4(4) 409.6822 409.3583
2411 23.6533 415.6(4) 409.7037 409.4315
2412 23.6613 415.2(4) 409.7458 409.5056
2413 23.6692 414.1(4) 409.7961 409.5788
2414 23.6772 413.5(4) 409.8514 409.6530
2415 23.6851 413.0(4) 409.9090 409.7261
2416 23.6931 413.1(4) 409.9695 409.8002
2417 23.7010 412.6(4) 410.0310 409.8734
2418 23.7089 412.3(4) 410.0939 409.9466
2419 23.7169 411.7(4) 410.1595 410.0207
2420 23.7248 411.9(4) 410.2249 410.0939
2421 23.7328 411.6(4) 410.2919 410.1680
2422 23.7407 411.8(4) 410.3584 410.2412
2423 23.7487 411.6(4) 410.4270 410.3153
2424 23.7566 412.0(4) 410.4949 410.3885
2425 23.7646 411.7(4) 410.5647 410.4626
2426 23.7725 411.2(4) 410.6342 410.5358
2427 23.7805 410.9(4) 410.7051 410.6100
2428 23.7884 410.6(4) 410.7761 410.6831
2429 23.7964 410.8(4) 410.8478 410.7573
2430 23.8043 410.5(4) 410.9190 410.8304
2431 23.8123 410.5(4) 410.9915 410.9046
2432 23.8202 410.6(4) 411.0633 410.9778
2433 23.8281 410.7(4) 411.1355 411.0509
2434 23.8361 410.3(4) 411.2088 411.1251
2435 23.8440 410.5(4) 411.2816 411.1982
2436 23.8520 410.6(4) 411.3557 411.2723
2437 23.8599 410.9(4) 411.4293 411.3456
2438 23.8679 410.6(4) 411.5038 411.4197
2439 23.8758 410.7(4) 411.5800 411.4929
2440 23.8838 410.9(4) 411.6559 411.5670
2441 23.8917 411.4(4) 411.7313 411.6402
2442 23.8997 411.1(4) 411.8083 411.7143
2443 23.9076 411.1(4) 411.8875 411.7875
2444 23.9156 411.5(4) 411.9673 411.8616
2445 23.9235 411.6(4) 412.0500 411.9348
2446 23.9315 411.9(4) 412.1445 412.0089
2447 23.9394 411.6(4) 412.2613 412.0821
2448 23.9473 412.7(4) 412.4353 412.1552
2449 23.9553 414.2(4) 412.7392 412.2294
2450 23.9632 416.3(4) 413.2910 412.3026
2451 23.9712 419.0(4) 414.3104 412.3767
2452 23.9791 422.5(4) 416.0490 412.4499
2453 23.9871 427.2(4) 418.8670 412.5240
2454 23.9950 432.4(4) 422.9294 412.5972
2455 24.0030 438.5(4) 428.3500 412.6713
2456 24.0109 445.8(4) 434.6367 412.7445
2457 24.0189 451.4(4) 441.1617 412.8186
2458 24.0268 456.4(4) 446.6999 412.8918
2459 24.0348 457.1(4) 450.3170 412.9659
2460 24.0427 455.5(4) 451.2557 413.0391
2461 24.0507 452.2(4) 449.5515 413.1132
2462 24.0586 447.4(4) 445.9480 413.1864
2463 24.0665 443.0(4) 441.5213 413.2596
2464 24.0745 438.6(4) 437.2678 413.3337
2465 24.0824 435.2(4) 433.9558 413.4069
2466 24.0904 432.5(4) 431.6305 413.4810
2467 24.0983 430.2(4) 430.0368 413.5542
2468 24.1063 428.5(4) 428.6269 413.6283
2469 24.1142 426.6(4) 427.0287 413.7015
2470 24.1222 424.1(4) 425.0495 413.7756
2471 24.1301 421.6(4) 422.8464 413.8488
2472 24.1381 418.8(4) 420.6238 413.9229
2473 24.1460 416.8(4) 418.7087 413.9961
2474 24.1540 415.6(4) 417.2589 414.0702
2475 24.1619 415.2(4) 416.4307 414.1434
2476 24.1699 415.4(4) 416.2904 414.2175
2477 24.1778 416.0(4) 416.9570 414.2907
2478 24.1857 417.8(4) 418.6056 414.3639
2479 24.1937 420.6(4) 421.4995 414.4380
2480 24.2016 425.6(4) 425.7191 414.5112
2481 24.2096 432.5(4) 431.2955 414.5853
2482 24.2175 441.3(4) 437.6398 414.6585
2483 24.2255 449.6(4) 444.0602 414.7326
2484 24.2334 455.6(4) 449.3289 414.8058
2485 24.2414 459.1(4) 452.6045 414.8799
2486 24.2493 459.2(4) 453.3767 414.9531
2487 24.2573 456.4(4) 452.0593 415.0272
2488 24.2652 452.2(4) 449.8673 415.1004
2489 24.2732 448.8(4) 448.3736 415.1745
2490 24.2811 448.4(4) 449.0690 415.2477
2491 24.2891 451.1(4) 452.7358 415.3218
2492 24.2970 455.8(4) 458.9799 415.3950
2493 24.3050 462.1(4) 466.5883 415.4691
2494 24.3129 467.7(4) 473.3750 415.5423
2495 24.3208 471.0(4) 477.4891 415.6155
2496 24.3288 470.9(4) 477.7323 415.6896
2497 24.3367 467.5(4) 474.1776 415.7628
2498 24.3447 463.2(4) 468.0678 415.8369
2499 24.3526 458.8(4) 461.5615 415.9101
2500 24.3606 456.2(4) 456.5098 415.9843
2501 24.3685 456.4(4) 454.3815 416.0574
2502 24.3765 459.2(4) 455.5088 416.1315
2503 24.3844 465.6(4) 459.2734 416.2047
2504 24.3924 472.1(4) 464.4357 416.2789
2505 24.4003 478.3(4) 469.2112 416.3520
2506 24.4083 480.8(4) 472.1230 416.4261
2507 24.4162 479.6(4) 471.9683 416.4994
2508 24.4242 473.5(4) 468.3458 416.5735
2509 24.4321 463.9(4) 461.7968 416.6467
2510 24.4400 452.7(4) 453.3978 416.7198
2511 24.4480 443.0(4) 444.3967 416.7939
2512 24.4559 434.4(4) 436.2346 416.8672
2513 24.4639 427.5(4) 429.5060 416.9413
2514 24.4718 423.1(4) 424.6568 417.0144
2515 24.4798 420.4(4) 421.4351 417.0886
2516 24.4877 418.9(4) 419.5748 417.1617
2517 24.4957 418.5(4) 418.6445 417.2359
2518 24.5036 418.1(4) 418.3842 417.3091
2519 24.5116 418.1(4) 418.6584 417.3832
2520 24.5195 418.3(4) 419.5054 417.4564
2521 24.5275 418.5(4) 421.1479 417.5305
2522 24.5354 419.5(4) 423.8389 417.6037
2523 24.5434 422.8(4) 427.9369 417.6778
2524 24.5513 428.1(4) 433.4510 417.7510
2525 24.5592 435.9(4) 440.1881 417.8242
2526 24.5672 444.5(4) 447.5470 417.8983
2527 24.5751 452.6(4) 454.2318 417.9715
2528 24.5831 457.6(4) 459.1002 418.0456
2529 24.5910 457.8(4) 460.9728 418.1188
2530 24.5990 453.9(4) 459.4392 418.1929
2531 24.6069 447.2(4) 454.9059 418.2661
2532 24.6149 439.2(4) 448.3024 418.3402
2533 24.6228 431.8(4) 441.1008 418.4134
2534 24.6308 426.3(4) 434.3036 418.4875
2535 24.6387 422.9(4) 428.8325 418.5607
2536 24.6467 421.5(4) 424.8310 418.6348
2537 24.6546 421.5(4) 422.3073 418.7080
2538 24.6626 422.6(4) 420.9276 418.7821
2539 24.6705 425.1(4) 420.4666 418.8553
2540 24.6784 428.0(4) 420.7690 418.9285
2541 24.6864 431.6(4) 421.8890 419.0026
2542 24.6943 436.9(4) 423.9750 419.0758
2543 24.7023 442.5(4) 427.3014 419.1499
2544 24.7102 450.1(4) 431.8920 419.2231
2545 24.7182 459.2(4) 437.6857 419.2972
2546 24.7261 467.1(4) 443.9485 419.3462
2547 24.7341 474.0(4) 449.8772 419.3324
2548 24.7420 477.7(4) 454.3692 419.3188
2549 24.7500 477.6(4) 456.7701 419.3051
2550 24.7579 475.3(4) 456.8975 419.2914
2551 24.7659 470.1(4) 455.4245 419.2776
2552 24.7738 465.8(4) 453.6152 419.2641
2553 24.7818 464.0(4) 452.7537 419.2503
2554 24.7897 465.0(4) 453.7126 419.2367
2555 24.7976 468.6(4) 456.5032 419.2231
2556 24.8056 473.8(4) 460.3647 419.2093
2557 24.8135 478.2(4) 463.8525 419.1957
2558 24.8215 480.3(4) 465.7256 419.1819
2559 24.8294 479.6(4) 465.2877 419.1683
2560 24.8374 477.9(4) 462.9543 419.1545
2561 24.8453 479.1(4) 460.3202 419.1409
2562 24.8533 485.9(4) 459.7371 419.1271
2563 24.8612 501.5(4) 463.9689 419.1135
2564 24.8692 526.9(4) 475.7192 419.0997
2565 24.8771 564.1(4) 496.4812 419.0861
2566 24.8851 612.3(4) 527.2780 419.0724
2567 24.8930 664.5(4) 566.1622 419.0587
2568 24.9010 717.9(5) 611.0422 419.0450
2569 24.9089 763.8(5) 656.1403 419.0313
2570 24.9168 794.6(5) 696.3632 419.0178
2571 24.9248 805.5(5) 726.3543 419.0040
2572 24.9327 797.3(5) 740.7145 418.9904
2573 24.9407 771.1(5) 737.2249 418.9766
2574 24.9486 730.9(5) 716.3340 418.9630
2575 24.9566 681.0(5) 680.9368 418.9492
2576 24.9645 633.0(4) 637.2973 418.9356
2577 24.9725 586.8(4) 590.3638 418.9218
2578 24.9804 546.0(4) 546.5036 418.9082
2579 24.9884 513.3(4) 508.2822 418.8944
2580 24.9963 487.4(4) 478.3729 418.8808
2581 25.0043 467.9(4) 456.1204 418.8670
2582 25.0122 454.5(4) 441.0841 418.8534
2583 25.0202 445.0(4) 431.3583 418.8397
2584 25.0281 438.2(4) 425.6317 418.8260
2585 25.0360 433.8(4) 422.4224 418.8124
2586 25.0440 430.7(4) 420.7183 418.7986
2587 25.0519 428.8(4) 419.8836 418.7850
2588 25.0599 426.9(4) 419.4772 418.7713
2589 25.0678 425.9(4) 419.2822 418.7577
2590 25.0758 424.8(4) 419.1777 418.7439
2591 25.0837 424.9(4) 419.1141 418.7303
2592 25.0917 424.0(4) 419.0668 418.7165
2593 25.0996 423.3(4) 419.0294 418.7029
2594 25.1076 422.2(4) 418.9973 418.6891
2595 25.1155 421.9(4) 418.9706 418.6755
2596 25.1235 421.2(4) 418.9501 418.6617
2597 25.1314 421.7(4) 418.9422 418.6481
2598 25.1394 421.2(4) 418.9625 418.6343
2599 25.1473 421.5(4) 419.0476 418.6207
2600 25.1552 421.7(4) 419.2745 418.6071
2601 25.1632 422.4(4) 419.7980 418.5934
2602 25.1711 423.7(4) 420.8460 418.5797
2603 25.1791 425.6(4) 422.7905 418.5659
2604 25.1870 429.0(4) 425.9726 418.5523
2605 25.1950 433.8(4) 430.7900 418.5386
2606 25.2029 440.9(4) 437.1658 418.5250
2607 25.2109 449.1(4) 444.8335 418.5112
2608 25.2188 456.7(4) 452.6424 418.4976
2609 25.2268 463.4(4) 459.4005 418.4838
2610 25.2347 466.9(4) 463.5267 418.4702
2611 25.2427 466.6(4) 464.1476 418.4564
2612 25.2506 461.6(4) 461.1266 418.4428
2613 25.2586 454.2(4) 455.2008 418.4290
2614 25.2665 447.0(4) 447.9316 418.4154
2615 25.2744 440.3(4) 440.7931 418.4018
2616 25.2824 434.5(4) 434.9628 418.3880
2617 25.2903 430.7(4) 431.2822 418.3744
2618 25.2983 429.4(4) 429.7587 418.3606
2619 25.3062 428.8(4) 430.0321 418.3470
2620 25.3142 428.6(4) 431.3845 418.3333
2621 25.3221 428.7(4) 432.9604 418.3196
2622 25.3301 429.2(4) 434.0562 418.3059
2623 25.3380 429.9(4) 434.2018 418.2923
2624 25.3460 430.6(4) 433.3678 418.2785
2625 25.3539 431.3(4) 431.9624 418.2649
2626 25.3619 433.4(4) 430.6399 418.2511
2627 25.3698 437.0(4) 430.1928 418.2375
2628 25.3778 441.6(4) 431.2334 418.2237
2629 25.3857 447.3(4) 433.9886 418.2101
2630 25.3936 453.6(4) 438.2230 418.1965
2631 25.4016 459.8(4) 443.2607 418.1827
2632 25.4095 463.5(4) 447.8683 418.1691
2633 25.4175 464.3(4) 450.9704 418.1553
2634 25.4254 461.4(4) 451.6337 418.1417
2635 25.4334 456.6(4) 449.6454 418.1279
2636 25.4413 450.1(4) 445.5377 418.1143
2637 25.4493 444.1(4) 440.2037 418.1006
2638 25.4572 438.2(4) 434.8931 418.0869
2639 25.4652 434.1(4) 430.3924 418.0732
2640 25.4731 430.1(4) 427.3213 418.0595
2641 25.4811 428.4(4) 425.6665 418.0458
2642 25.4890 427.5(4) 425.1980 418.0322
2643 25.4970 427.3(4) 425.4609 418.0184
2644 25.5049 427.0(4) 426.0293 418.0048
2645 25.5128 426.3(4) 426.6567 417.9912
2646 25.5208 425.5(4) 427.3701 417.9774
2647 25.5287 425.4(4) 428.4370 417.9638
2648 25.5367 425.3(4) 430.3227 417.9500
2649 25.5446 425.9(4) 433.3398 417.9364
2650 25.5526 427.3(4) 437.6107 417.9226
2651 25.5605 430.3(4) 442.5947 417.9090
2652 25.5685 434.1(4) 447.5139 417.8952
2653 25.5764 436.4(4) 451.1125 417.8816
2654 25.5844 437.1(4) 452.4799 417.8679
2655 25.5923 435.4(4) 451.1211 417.8542
2656 25.6003 432.1(4) 447.2579 417.8405
2657 25.6082 427.9(4) 441.8244 417.8268
2658 25.6162 424.3(4) 435.7839 417.8131
2659 25.6241 421.7(4) 430.2499 417.7995
2660 25.6320 420.0(4) 425.7513 417.7859
2661 25.6400 419.0(4) 422.4569 417.7721
2662 25.6479 418.4(4) 420.3405 417.7585
2663 25.6559 418.6(4) 419.0753 417.7447
2664 25.6638 418.4(4) 418.4007 417.7311
2665 25.6718 418.6(4) 418.0585 417.7173
2666 25.6797 418.5(4) 417.8976 417.7037
2667 25.6877 418.4(4) 417.8196 417.6899
2668 25.6956 418.4(4) 417.7791 417.6763
2669 25.7036 417.7(4) 417.7528 417.6625
2670 25.7115 417.6(4) 417.7326 417.6489
2671 25.7195 418.2(4) 417.7146 417.6352
2672 25.7274 419.0(4) 417.6980 417.6216
2673 25.7354 418.8(4) 417.6819 417.6078
2674 25.7433 418.1(4) 417.6666 417.5941
2675 25.7512 417.1(3) 417.6519 417.5805
2676 25.7592 417.7(3) 417.6381 417.5668
2677 25.7671 418.3(4) 417.6244 417.5532
2678 25.7751 418.8(4) 417.6110 417.5394
2679 25.7830 418.7(4) 417.5983 417.5258
2680 25.7910 418.4(4) 417.5860 417.5120
2681 25.7989 418.3(3) 417.5739 417.4984
2682 25.8069 418.1(3) 417.5631 417.4846
2683 25.8148 418.5(3) 417.5542 417.4710
2684 25.8228 418.9(4) 417.5471 417.4572
2685 25.8307 419.5(4) 417.5457 417.4436
2686 25.8387 420.2(4) 417.5593 417.4298
2687 25.8466 421.3(4) 417.6100 417.4162
2688 25.8546 422.5(4) 417.7514 417.4024
2689 25.8625 423.5(4) 418.0826 417.3889
2690 25.8704 425.4(4) 418.7889 417.3752
2691 25.8784 427.9(4) 420.1755 417.3615
2692 25.8863 430.9(4) 422.5787 417.3478
2693 25.8943 435.2(4) 426.4419 417.3341
2694 25.9022 439.3(4) 431.8812 417.3205
2695 25.9102 444.4(4) 438.8774 417.3067
2696 25.9181 447.8(4) 446.6117 417.3262
2697 25.9261 450.6(4) 454.0616 417.3701
2698 25.9340 452.1(4) 459.5709 417.4135
2699 25.9420 452.4(4) 462.0040 417.4574
2700 25.9499 450.4(4) 460.7139 417.5007
2701 25.9579 446.2(4) 456.0067 417.5446
2702 25.9658 441.8(4) 449.1118 417.5880
2703 25.9738 437.7(4) 441.3182 417.6319
2704 25.9817 433.8(4) 434.1172 417.6752
2705 25.9896 431.2(4) 428.2464 417.7186
2706 25.9976 428.7(4) 423.9469 417.7625
2707 26.0055 427.1(4) 421.1999 417.8058
2708 26.0135 425.4(4) 419.5813 417.8497
2709 26.0214 424.0(4) 418.7476 417.8931
2710 26.0294 422.3(3) 418.3572 417.9370
2711 26.0373 421.6(3) 418.2075 417.9803
2712 26.0453 420.6(3) 418.1690 418.0242
2713 26.0532 420.1(3) 418.1802 418.0676
2714 26.0612 419.3(3) 418.2131 418.1115
2715 26.0691 419.1(3) 418.2585 418.1548
2716 26.0771 419.6(3) 418.3206 418.1987
2717 26.0850 420.6(3) 418.4114 418.2420
2718 26.0930 420.9(3) 418.5602 418.2859
2719 26.1009 420.9(3) 418.8049 418.3293
2720 26.1088 420.6(3) 419.2009 418.3727
2721 26.1168 420.8(3) 419.8111 418.4165
2722 26.1247 420.9(3) 420.6514 418.4599
2723 26.1327 421.8(3) 421.7189 418.5038
2724 26.1406 422.9(3) 422.8866 418.5471
2725 26.1486 423.7(3) 424.0059 418.5910
2726 26.1565 424.8(4) 424.8376 418.6344
2727 26.1645 425.4(4) 425.2179 418.6783
2728 26.1724 425.3(4) 425.0550 418.7216
2729 26.1804 424.3(3) 424.3986 418.7655
2730 26.1883 423.0(3) 423.4305 418.8089
2731 26.1963 422.7(3) 422.3403 418.8528
2732 26.2042 422.1(3) 421.3441 418.8961
2733 26.2122 421.8(3) 420.5384 418.9400
2734 26.2201 421.3(3) 419.9850 418.9834
2735 26.2280 421.9(3) 419.6584 419.0267
2736 26.2360 422.5(3) 419.5259 419.0706
2737 26.2439 423.2(3) 419.5822 419.1140
2738 26.2519 424.0(3) 419.8916 419.1579
2739 26.2598 425.4(3) 420.6311 419.2012
2740 26.2678 427.8(4) 422.1888 419.2451
2741 26.2757 432.0(4) 425.0999 419.2885
2742 26.2837 439.3(4) 430.1901 419.3324
2743 26.2916 450.1(4) 438.0497 419.3757
2744 26.2996 464.4(4) 449.2487 419.4196
2745 26.3075 481.2(4) 463.0893 419.4630
2746 26.3155 497.4(4) 478.4264 419.5068
2747 26.3234 510.2(4) 492.4362 419.5502
2748 26.3314 516.1(4) 502.5699 419.5941
2749 26.3393 512.2(4) 506.2343 419.6375
2750 26.3472 501.3(4) 502.6838 419.6808
2751 26.3552 485.7(4) 492.6651 419.7247
2752 26.3631 470.7(4) 478.7713 419.7680
2753 26.3711 456.0(4) 463.5638 419.8119
2754 26.3790 445.6(4) 449.8831 419.8553
2755 26.3870 437.2(4) 438.9158 419.8992
2756 26.3949 432.4(4) 431.4064 419.9425
2757 26.4029 429.5(4) 426.8929 419.9864
2758 26.4108 428.7(4) 424.8937 420.0298
2759 26.4188 429.1(4) 424.7448 420.0737
2760 26.4267 430.1(4) 425.9741 420.1170
2761 26.4347 431.0(4) 428.2230 420.1609
2762 26.4426 432.0(4) 431.0388 420.2043
2763 26.4506 433.4(4) 433.9932 420.2482
2764 26.4585 434.7(4) 436.4442 420.2915
2765 26.4664 436.0(4) 437.9117 420.3349
2766 26.4744 435.6(4) 438.0781 420.3788
2767 26.4823 434.8(4) 436.9656 420.4221
2768 26.4903 433.5(4) 434.9023 420.4660
2769 26.4982 432.4(4) 432.4749 420.5093
2770 26.5062 431.7(4) 430.1843 420.5533
2771 26.5141 431.0(4) 428.5480 420.5966
2772 26.5221 430.3(3) 427.8670 420.6405
2773 26.5300 431.3(4) 428.4037 420.6838
2774 26.5380 432.3(4) 430.3377 420.7278
2775 26.5459 434.4(4) 433.6564 420.7711
2776 26.5539 437.4(4) 438.2477 420.8150
2777 26.5618 440.5(4) 443.4952 420.8583
2778 26.5698 443.6(4) 448.7281 420.9022
2779 26.5777 444.3(4) 452.9172 420.9456
2780 26.5856 444.8(4) 455.4152 420.9889
2781 26.5936 444.7(4) 455.9518 421.0328
2782 26.6015 444.6(4) 454.8084 421.0762
2783 26.6095 444.7(4) 452.6485 421.1201
2784 26.6174 444.2(4) 450.2353 421.1634
2785 26.6254 443.6(4) 447.9323 421.2073
2786 26.6333 443.0(4) 445.8174 421.2507
2787 26.6413 441.4(4) 443.5855 421.2946
2788 26.6492 439.9(4) 441.0477 421.3379
2789 26.6572 437.7(4) 438.1216 421.3818
2790 26.6651 435.4(4) 435.1298 421.4252
2791 26.6731 434.0(4) 432.4025 421.4691
2792 26.6810 433.4(4) 430.3792 421.5124
2793 26.6890 433.8(4) 429.2322 421.5563
2794 26.6969 435.0(4) 429.0398 421.5996
2795 26.7048 436.7(4) 429.7437 421.6430
2796 26.7128 439.3(4) 431.3614 421.6869
2797 26.7207 441.6(4) 433.9474 421.7303
2798 26.7287 443.9(4) 437.7305 421.7741
2799 26.7366 446.8(4) 442.6857 421.8175
2800 26.7446 450.3(4) 448.7215 421.8614
2801 26.7525 453.7(4) 455.0910 421.9048
2802 26.7605 456.1(4) 461.0555 421.9486
2803 26.7684 458.2(4) 465.5979 421.9920
2804 26.7764 459.2(4) 468.3477 422.0359
2805 26.7843 461.7(4) 469.3793 422.0792
2806 26.7923 463.4(4) 469.3548 422.1231
2807 26.8002 465.3(4) 468.9383 422.1665
2808 26.8082 464.7(4) 468.3788 422.2104
2809 26.8161 463.1(4) 467.3781 422.2537
2810 26.8241 460.3(4) 465.2394 422.2976
2811 26.8320 457.4(4) 461.4773 422.3410
2812 26.8399 453.2(4) 456.0695 422.3843
2813 26.8479 448.2(4) 449.5349 422.4282
2814 26.8558 443.1(4) 443.0532 422.4716
2815 26.8638 440.3(4) 437.5672 422.5155
2816 26.8717 438.3(4) 434.1328 422.5588
2817 26.8797 438.5(4) 433.3338 422.6027
2818 26.8876 440.6(4) 435.5861 422.6461
2819 26.8956 444.9(4) 441.0473 422.6899
2820 26.9035 451.3(4) 449.2459 422.7333
2821 26.9115 458.4(4) 459.4230 422.7772
2822 26.9194 464.7(4) 469.7027 422.8206
2823 26.9274 468.9(4) 478.2765 422.8644
2824 26.9353 469.5(4) 482.9974 422.9078
2825 26.9433 466.8(4) 482.8216 422.9517
2826 26.9512 461.5(4) 477.8462 422.9951
2827 26.9591 454.6(4) 469.3512 423.0384
2828 26.9671 447.8(4) 459.0728 423.0823
2829 26.9750 441.8(4) 449.1032 423.1256
2830 26.9830 436.6(3) 440.5104 423.1695
2831 26.9909 432.5(3) 434.0824 423.2129
2832 26.9989 430.0(3) 429.6259 423.2568
2833 27.0068 428.6(3) 426.8704 423.3001
2834 27.0148 428.3(3) 425.2574 423.3440
2835 27.0227 428.0(3) 424.4032 423.3874
2836 27.0307 426.4(3) 423.9735 423.4313
2837 27.0386 425.4(3) 423.7833 423.4746
2838 27.0466 425.2(3) 423.7121 423.5185
2839 27.0545 425.7(3) 423.7005 423.5619
2840 27.0625 425.9(3) 423.7172 423.6058
2841 27.0704 425.4(3) 423.7457 423.6491
2842 27.0783 425.6(3) 423.7804 423.6925
2843 27.0863 425.8(3) 423.8186 423.7364
2844 27.0942 426.0(3) 423.8596 423.7797
2845 27.1022 425.8(3) 423.9064 423.8236
2846 27.1101 426.1(3) 423.9589 423.8633
2847 27.1181 426.6(3) 424.0310 423.9031
2848 27.1260 427.1(3) 424.1355 423.9424
2849 27.1340 427.4(3) 424.2936 423.9822
2850 27.1419 427.1(3) 424.5191 424.0215
2851 27.1499 427.3(3) 424.8271 424.0613
2852 27.1578 427.4(3) 425.1996 424.1006
2853 27.1658 428.1(3) 425.6085 424.1404
2854 27.1737 428.8(3) 425.9827 424.1797
2855 27.1817 429.2(3) 426.2598 424.2195
2856 27.1896 429.0(3) 426.3763 424.2589
2857 27.1975 428.4(3) 426.3159 424.2982
2858 27.2055 427.9(3) 426.1007 424.3380
2859 27.2134 427.3(3) 425.7961 424.3773
2860 27.2214 426.8(3) 425.4661 424.4171
2861 27.2293 426.2(3) 425.1775 424.4564
2862 27.2373 426.2(3) 424.9570 424.4962
2863 27.2452 425.8(3) 424.8174 424.5355
2864 27.2532 425.7(3) 424.7444 424.5753
2865 27.2611 425.0(3) 424.7213 424.6146
2866 27.2691 425.5(3) 424.7293 424.6544
2867 27.2770 426.5(3) 424.7547 424.6937
2868 27.2850 427.1(3) 424.7894 424.7335
2869 27.2929 427.6(3) 424.8278 424.7728
2870 27.3009 427.1(3) 424.8687 424.8126
2871 27.3088 426.8(3) 424.9107 424.8519
2872 27.3167 426.3(3) 424.9530 424.8912
2873 27.3247 425.9(3) 424.9964 424.9310
2874 27.3326 425.7(3) 425.0401 424.9703
2875 27.3406 426.3(3) 425.0854 425.0101
2876 27.3485 426.7(3) 425.1322 425.0494
2877 27.3565 426.8(3) 425.1841 425.0892
2878 27.3644 426.9(3) 425.2455 425.1285
2879 27.3724 426.6(3) 425.3399 425.1683
2880 27.3803 426.6(3) 425.5088 425.2076
2881 27.3883 426.9(3) 425.8567 425.2474
2882 27.3962 427.7(3) 426.5633 425.2867
2883 27.4042 428.6(3) 427.9661 425.3265
2884 27.4121 430.1(3) 430.4753 425.3658
2885 27.4201 431.9(3) 434.6684 425.4056
2886 27.4280 435.7(3) 440.8315 425.4449
2887 27.4359 440.9(3) 449.0193 425.4843
2888 27.4439 447.7(4) 458.7647 425.5240
2889 27.4518 454.7(4) 468.5507 425.5634
2890 27.4598 460.3(4) 476.8818 425.6031
2891 27.4677 463.1(4) 481.9104 425.6425
2892 27.4757 461.2(4) 482.7987 425.6823
2893 27.4836 457.2(4) 479.6304 425.7216
2894 27.4916 450.7(4) 473.3922 425.7614
2895 27.4995 444.8(3) 465.7112 425.8007
2896 27.5075 439.4(3) 457.7500 425.8405
2897 27.5154 436.2(3) 450.5710 425.8798
2898 27.5234 434.1(3) 444.3728 425.9196
2899 27.5313 432.5(3) 439.3592 425.9589
2900 27.5393 430.9(3) 435.3202 425.9987
2901 27.5472 429.7(3) 432.2549 426.0380
2902 27.5551 428.5(3) 430.0046 426.0773
2903 27.5631 427.9(3) 428.4409 426.1171
2904 27.5710 427.7(3) 427.4645 426.1564
2905 27.5790 427.5(3) 426.8955 426.1962
2906 27.5869 427.0(3) 426.6078 426.2355
2907 27.5949 426.5(3) 426.4810 426.2753
2908 27.6028 426.9(3) 426.4429 426.3146
2909 27.6108 427.4(3) 426.4466 426.3544
2910 27.6187 427.7(3) 426.4698 426.3937
2911 27.6267 428.0(3) 426.5017 426.4335
2912 27.6346 428.6(3) 426.5377 426.4728
2913 27.6426 428.9(3) 426.5782 426.5126
2914 27.6505 429.1(3) 426.6236 426.5519
2915 27.6585 428.8(3) 426.6781 426.5917
2916 27.6664 429.0(3) 426.7433 426.6310
2917 27.6743 429.4(3) 426.8228 426.6703
2918 27.6823 429.2(3) 426.9184 426.7101
2919 27.6902 429.4(3) 427.0221 426.7495
2920 27.6982 429.7(3) 427.1283 426.7892
2921 27.7061 429.8(3) 427.2234 426.8286
2922 27.7141 430.8(3) 427.3024 426.8683
2923 27.7220 430.4(3) 427.3670 426.9077
2924 27.7300 430.6(3) 427.4417 426.9474
2925 27.7379 430.3(3) 427.5702 426.9868
2926 27.7459 430.4(3) 427.8242 427.0266
2927 27.7538 430.6(3) 428.2755 427.0659
2928 27.7618 430.6(3) 429.0022 427.1057
2929 27.7697 430.3(3) 430.0035 427.1450
2930 27.7777 429.9(3) 431.2402 427.1848
2931 27.7856 429.3(3) 432.5187 427.2241
2932 27.7935 429.1(3) 433.6194 427.2634
2933 27.8015 429.5(3) 434.3077 427.3032
2934 27.8094 430.4(3) 434.4041 427.3425
2935 27.8174 430.8(3) 433.9022 427.3823
2936 27.8253 430.8(3) 432.9675 427.4216
2937 27.8333 430.1(3) 431.8369 427.4614
2938 27.8412 429.6(3) 430.8098 427.5007
2939 27.8492 429.6(3) 430.0775 427.5405
2940 27.8571 430.1(3) 429.7749 427.5798
2941 27.8651 430.8(3) 429.9031 427.6196
2942 27.8730 431.9(3) 430.3734 427.6589
2943 27.8810 432.7(3) 431.0375 427.6987
2944 27.8889 433.8(3) 431.6809 427.7380
2945 27.8969 434.1(3) 432.1256 427.7778
2946 27.9048 434.0(3) 432.2281 427.8171
2947 27.9127 433.3(3) 431.9640 427.8564
2948 27.9207 431.9(3) 431.3970 427.8962
2949 27.9286 431.2(3) 430.6808 427.9355
2950 27.9366 430.4(3) 429.9507 427.9753
2951 27.9445 430.5(3) 429.3394 428.0146
2952 27.9525 431.2(3) 428.8924 428.0544
2953 27.9604 431.5(3) 428.6338 428.0938
2954 27.9684 431.7(3) 428.5581 428.1335
2955 27.9763 431.9(3) 428.6912 428.1729
2956 27.9843 432.4(3) 429.1298 428.2126
2957 27.9922 434.4(3) 430.0544 428.2520
2958 28.0002 437.7(3) 431.7925 428.2917
2959 28.0081 442.8(3) 434.6618 428.3311
2960 28.0161 449.3(3) 439.0418 428.3708
2961 28.0240 457.4(4) 444.8810 428.4102
2962 28.0319 466.3(4) 451.8517 428.4495
2963 28.0399 474.4(4) 459.1636 428.4893
2964 28.0478 479.6(4) 465.3616 428.5286
2965 28.0558 480.8(4) 469.2651 428.5684
2966 28.0637 477.0(4) 469.8842 428.6077
2967 28.0717 470.7(4) 467.1130 428.6475
2968 28.0796 461.8(4) 461.7101 428.6868
2969 28.0876 454.2(3) 454.7804 428.7266
2970 28.0955 448.8(3) 447.8253 428.7659
2971 28.1035 445.2(3) 441.7460 428.8057
2972 28.1114 442.6(3) 437.3158 428.8450
2973 28.1194 439.8(3) 434.6522 428.8848
2974 28.1273 439.2(3) 433.8020 428.9241
2975 28.1353 440.0(3) 434.6213 428.9639
2976 28.1432 441.8(3) 436.9107 429.0032
2977 28.1511 443.7(3) 440.3733 429.0425
2978 28.1591 445.2(3) 444.5511 429.0823
2979 28.1670 446.4(3) 448.5829 429.1216
2980 28.1750 447.1(3) 451.6761 429.1614
2981 28.1829 446.4(3) 453.0070 429.2007
2982 28.1909 445.7(3) 452.2705 429.2405
2983 28.1988 444.2(3) 449.7135 429.2798
2984 28.2068 442.9(3) 445.9673 429.3196
2985 28.2147 441.5(3) 442.0060 429.3589
2986 28.2227 440.1(3) 438.5530 429.3987
2987 28.2306 439.9(3) 436.2987 429.4380
2988 28.2386 440.5(3) 435.6036 429.4778
2989 28.2465 443.6(3) 436.7825 429.5172
2990 28.2545 447.2(3) 440.0862 429.5569
2991 28.2624 453.0(3) 445.4718 429.5963
2992 28.2703 459.3(3) 452.6266 429.6356
2993 28.2783 466.1(4) 460.7603 429.6754
2994 28.2862 470.3(4) 468.2346 429.7147
2995 28.2942 472.1(4) 473.5479 429.7462
2996 28.3021 469.9(4) 475.2169 429.7474
2997 28.3101 464.5(4) 472.8473 429.7486
2998 28.3180 457.2(3) 467.1089 429.7497
2999 28.3260 449.9(3) 459.2807 429.7509
3000 28.3339 445.1(3) 451.1758 429.7520
3001 28.3419 441.2(3) 443.9185 429.7532
3002 28.3498 438.8(3) 438.3936 429.7544
3003 28.3578 436.4(3) 434.5745 429.7556
3004 28.3657 434.8(3) 432.2727 429.7567
3005 28.3737 433.3(3) 430.9923 429.7579
3006 28.3816 432.5(3) 430.3644 429.7590
3007 28.3895 433.1(3) 430.0799 429.7602
3008 28.3975 434.0(3) 429.9629 429.7614
3009 28.4054 434.6(3) 429.9256 429.7625
3010 28.4134 434.6(3) 429.9320 429.7637
3011 28.4213 435.5(3) 429.9873 429.7648
3012 28.4293 436.0(3) 430.1404 429.7660
3013 28.4372 438.1(3) 430.4933 429.7672
3014 28.4452 440.6(3) 431.2484 429.7683
3015 28.4531 444.4(3) 432.6754 429.7695
3016 28.4611 448.9(3) 435.1712 429.7707
3017 28.4690 455.3(3) 438.9913 429.7718
3018 28.4770 461.8(3) 444.3311 429.7730
3019 28.4849 468.8(4) 450.7391 429.7741
3020 28.4929 473.9(4) 457.5353 429.7753
3021 28.5008 476.6(4) 463.3171 429.7765
3022 28.5087 476.2(4) 466.9168 429.7776
3023 28.5167 472.7(4) 467.4908 429.7788
3024 28.5246 467.6(4) 464.9929 429.7800
3025 28.5326 461.7(3) 460.1585 429.7811
3026 28.5405 457.0(3) 454.3529 429.7823
3027 28.5485 453.0(3) 448.6475 429.7834
3028 28.5564 449.6(3) 443.9564 429.7846
3029 28.5644 446.9(3) 440.4046 429.7858
3030 28.5723 444.7(3) 437.9199 429.7869
3031 28.5803 443.2(3) 436.1365 429.7881
3032 28.5882 443.0(3) 434.8897 429.7892
3033 28.5962 443.4(3) 434.1349 429.7904
3034 28.6041 445.3(3) 434.0679 429.7916
3035 28.6121 448.2(3) 434.9758 429.7928
3036 28.6200 454.0(3) 437.1021 429.7939
3037 28.6279 461.7(3) 440.5405 429.7951
3038 28.6359 470.5(4) 445.1236 429.7962
3039 28.6438 478.0(4) 450.0946 429.7974
3040 28.6518 482.2(4) 454.5908 429.7986
3041 28.6597 482.0(4) 457.4521 429.7997
3042 28.6677 476.9(4) 457.9821 429.8009
3043 28.6756 469.4(4) 456.0212 429.8020
3044 28.6836 459.9(3) 452.0501 429.8032
3045 28.6915 451.8(3) 447.1124 429.8044
3046 28.6995 445.9(3) 442.0949 429.8055
3047 28.7074 441.4(3) 437.8565 429.8067
3048 28.7154 438.6(3) 434.6383 429.8079
3049 28.7233 436.7(3) 432.5166 429.8090
3050 28.7313 435.2(3) 431.2242 429.8102
3051 28.7392 434.3(3) 430.5262 429.8113
3052 28.7472 433.6(3) 430.1712 429.8125
3053 28.7551 433.1(3) 430.0090 429.8137
3054 28.7630 432.5(3) 429.9417 429.8148
3055 28.7710 432.0(3) 429.9259 429.8160
3056 28.7789 431.6(3) 429.9514 429.8171
3057 28.7869 431.3(3) 430.0339 429.8183
3058 28.7948 431.9(3) 430.2089 429.8195
3059 28.8028 431.9(3) 430.5378 429.8206
3060 28.8107 432.6(3) 431.0737 429.8218
3061 28.8187 432.4(3) 431.8703 429.8230
3062 28.8266 432.9(3) 432.8883 429.8241
3063 28.8346 433.6(3) 434.0456 429.8253
3064 28.8425 434.3(3) 435.1202 429.8264
3065 28.8505 434.6(3) 435.9014 429.8276
3066 28.8584 434.1(3) 436.1746 429.8288
3067 28.8664 433.5(3) 435.8712 429.8300
3068 28.8743 433.1(3) 435.0801 429.8311
3069 28.8822 433.2(3) 433.9982 429.8323
3070 28.8902 432.7(3) 432.8431 429.8334
3071 28.8981 432.2(3) 431.8330 429.8346
3072 28.9061 432.2(3) 431.0468 429.8358
3073 28.9140 431.9(3) 430.5201 429.8369
3074 28.9220 431.4(3) 430.1975 429.8381
3075 28.9299 430.7(3) 430.0256 429.8392
3076 28.9379 430.4(3) 429.9420 429.8404
3077 28.9458 430.5(3) 429.9095 429.8416
3078 28.9538 430.3(3) 429.9048 429.8427
3079 28.9617 430.3(3) 429.9195 429.8439
3080 28.9697 430.3(3) 429.9536 429.8451
3081 28.9776 431.2(3) 430.0090 429.8462
3082 28.9855 431.9(3) 430.0880 429.8474
3083 28.9935 432.5(3) 430.1893 429.8485
3084 29.0014 433.0(3) 430.3027 429.8497
3085 29.0094 432.6(3) 430.4205 429.8509
3086 29.0173 432.5(3) 430.5363 429.8520
3087 29.0253 432.3(3) 430.6674 429.8532
3088 29.0332 433.2(3) 430.8528 429.8543
3089 29.0412 433.9(3) 431.1673 429.8555
3090 29.0491 434.3(3) 431.6814 429.8567
3091 29.0571 434.4(3) 432.4616 429.8578
3092 29.0650 434.5(3) 433.4755 429.8590
3093 29.0730 434.8(3) 434.6338 429.8602
3094 29.0809 434.8(3) 435.7023 429.8613
3095 29.0889 434.5(3) 436.4552 429.8625
3096 29.0968 434.8(3) 436.6709 429.8636
3097 29.1048 433.8(3) 436.2824 429.8648
3098 29.1127 433.0(3) 435.3943 429.8660
3099 29.1206 431.9(3) 434.2196 429.8671
3100 29.1286 431.6(3) 432.9886 429.8683
3101 29.1365 431.7(3) 431.9276 429.8694
3102 29.1445 430.9(3) 431.1128 429.8706
3103 29.1524 430.0(3) 430.5746 429.8718
3104 29.1604 429.7(3) 430.2505 429.8730
3105 29.1683 429.5(3) 430.0819 429.8741
3106 29.1763 429.7(3) 430.0052 429.8753
3107 29.1842 429.8(3) 429.9849 429.8764
3108 29.1922 430.0(3) 430.0108 429.8776
3109 29.2001 430.9(3) 430.1043 429.8788
3110 29.2081 431.5(3) 430.3376 429.8799
3111 29.2160 431.7(3) 430.8405 429.8811
3112 29.2240 432.0(3) 431.8459 429.8823
3113 29.2319 433.5(3) 433.6090 429.8834
3114 29.2398 436.2(3) 436.4055 429.8846
3115 29.2478 440.0(3) 440.4043 429.8857
3116 29.2557 442.9(3) 445.2906 429.8869
3117 29.2637 446.2(3) 450.5438 429.8881
3118 29.2716 448.1(3) 455.0406 429.8892
3119 29.2796 449.4(3) 457.8181 429.8904
3120 29.2875 448.2(3) 458.0773 429.8915
3121 29.2955 445.6(3) 455.7514 429.8927
3122 29.3034 442.9(3) 451.5211 429.8939
3123 29.3114 439.9(3) 446.3257 429.8951
3124 29.3193 437.1(3) 441.3240 429.8962
3125 29.3273 434.5(3) 437.1198 429.8974
3126 29.3352 432.6(3) 434.1092 429.8985
3127 29.3432 432.3(3) 432.1530 429.8997
3128 29.3511 432.2(3) 431.0510 429.9008
3129 29.3590 432.7(3) 430.4933 429.9020
3130 29.3670 432.4(3) 430.2626 429.9032
3131 29.3749 432.2(3) 430.2473 429.9043
3132 29.3829 432.4(3) 430.4362 429.9055
3133 29.3908 433.1(3) 430.9222 429.9066
3134 29.3988 434.3(3) 431.9240 429.9078
3135 29.4067 436.1(3) 433.6981 429.9090
3136 29.4147 439.0(3) 436.5734 429.9102
3137 29.4226 442.4(3) 440.6133 429.9113
3138 29.4306 446.4(3) 445.7448 429.9125
3139 29.4385 450.6(3) 451.2862 429.9136
3140 29.4465 455.1(3) 456.5388 429.9148
3141 29.4544 459.4(3) 460.5932 429.9160
3142 29.4624 463.5(3) 463.2318 429.9171
3143 29.4703 467.4(3) 464.7717 429.9183
3144 29.4782 472.4(3) 466.1705 429.9194
3145 29.4862 477.3(3) 468.3651 429.9314
3146 29.4941 482.2(4) 471.5708 429.9532
3147 29.5021 485.4(4) 475.2132 429.9753
3148 29.5100 486.6(4) 477.9159 429.9972
3149 29.5180 485.4(4) 478.4608 430.0193
3150 29.5259 480.8(3) 476.2866 430.0412
3151 29.5339 473.7(3) 471.7823 430.0633
3152 29.5418 465.9(3) 466.1424 430.0851
3153 29.5498 458.8(3) 460.3540 430.1073
3154 29.5577 453.1(3) 455.2316 430.1291
3155 29.5657 448.1(3) 450.7610 430.1512
3156 29.5736 444.1(3) 446.8547 430.1731
3157 29.5816 440.3(3) 443.2105 430.1952
3158 29.5895 437.6(3) 439.8945 430.2171
3159 29.5974 435.7(3) 436.9871 430.2389
3160 29.6054 434.5(3) 434.6210 430.2610
3161 29.6133 432.8(3) 432.9397 430.2829
3162 29.6213 431.8(3) 431.8793 430.3050
3163 29.6292 431.0(3) 431.3780 430.3269
3164 29.6372 431.0(3) 431.3253 430.3490
3165 29.6451 431.5(3) 431.6528 430.3708
3166 29.6531 432.0(3) 432.3171 430.3930
3167 29.6610 432.3(3) 433.2342 430.4148
3168 29.6690 431.6(3) 434.2982 430.4370
3169 29.6769 431.3(3) 435.2890 430.4588
3170 29.6849 432.0(3) 436.0062 430.4809
3171 29.6928 432.7(3) 436.2573 430.5028
3172 29.7008 433.1(3) 435.9968 430.5249
3173 29.7087 432.5(3) 435.3321 430.5468
3174 29.7166 432.5(3) 434.4666 430.5686
3175 29.7246 432.2(3) 433.6129 430.5907
3176 29.7325 432.1(3) 432.9579 430.6126
3177 29.7405 431.6(3) 432.5597 430.6347
3178 29.7484 431.5(3) 432.4226 430.6566
3179 29.7564 431.9(3) 432.5006 430.6787
3180 29.7643 432.8(3) 432.7514 430.7005
3181 29.7723 433.2(3) 433.1530 430.7227
3182 29.7802 433.1(3) 433.6597 430.7445
3183 29.7882 432.5(3) 434.2136 430.7666
3184 29.7961 432.8(3) 434.6890 430.7885
3185 29.8041 432.5(3) 434.9729 430.8106
3186 29.8120 432.6(3) 434.9801 430.8325
3187 29.8200 432.7(3) 434.7281 430.8546
3188 29.8279 432.8(3) 434.3493 430.8764
3189 29.8358 433.6(3) 434.0341 430.8983
3190 29.8438 434.0(3) 433.9783 430.9204
3191 29.8517 434.9(3) 434.3214 430.9423
3192 29.8597 435.9(3) 435.1244 430.9644
3193 29.8676 437.6(3) 436.3465 430.9862
3194 29.8756 439.8(3) 437.9676 431.0084
3195 29.8835 442.6(3) 439.9004 431.0302
3196 29.8915 445.6(3) 442.1452 431.0524
3197 29.8994 448.1(3) 444.5255 431.0742
3198 29.9074 450.2(3) 446.8246 431.0963
3199 29.9153 451.4(3) 448.5477 431.1182
3200 29.9233 451.1(3) 449.2438 431.1403
3201 29.9312 449.8(3) 448.5772 431.1622
3202 29.9392 446.1(3) 446.5682 431.1843
3203 29.9471 442.5(3) 443.6712 431.2061
3204 29.9550 439.4(3) 440.4628 431.2280
3205 29.9630 437.2(3) 437.4666 431.2501
3206 29.9709 435.0(3) 435.1157 431.2720
3207 29.9789 433.3(3) 433.4606 431.2941
3208 29.9868 432.8(3) 432.4620 431.3159
3209 29.9948 432.0(3) 431.9252 431.3381
3210 30.0027 431.5(3) 431.7033 431.3599
3211 30.0107 431.8(3) 431.6805 431.3820
3212 30.0186 433.2(3) 431.8127 431.4039
3213 30.0266 434.9(3) 432.1117 431.4260
3214 30.0345 435.8(3) 432.6113 431.4479
3215 30.0425 437.2(3) 433.3732 431.4700
3216 30.0504 438.7(3) 434.4018 431.4919
3217 30.0584 440.7(3) 435.6856 431.5140
3218 30.0663 441.3(3) 437.0702 431.5358
3219 30.0742 441.3(3) 438.3642 431.5577
3220 30.0822 440.5(3) 439.3264 431.5798
3221 30.0901 439.7(3) 439.7102 431.6017
3222 30.0981 438.2(3) 439.4149 431.6238
3223 30.1060 437.0(3) 438.5104 431.6456
3224 30.1140 436.3(3) 437.1944 431.6678
3225 30.1219 436.4(3) 435.7866 431.6896
3226 30.1299 436.4(3) 434.5198 431.7117
3227 30.1378 436.6(3) 433.6119 431.7336
3228 30.1458 436.9(3) 433.1560 431.7557
3229 30.1537 437.4(3) 433.2526 431.7776
3230 30.1617 438.3(3) 434.0196 431.7997
3231 30.1696 439.9(3) 435.5795 431.8215
3232 30.1776 442.3(3) 438.0772 431.8437
3233 30.1855 445.5(3) 441.3944 431.8655
3234 30.1934 448.7(3) 445.2488 431.8874
3235 30.2014 451.5(3) 449.1308 431.9095
3236 30.2093 452.9(3) 452.2964 431.9313
3237 30.2173 452.7(3) 454.3677 431.9535
3238 30.2252 452.2(3) 455.2625 431.9753
3239 30.2332 451.3(3) 455.4046 431.9974
3240 30.2411 450.5(3) 455.3213 432.0193
3241 30.2491 448.8(3) 455.3080 432.0414
3242 30.2570 447.5(3) 455.2228 432.0633
3243 30.2650 446.8(3) 454.5806 432.0854
3244 30.2729 445.7(3) 452.9297 432.1072
3245 30.2809 444.0(3) 450.1063 432.1294
3246 30.2888 441.2(3) 446.5071 432.1512
3247 30.2968 439.7(3) 442.6498 432.1733
3248 30.3047 438.9(3) 439.2256 432.1952
3249 30.3126 438.7(3) 436.5624 432.2170
3250 30.3206 438.1(3) 434.7559 432.2392
3251 30.3285 436.6(3) 433.7861 432.2610
3252 30.3365 435.3(3) 433.5228 432.2831
3253 30.3444 434.8(3) 433.9561 432.3050
3254 30.3524 435.8(3) 435.2286 432.3271
3255 30.3603 437.2(3) 437.5572 432.3490
3256 30.3683 438.9(3) 441.2617 432.3711
3257 30.3762 441.0(3) 446.3585 432.3929
3258 30.3842 444.0(3) 452.8053 432.4151
3259 30.3921 447.6(3) 459.9929 432.4369
3260 30.4001 450.5(3) 467.4998 432.4591
3261 30.4080 453.1(3) 474.5927 432.4809
3262 30.4160 455.9(3) 481.0540 432.5031
3263 30.4239 460.1(3) 486.3770 432.5249
3264 30.4318 463.6(3) 490.1121 432.5468
3265 30.4398 465.9(3) 491.4698 432.5689
3266 30.4477 465.9(3) 489.6539 432.5907
3267 30.4557 464.5(3) 484.4022 432.6129
3268 30.4636 461.2(3) 476.4934 432.6347
3269 30.4716 456.7(3) 467.0734 432.6568
3270 30.4795 451.9(3) 457.8588 432.6787
3271 30.4875 448.0(3) 449.7898 432.7008
3272 30.4954 445.0(3) 443.6463 432.7227
3273 30.5034 441.9(3) 439.3161 432.7448
3274 30.5113 439.6(3) 436.6277 432.7666
3275 30.5193 438.2(3) 435.1324 432.7888
3276 30.5272 437.6(3) 434.5518 432.8106
3277 30.5352 437.7(3) 434.6519 432.8327
3278 30.5431 438.0(3) 435.2899 432.8546
3279 30.5510 438.8(3) 436.3357 432.8764
3280 30.5590 440.0(3) 437.6302 432.8986
3281 30.5669 441.3(3) 438.8929 432.9204
3282 30.5749 442.5(3) 439.8651 432.9425
3283 30.5828 442.8(3) 440.2834 432.9644
3284 30.5908 443.2(3) 440.0555 432.9865
3285 30.5987 443.1(3) 439.2635 433.0084
3286 30.6067 442.5(3) 438.1097 433.0305
3287 30.6146 440.8(3) 436.9004 433.0523
3288 30.6226 439.3(3) 435.8525 433.0745
3289 30.6305 438.4(3) 435.1449 433.0963
3290 30.6385 438.3(3) 434.8039 433.1184
3291 30.6464 438.2(3) 434.7881 433.1403
3292 30.6544 438.5(3) 434.9863 433.1624
3293 30.6623 438.9(3) 435.2671 433.1843
3294 30.6702 439.3(3) 435.5467 433.2061
3295 30.6782 439.5(3) 435.8219 433.2076
3296 30.6861 440.5(3) 436.2697 433.2047
3297 30.6941 443.0(3) 437.2445 433.2018
3298 30.7020 446.2(3) 439.1574 433.1989
3299 30.7100 449.7(3) 442.4443 433.1960
3300 30.7179 453.0(3) 447.1224 433.1932
3301 30.7259 456.2(3) 452.9006 433.1903
3302 30.7338 459.8(3) 458.6650 433.1874
3303 30.7418 462.3(3) 463.2107 433.1845
3304 30.7497 462.9(3) 465.1933 433.1816
3305 30.7577 460.8(3) 464.0494 433.1787
3306 30.7656 456.8(3) 460.1242 433.1758
3307 30.7736 452.5(3) 454.4085 433.1729
3308 30.7815 448.3(3) 448.3765 433.1701
3309 30.7894 444.8(3) 443.0485 433.1672
3310 30.7974 441.6(3) 438.9594 433.1643
3311 30.8053 439.0(3) 436.2824 433.1614
3312 30.8133 437.5(3) 434.6925 433.1585
3313 30.8212 436.6(3) 433.8716 433.1557
3314 30.8292 435.6(3) 433.4799 433.1528
3315 30.8371 434.7(3) 433.3136 433.1499
3316 30.8451 433.8(3) 433.2451 433.1470
3317 30.8530 433.8(3) 433.2172 433.1441
3318 30.8610 433.8(3) 433.2036 433.1412
3319 30.8689 434.2(3) 433.1954 433.1383
3320 30.8769 434.2(3) 433.1895 433.1354
3321 30.8848 433.9(3) 433.1852 433.1326
3322 30.8928 434.0(3) 433.1836 433.1297
3323 30.9007 433.6(3) 433.1877 433.1268
3324 30.9086 433.3(3) 433.2045 433.1239
3325 30.9166 432.4(3) 433.2484 433.1210
3326 30.9245 432.6(3) 433.3406 433.1182
3327 30.9325 433.0(3) 433.5127 433.1153
3328 30.9404 433.7(3) 433.7874 433.1124
3329 30.9484 434.3(3) 434.1804 433.1095
3330 30.9563 434.1(3) 434.6534 433.1066
3331 30.9643 434.1(3) 435.1432 433.1037
3332 30.9722 433.1(3) 435.5316 433.1008
3333 30.9802 433.5(3) 435.7251 433.0979
3334 30.9881 433.7(3) 435.6656 433.0951
3335 30.9961 433.7(3) 435.3803 433.0922
3336 31.0040 434.1(3) 434.9778 433.0893
3337 31.0120 434.1(3) 434.5895 433.0864
3338 31.0199 435.2(3) 434.3627 433.0835
3339 31.0278 435.1(3) 434.3987 433.0807
3340 31.0358 435.5(3) 434.7709 433.0777
3341 31.0437 435.4(3) 435.4930 433.0749
3342 31.0517 435.6(3) 436.5684 433.0720
3343 31.0596 436.1(3) 437.9344 433.0691
3344 31.0676 436.6(3) 439.6037 433.0662
3345 31.0755 436.9(3) 441.5711 433.0633
3346 31.0835 437.7(3) 443.9954 433.0604
3347 31.0914 439.1(3) 446.9341 433.0576
3348 31.0994 441.1(3) 450.4560 433.0547
3349 31.1073 443.7(3) 454.2146 433.0518
3350 31.1153 445.8(3) 457.7509 433.0489
3351 31.1232 448.6(3) 460.2926 433.0460
3352 31.1312 449.6(3) 461.3519 433.0431
3353 31.1391 449.4(3) 460.7584 433.0402
3354 31.1470 447.5(3) 458.8121 433.0374
3355 31.1550 444.8(3) 455.9479 433.0345
3356 31.1629 442.9(3) 452.6670 433.0316
3357 31.1709 441.3(3) 449.1666 433.0287
3358 31.1788 439.8(3) 445.7170 433.0258
3359 31.1868 438.5(3) 442.4200 433.0229
3360 31.1947 437.3(3) 439.5647 433.0201
3361 31.2027 436.8(3) 437.2634 433.0171
3362 31.2106 435.8(3) 435.6685 433.0143
3363 31.2186 434.9(3) 434.7286 433.0114
3364 31.2265 434.9(3) 434.3733 433.0085
3365 31.2345 434.9(3) 434.4559 433.0056
3366 31.2424 434.8(3) 434.8182 433.0027
3367 31.2504 434.1(3) 435.2986 432.9998
3368 31.2583 433.7(3) 435.7149 432.9969
3369 31.2663 433.7(3) 435.9305 432.9940
3370 31.2742 433.7(3) 435.8619 432.9912
3371 31.2821 434.0(3) 435.5281 432.9883
3372 31.2901 434.9(3) 435.0149 432.9854
3373 31.2980 435.4(3) 434.4603 432.9825
3374 31.3060 435.7(3) 433.9597 432.9796
3375 31.3139 435.3(3) 433.5851 432.9767
3376 31.3219 435.8(3) 433.3385 432.9738
3377 31.3298 436.8(3) 433.2104 432.9710
3378 31.3378 437.6(3) 433.1830 432.9681
3379 31.3457 439.0(3) 433.2739 432.9652
3380 31.3537 439.8(3) 433.5630 432.9623
3381 31.3616 441.5(3) 434.2018 432.9594
3382 31.3696 443.1(3) 435.4550 432.9565
3383 31.3775 445.8(3) 437.5720 432.9537
3384 31.3855 448.6(3) 440.8108 432.9507
3385 31.3934 451.8(3) 445.0504 432.9479
3386 31.4013 455.2(3) 449.9203 432.9450
3387 31.4093 458.2(3) 454.7310 432.9421
3388 31.4172 460.2(3) 458.4692 432.9392
3389 31.4252 461.9(3) 460.5231 432.9363
3390 31.4331 462.8(3) 460.6436 432.9335
3391 31.4411 462.5(3) 459.1880 432.9306
3392 31.4490 460.7(3) 456.8730 432.9277
3393 31.4570 459.8(3) 454.3651 432.9248
3394 31.4649 459.2(3) 452.2276 432.9219
3395 31.4729 458.7(3) 450.5573 432.9190
3396 31.4808 457.2(3) 449.2153 432.9161
3397 31.4888 455.3(3) 447.8225 432.9132
3398 31.4967 453.5(3) 446.1754 432.9104
3399 31.5047 452.4(3) 444.3114 432.9075
3400 31.5126 451.7(3) 442.7147 432.9046
3401 31.5205 451.4(3) 442.0213 432.9017
3402 31.5285 451.0(3) 442.8916 432.8988
3403 31.5364 450.9(3) 445.6395 432.8960
3404 31.5444 452.0(3) 450.1118 432.8931
3405 31.5523 453.9(3) 455.3375 432.8902
3406 31.5603 456.6(3) 460.1043 432.8873
3407 31.5682 458.3(3) 462.9667 432.8844
3408 31.5762 459.0(3) 463.2500 432.8815
3409 31.5841 458.1(3) 461.1961 432.8786
3410 31.5921 456.0(3) 457.8927 432.8757
3411 31.6000 454.6(3) 454.8226 432.8729
3412 31.6080 453.2(3) 452.9270 432.8700
3413 31.6159 453.0(3) 452.4529 432.8671
3414 31.6239 453.9(3) 452.8342 432.8642
3415 31.6318 456.0(3) 453.1995 432.8613
3416 31.6397 457.6(3) 452.9055 432.8585
3417 31.6477 459.1(3) 451.8093 432.8555
3418 31.6556 460.5(3) 450.2898 432.8527
3419 31.6636 462.0(3) 448.8632 432.8498
3420 31.6715 462.7(3) 448.0264 432.8469
3421 31.6795 462.5(3) 447.9866 432.8440
3422 31.6874 462.1(3) 448.7051 432.8411
3423 31.6954 462.3(3) 449.9121 432.8382
3424 31.7033 463.1(3) 451.1291 432.8354
3425 31.7113 463.5(3) 451.9320 432.8325
3426 31.7192 463.4(3) 452.0907 432.8296
3427 31.7272 463.0(3) 451.7994 432.8267
3428 31.7351 462.3(3) 451.5743 432.8238
3429 31.7431 460.6(3) 451.9664 432.8209
3430 31.7510 459.3(3) 453.2667 432.8180
3431 31.7589 458.8(3) 455.4026 432.8152
3432 31.7669 459.6(3) 458.0223 432.8123
3433 31.7748 460.1(3) 460.4979 432.8094
3434 31.7828 459.7(3) 462.2599 432.8065
3435 31.7907 458.9(3) 462.6720 432.8036
3436 31.7987 458.5(3) 461.3371 432.8007
3437 31.8066 458.0(3) 458.3098 432.7979
3438 31.8146 457.1(3) 454.1046 432.7949
3439 31.8225 456.2(3) 449.8417 432.7921
3440 31.8305 455.3(3) 446.5502 432.7892
3441 31.8384 454.3(3) 445.1749 432.7863
3442 31.8464 453.8(3) 446.0412 432.7834
3443 31.8543 455.1(3) 448.8678 432.7805
3444 31.8623 456.9(3) 452.8872 432.7827
3445 31.8702 458.1(3) 456.8184 432.8167
3446 31.8781 457.3(3) 459.4509 432.8506
3447 31.8861 456.4(3) 459.9174 432.8849
3448 31.8940 455.4(3) 458.0484 432.9188
3449 31.9020 454.4(3) 454.3832 432.9532
3450 31.9099 452.5(3) 449.9957 432.9871
3451 31.9179 451.4(3) 445.7136 433.0214
3452 31.9258 450.1(3) 442.1988 433.0553
3453 31.9338 449.0(3) 439.5093 433.0897
3454 31.9417 446.8(3) 437.6004 433.1236
3455 31.9497 445.5(3) 436.2493 433.1579
3456 31.9576 444.1(3) 435.3681 433.1918
3457 31.9656 443.1(3) 434.8775 433.2262
3458 31.9735 441.7(3) 434.7591 433.2601
3459 31.9815 440.5(3) 434.9630 433.2944
3460 31.9894 440.3(3) 435.4059 433.3283
3461 31.9973 440.8(3) 435.9986 433.3622
3462 32.0053 443.0(3) 436.6956 433.3966
3463 32.0132 444.2(3) 437.5197 433.4305
3464 32.0212 444.1(3) 438.6615 433.4648
3465 32.0291 444.3(3) 440.3374 433.4987
3466 32.0371 444.4(3) 442.7676 433.5331
3467 32.0450 445.9(3) 445.7993 433.5670
3468 32.0530 446.1(3) 449.0357 433.6013
3469 32.0609 446.9(3) 451.6096 433.6353
3470 32.0689 447.2(3) 452.7690 433.6696
3471 32.0768 446.8(3) 452.0414 433.7035
3472 32.0848 446.5(3) 449.5784 433.7378
3473 32.0927 445.7(3) 446.1326 433.7717
3474 32.1007 445.1(3) 442.5127 433.8061
3475 32.1086 444.3(3) 439.5376 433.8400
3476 32.1165 443.1(3) 437.5584 433.8739
3477 32.1245 442.8(3) 436.6639 433.9082
3478 32.1324 442.3(3) 436.7899 433.9422
3479 32.1404 442.7(3) 437.7838 433.9765
3480 32.1483 442.8(3) 439.4363 434.0104
3481 32.1563 443.7(3) 441.5329 434.0447
3482 32.1642 444.6(3) 443.6603 434.0786
3483 32.1722 444.7(3) 445.4111 434.1130
3484 32.1801 443.8(3) 446.3008 434.1469
3485 32.1881 443.1(3) 446.0771 434.1812
3486 32.1960 442.6(3) 444.7793 434.2151
3487 32.2040 442.3(3) 442.7191 434.2495
3488 32.2119 441.2(3) 440.4413 434.2834
3489 32.2199 440.4(3) 438.3443 434.3177
3490 32.2278 439.9(3) 436.7474 434.3517
3491 32.2357 439.9(3) 435.6820 434.3856
3492 32.2437 440.1(3) 435.0593 434.4199
3493 32.2516 440.2(3) 434.7545 434.4538
3494 32.2596 440.3(3) 434.6291 434.4882
3495 32.2675 440.3(3) 434.5967 434.5221
3496 32.2755 439.4(3) 434.6048 434.5564
3497 32.2834 439.2(3) 434.6286 434.5903
3498 32.2914 439.0(3) 434.6585 434.6247
3499 32.2993 438.9(3) 434.6901 434.6586
3500 32.3073 438.0(3) 434.7235 434.6929
3501 32.3152 437.4(3) 434.7583 434.7268
3502 32.3232 437.6(3) 434.7976 434.7612
3503 32.3311 438.2(3) 434.8452 434.7951
3504 32.3391 438.7(3) 434.9107 434.8294
3505 32.3470 439.1(3) 435.0037 434.8633
3506 32.3549 439.7(3) 435.1373 434.8972
3507 32.3629 440.1(3) 435.3186 434.9316
3508 32.3708 440.0(3) 435.5329 434.9655
3509 32.3788 439.5(3) 435.7554 434.9998
3510 32.3867 439.4(3) 435.9357 435.0338
3511 32.3947 439.4(3) 436.0354 435.0681
3512 32.4026 440.1(3) 436.0312 435.1020
3513 32.4106 439.9(3) 435.9355 435.1363
3514 32.4185 439.9(3) 435.7893 435.1703
3515 32.4265 439.1(3) 435.6358 435.2046
3516 32.4344 438.6(3) 435.5137 435.2385
3517 32.4424 437.5(3) 435.4348 435.2729
3518 32.4503 437.0(3) 435.3995 435.3067
3519 32.4583 437.4(3) 435.3962 435.3411
3520 32.4662 437.9(3) 435.4127 435.3750
3521 32.4741 438.0(3) 435.4397 435.4089
3522 32.4821 438.1(3) 435.4720 435.4433
3523 32.4900 437.8(3) 435.5061 435.4772
3524 32.4980 438.1(3) 435.5409 435.5115
3525 32.5059 438.3(3) 435.5761 435.5454
3526 32.5139 439.4(3) 435.6122 435.5798
3527 32.5218 440.7(3) 435.6481 435.6137
3528 32.5298 441.6(3) 435.6848 435.6480
3529 32.5377 441.7(3) 435.7217 435.6819
3530 32.5457 441.1(3) 435.7598 435.7162
3531 32.5536 440.6(3) 435.7988 435.7502
3532 32.5616 440.6(3) 435.8431 435.7845
3533 32.5695 441.0(3) 435.8993 435.8184
3534 32.5775 441.5(3) 435.9903 435.8528
3535 32.5854 442.4(3) 436.1618 435.8867
3536 32.5933 443.1(3) 436.5076 435.9206
3537 32.6013 443.7(3) 437.1934 435.9549
3538 32.6092 445.5(3) 438.4138 435.9888
3539 32.6172 447.5(3) 440.4236 436.0232
3540 32.6251 449.3(3) 443.3075 436.0571
3541 32.6331 449.6(3) 447.0767 436.0914
3542 32.6410 450.5(3) 451.3149 436.1253
3543 32.6490 452.4(3) 455.5604 436.1597
3544 32.6569 454.8(3) 459.0535 436.1936
3545 32.6649 457.5(3) 461.3277 436.2279
3546 32.6728 459.4(3) 462.0596 436.2618
3547 32.6808 461.5(3) 461.3868 436.2962
3548 32.6887 462.5(3) 459.8389 436.3301
3549 32.6967 463.5(3) 458.1704 436.3644
3550 32.7046 463.4(3) 457.2212 436.3983
3551 32.7125 464.1(3) 457.4775 436.4323
3552 32.7205 464.5(3) 458.9574 436.4666
3553 32.7284 464.5(3) 461.0462 436.5005
3554 32.7364 464.0(3) 462.8270 436.5349
3555 32.7443 462.6(3) 463.3204 436.5688
3556 32.7523 460.8(3) 461.9952 436.6031
3557 32.7602 458.2(3) 458.9218 436.6370
3558 32.7682 456.4(3) 454.5836 436.6714
3559 32.7761 453.5(3) 449.9143 436.7053
3560 32.7841 450.6(3) 445.5855 436.7396
3561 32.7920 447.1(3) 442.1994 436.7735
3562 32.8000 444.6(3) 439.8206 436.8079
3563 32.8079 442.7(3) 438.3873 436.8418
3564 32.8159 441.8(3) 437.6092 436.8761
3565 32.8238 440.7(3) 437.2519 436.9100
3566 32.8317 439.3(3) 437.1134 436.9439
3567 32.8397 438.1(3) 437.0774 436.9783
3568 32.8476 438.6(3) 437.0846 437.0122
3569 32.8556 438.5(3) 437.1081 437.0465
3570 32.8635 438.8(3) 437.1369 437.0804
3571 32.8715 438.6(3) 437.1683 437.1148
3572 32.8794 439.5(3) 437.2003 437.1487
3573 32.8874 440.2(3) 437.2336 437.1830
3574 32.8953 439.9(3) 437.2670 437.2169
3575 32.9033 439.6(3) 437.3014 437.2513
3576 32.9112 439.0(3) 437.3360 437.2852
3577 32.9192 438.6(3) 437.3720 437.3195
3578 32.9271 438.2(3) 437.4081 437.3535
3579 32.9351 438.3(3) 437.4459 437.3878
3580 32.9430 438.8(3) 437.4864 437.4217
3581 32.9509 439.3(3) 437.5354 437.4556
3582 32.9589 439.7(3) 437.6099 437.4899
3583 32.9668 440.4(3) 437.7479 437.5239
3584 32.9748 441.4(3) 438.0401 437.5582
3585 32.9827 443.1(3) 438.6348 437.5921
3586 32.9907 444.7(3) 439.7838 437.6264
3587 32.9986 447.1(3) 441.7263 437.6604
3588 33.0066 449.8(3) 444.7139 437.6947
3589 33.0145 452.7(3) 448.6671 437.7286
3590 33.0225 455.1(3) 453.3736 437.7629
3591 33.0304 456.1(3) 458.1282 437.7968
3592 33.0384 456.7(3) 462.3070 437.8312
3593 33.0463 456.2(3) 465.1330 437.8651
3594 33.0543 455.7(3) 466.1224 437.8178
3595 33.0622 454.0(3) 465.0341 437.6725
3596 33.0701 451.5(3) 462.1192 437.5272
3597 33.0781 449.2(3) 457.8423 437.3800
3598 33.0860 446.8(3) 453.1575 437.2347
3599 33.0940 445.5(3) 448.8583 437.0874
3600 33.1019 445.1(3) 445.7061 436.9422
3601 33.1099 444.6(3) 443.8399 436.7950
3602 33.1178 444.6(3) 443.1038 436.6496
3603 33.1258 444.5(3) 442.9864 436.5025
3604 33.1337 444.7(3) 442.9415 436.3571
3605 33.1417 443.5(3) 442.5476 436.2100
3606 33.1496 441.8(3) 441.6678 436.0646
3607 33.1576 440.7(3) 440.4097 435.9175
3608 33.1655 439.9(3) 439.1004 435.7722
3609 33.1735 439.3(3) 438.0507 435.6250
3610 33.1814 438.5(3) 437.6019 435.4797
3611 33.1894 438.9(3) 438.0424 435.3325
3612 33.1973 439.8(3) 439.6378 435.1872
3613 33.2052 442.3(3) 442.5564 435.0418
3614 33.2132 444.6(3) 446.7296 434.8947
3615 33.2211 446.9(3) 451.4470 434.7494
3616 33.2291 448.3(3) 455.7665 434.6022
3617 33.2370 449.8(3) 458.4863 434.4568
3618 33.2450 449.9(3) 459.1263 434.3097
3619 33.2529 450.5(3) 458.1324 434.1644
3620 33.2609 450.3(3) 456.8168 434.0172
3621 33.2688 451.2(3) 456.6427 433.8719
3622 33.2768 451.7(3) 458.3095 433.7247
3623 33.2847 453.0(3) 461.2867 433.5794
3624 33.2927 454.4(3) 464.2217 433.4322
3625 33.3006 455.8(3) 465.5494 433.2869
3626 33.3085 455.6(3) 464.6431 433.1416
3627 33.3165 454.2(3) 461.9111 432.9944
3628 33.3244 452.0(3) 458.5392 432.8490
3629 33.3324 450.2(3) 455.4082 432.7018
3630 33.3403 448.4(3) 452.8528 432.5565
3631 33.3483 446.7(3) 450.4286 432.4094
3632 33.3562 444.9(3) 447.6895 432.2640
3633 33.3642 443.2(3) 444.4082 432.1169
3634 33.3721 441.2(3) 440.9527 431.9716
3635 33.3801 439.8(3) 437.7284 431.8244
3636 33.3880 439.0(3) 435.1955 431.6790
3637 33.3960 438.7(3) 433.4138 431.5319
3638 33.4039 438.3(3) 432.3228 431.3866
3639 33.4119 437.6(3) 431.6861 431.2394
3640 33.4198 437.0(3) 431.3242 431.0941
3641 33.4277 436.7(3) 431.0936 430.9487
3642 33.4357 436.2(3) 430.9202 430.8016
3643 33.4436 435.8(3) 430.7812 430.6562
3644 33.4516 434.9(3) 430.6826 430.5091
3645 33.4595 435.3(3) 430.6819 430.3638
3646 33.4675 436.7(3) 430.9120 430.2166
3647 33.4754 438.5(3) 431.6096 430.0713
3648 33.4834 440.7(3) 433.1532 429.9241
3649 33.4913 443.6(3) 435.8757 429.7788
3650 33.4993 448.2(3) 440.0092 429.6316
3651 33.5072 453.5(3) 445.1208 429.4863
3652 33.5152 457.8(3) 450.3705 429.3391
3653 33.5231 459.7(3) 454.2671 429.1937
3654 33.5311 460.0(3) 455.7229 429.0466
3655 33.5390 458.2(3) 454.3763 428.9012
3656 33.5470 455.5(3) 450.9612 428.7541
3657 33.5549 452.5(3) 446.9814 428.6088
3658 33.5628 449.7(3) 443.7695 428.4634
3659 33.5708 447.9(3) 442.1659 428.3163
3660 33.5787 447.3(3) 442.4865 428.1709
3661 33.5867 446.9(3) 444.6429 428.0238
3662 33.5946 446.3(3) 448.2551 427.8784
3663 33.6026 446.1(3) 452.7332 427.7313
3664 33.6105 446.0(3) 456.8127 427.5859
3665 33.6185 445.5(3) 459.1337 427.4388
3666 33.6264 444.2(3) 458.5265 427.2935
3667 33.6344 442.9(3) 454.8461 427.1463
3668 33.6423 441.2(3) 449.1501 427.0010
3669 33.6503 439.0(3) 442.8215 426.8538
3670 33.6582 436.9(3) 437.3086 426.7085
3671 33.6661 436.3(3) 433.1656 426.5631
3672 33.6741 435.6(3) 430.3727 426.4160
3673 33.6820 435.8(3) 428.6778 426.2707
3674 33.6900 435.4(3) 427.7005 426.1235
3675 33.6979 435.7(3) 427.2964 425.9782
3676 33.7059 435.5(3) 427.4897 425.8310
3677 33.7138 435.9(3) 428.4695 425.6857
3678 33.7218 436.6(3) 430.5093 425.5385
3679 33.7297 436.6(3) 433.6583 425.3932
3680 33.7377 436.6(3) 437.7287 425.2460
3681 33.7456 436.7(3) 441.8444 425.1006
3682 33.7536 437.4(3) 444.9655 424.9535
3683 33.7615 437.6(3) 445.9742 424.8081
3684 33.7695 436.9(3) 444.4719 424.6610
3685 33.7774 436.6(3) 440.9557 424.5157
3686 33.7854 436.3(3) 436.4301 424.3685
3687 33.7933 436.0(3) 432.1515 424.2232
3688 33.8012 435.3(3) 428.8362 424.0778
3689 33.8092 435.1(3) 426.7529 423.9307
3690 33.8171 435.5(3) 425.8883 423.7853
3691 33.8251 435.4(3) 425.9976 423.6382
3692 33.8330 435.5(3) 426.8070 423.4929
3693 33.8410 435.8(3) 428.0005 423.3457
3694 33.8489 437.0(3) 429.1369 423.2003
3695 33.8569 437.2(3) 429.8108 423.0532
3696 33.8648 436.0(3) 429.7215 422.9079
3697 33.8728 434.4(3) 428.8758 422.7607
3698 33.8807 433.0(3) 427.6012 422.6154
3699 33.8887 432.1(3) 426.3152 422.4682
3700 33.8966 431.1(3) 425.4190 422.3229
3701 33.9046 430.9(3) 425.0431 422.1758
3702 33.9125 430.4(3) 425.0994 422.0304
3703 33.9204 430.5(3) 425.3130 421.8851
3704 33.9284 429.2(3) 425.3820 421.7379
3705 33.9363 428.7(3) 425.1046 421.5926
3706 33.9443 427.7(3) 424.4568 421.4453
3707 33.9522 428.2(3) 423.5971 421.3000
3708 33.9602 427.7(3) 422.7030 421.1529
3709 33.9681 427.4(3) 421.9503 421.0075
3710 33.9761 425.9(3) 421.3884 420.8604
3711 33.9840 425.0(3) 421.0272 420.7150
3712 33.9920 424.5(3) 420.8261 420.5679
3713 33.9999 425.2(3) 420.7663 420.4225
3714 34.0079 426.3(3) 420.8365 420.2754
3715 34.0158 426.6(3) 421.0213 420.1301
3716 34.0238 427.0(3) 421.2816 419.9829
3717 34.0317 427.9(3) 421.5332 419.8376
3718 34.0396 429.1(3) 421.7017 419.6922
3719 34.0476 429.3(3) 421.7867 419.5451
3720 34.0555 430.2(3) 421.9463 419.3997
3721 34.0635 431.3(3) 422.5457 419.2526
3722 34.0714 432.9(3) 424.0412 419.1073
3723 34.0794 433.5(3) 426.8475 418.9601
3724 34.0873 434.2(3) 430.8599 418.8148
3725 34.0953 434.9(3) 435.4949 418.6676
3726 34.1032 435.7(3) 439.3950 418.5223
3727 34.1112 435.8(3) 441.2943 418.3751
3728 34.1191 434.8(3) 440.3965 418.2298
3729 34.1271 433.3(3) 436.9792 418.0826
3730 34.1350 432.6(3) 432.3047 417.9373
3731 34.1430 431.8(3) 427.6771 417.7901
3732 34.1509 430.2(3) 424.2501 417.6447
3733 34.1588 428.3(3) 422.3460 417.4995
3734 34.1668 427.3(3) 421.7973 417.3523
3735 34.1747 426.7(3) 422.1385 417.2069
3736 34.1827 425.9(3) 422.7975 417.0598
3737 34.1906 425.2(3) 423.2536 416.9144
3738 34.1986 424.5(3) 423.1763 416.7673
3739 34.2065 424.5(3) 422.4632 416.6219
3740 34.2145 423.7(3) 421.2349 416.4748
3741 34.2224 423.1(3) 419.8154 416.3295
3742 34.2304 422.7(3) 418.4837 416.1823
3743 34.2383 423.4(3) 417.4951 416.0370
3744 34.2463 423.9(3) 416.8936 415.8459
3745 34.2542 424.1(3) 416.7589 415.6437
3746 34.2622 423.9(3) 417.0929 415.4389
3747 34.2701 423.8(3) 417.8213 415.2367
3748 34.2780 423.5(3) 418.7739 415.0345
3749 34.2860 423.3(3) 419.6667 414.8298
3750 34.2939 423.4(3) 420.1342 414.6276
3751 34.3019 423.2(3) 419.9471 414.4228
3752 34.3098 422.1(3) 419.1137 414.2206
3753 34.3178 420.6(3) 417.8578 414.0159
3754 34.3257 419.3(3) 416.5486 413.8137
3755 34.3337 418.6(3) 415.4461 413.6089
3756 34.3416 417.9(3) 414.7635 413.4067
3757 34.3496 419.1(3) 414.6223 413.2018
3758 34.3575 420.1(3) 415.1936 412.9998
3759 34.3655 422.3(3) 416.6962 412.7949
3760 34.3734 424.2(3) 419.1826 412.5927
3761 34.3814 426.7(3) 422.4684 412.3879
3762 34.3893 428.0(3) 425.7636 412.1857
3763 34.3972 428.6(3) 428.0935 411.9835
3764 34.4052 427.4(3) 428.5659 411.7788
3765 34.4131 425.2(3) 426.9105 411.5766
3766 34.4211 422.0(3) 423.6318 411.3718
3767 34.4290 419.3(3) 419.8099 411.1696
3768 34.4370 417.4(3) 416.2955 410.9649
3769 34.4449 415.7(3) 413.6887 410.7627
3770 34.4529 413.9(3) 411.9832 410.5579
3771 34.4608 413.0(3) 411.0079 410.3557
3772 34.4688 412.6(3) 410.4641 410.1510
3773 34.4767 412.6(3) 410.1645 409.9488
3774 34.4847 412.4(3) 410.0035 409.7440
3775 34.4926 413.3(3) 409.9922 409.5418
3776 34.5006 414.1(3) 410.2432 409.3370
3777 34.5085 414.9(3) 410.9755 409.1348
3778 34.5164 415.6(3) 412.4876 408.9326
3779 34.5244 417.7(3) 415.0505 408.7279
3780 34.5323 419.9(3) 418.5405 408.5257
3781 34.5403 421.8(3) 422.5132 408.3209
3782 34.5482 422.6(3) 425.9980 408.1187
3783 34.5562 422.7(3) 428.3036 407.9140
3784 34.5641 423.4(3) 429.2541 407.7118
3785 34.5721 423.9(3) 429.5400 407.5069
3786 34.5800 423.9(3) 430.0244 407.3047
3787 34.5880 423.8(3) 431.0027 407.1000
3788 34.5959 423.7(3) 431.8056 406.8978
3789 34.6039 423.7(3) 431.3188 406.6930
3790 34.6118 422.3(3) 428.8748 406.4908
3791 34.6198 420.0(3) 424.7507 406.2860
3792 34.6277 416.3(3) 420.1373 406.0838
3793 34.6356 413.4(3) 416.0848 405.8817
3794 34.6436 411.7(3) 413.0986 405.6769
3795 34.6515 410.4(3) 411.1430 405.4747
3796 34.6595 409.0(3) 409.7259 405.2699
3797 34.6674 407.9(3) 408.5112 405.0677
3798 34.6754 407.7(3) 407.3354 404.8630
3799 34.6833 406.9(3) 406.2770 404.6608
3800 34.6913 406.1(3) 405.3987 404.4560
3801 34.6992 405.0(3) 404.7549 404.2538
3802 34.7072 403.9(3) 404.2970 404.0491
3803 34.7151 403.7(3) 403.9724 403.8469
3804 34.7231 403.9(3) 403.7149 403.6421
3805 34.7310 403.7(3) 403.4931 403.4399
3806 34.7390 402.8(3) 403.2820 403.2352
3807 34.7469 402.3(3) 403.0792 403.0330
3808 34.7548 402.8(3) 402.8824 402.8307
3809 34.7628 402.5(3) 402.6984 402.6260
3810 34.7707 402.2(3) 402.5609 402.4238
3811 34.7787 401.7(3) 402.5390 402.2189
3812 34.7866 403.6(3) 402.7750 402.0168
3813 34.7946 404.6(3) 403.4984 401.8120
3814 34.8025 406.1(3) 404.9278 401.6098
3815 34.8105 407.6(3) 407.1981 401.4050
3816 34.8184 409.4(3) 410.0112 401.2028
3817 34.8264 411.0(3) 412.7675 400.9981
3818 34.8343 411.4(3) 414.5162 400.7959
3819 34.8423 412.0(3) 414.6241 400.5911
3820 34.8502 411.1(3) 413.0493 400.3889
3821 34.8582 409.8(3) 410.3658 400.1842
3822 34.8661 407.2(3) 407.4857 399.9820
3823 34.8740 405.5(3) 405.0127 399.7798
3824 34.8820 404.2(3) 403.1639 399.5750
3825 34.8899 402.6(3) 401.9153 399.3728
3826 34.8979 402.0(3) 401.0599 399.1681
3827 34.9058 402.1(3) 400.4764 398.9659
3828 34.9138 401.7(3) 400.0634 398.7611
3829 34.9217 400.4(3) 399.7816 398.5589
3830 34.9297 398.9(3) 399.5874 398.3541
3831 34.9376 398.5(3) 399.4484 398.1519
3832 34.9456 399.1(3) 399.3091 397.9472
3833 34.9535 399.4(3) 399.1112 397.7450
3834 34.9615 399.6(3) 398.8025 397.5402
3835 34.9694 398.7(3) 398.3896 397.3380
3836 34.9774 398.6(3) 397.9101 397.1332
3837 34.9853 398.1(3) 397.4427 396.9311
3838 34.9932 398.3(3) 397.0301 396.7289
3839 35.0012 397.8(3) 396.6857 396.5240
3840 35.0091 397.1(3) 396.4095 396.3218
3841 35.0171 396.6(3) 396.1769 396.1171
3842 35.0250 396.1(3) 395.9834 395.9149
3843 35.0330 395.7(3) 395.8268 395.7101
3844 35.0409 395.3(3) 395.7239 395.5079
3845 35.0489 395.0(3) 395.6828 395.3031
3846 35.0568 395.2(3) 395.6958 395.1009
3847 35.0648 395.6(3) 395.7213 394.8962
3848 35.0727 395.3(3) 395.6918 394.6940
3849 35.0807 395.0(3) 395.5433 394.4892
3850 35.0886 394.9(3) 395.2571 394.2870
3851 35.0966 395.4(3) 394.8613 394.0823
3852 35.1045 396.0(3) 394.4334 393.8801
3853 35.1124 396.4(3) 394.0324 393.6779
3854 35.1204 395.8(3) 393.6917 393.4731
3855 35.1283 394.5(3) 393.4347 393.2709
3856 35.1363 394.9(3) 393.2752 393.0662
3857 35.1442 395.7(3) 393.2804 392.8640
3858 35.1522 397.1(3) 393.5942 392.6592
3859 35.1601 397.5(3) 394.4329 392.4570
3860 35.1681 398.6(3) 396.0686 392.2523
3861 35.1760 398.7(3) 398.5917 392.0500
3862 35.1840 399.7(3) 401.9054 391.8453
3863 35.1919 400.7(3) 405.3840 391.6431
3864 35.1999 402.0(3) 408.2609 391.4382
3865 35.2078 402.0(3) 409.6234 391.2360
3866 35.2158 402.0(3) 409.0373 391.0313
3867 35.2237 402.1(3) 406.6727 390.8291
3868 35.2316 402.6(3) 403.3140 390.6269
3869 35.2396 403.2(3) 400.0130 390.4221
3870 35.2475 403.3(3) 397.7807 390.2199
3871 35.2555 403.9(3) 396.9586 390.0152
3872 35.2634 404.9(3) 397.3265 389.8130
3873 35.2714 406.6(3) 398.2197 389.6082
3874 35.2793 407.9(3) 398.9173 389.4060
3875 35.2873 408.3(3) 399.0471 389.2013
3876 35.2952 408.0(3) 398.6316 388.9991
3877 35.3032 407.2(3) 397.8959 388.7943
3878 35.3111 407.0(3) 397.0573 388.5921
3879 35.3191 407.0(3) 396.2364 388.3873
3880 35.3270 407.6(3) 395.7029 388.1852
3881 35.3350 407.8(3) 395.9322 387.9804
3882 35.3429 408.1(3) 397.5061 387.7782
3883 35.3508 409.5(3) 400.7343 387.5760
3884 35.3588 410.7(3) 405.2712 387.3712
3885 35.3667 411.5(3) 409.6969 387.1690
3886 35.3747 410.6(3) 412.3080 386.9643
3887 35.3826 409.1(3) 411.7177 386.7621
3888 35.3906 407.7(3) 407.9044 386.5573
3889 35.3985 405.5(3) 402.2621 386.3551
3890 35.4065 402.2(3) 396.4375 386.1503
3891 35.4144 399.5(3) 391.9268 385.9482
3892 35.4224 398.1(3) 389.2266 385.7433
3893 35.4303 399.5(3) 388.5660 385.5445
3894 35.4383 401.8(3) 390.1298 385.3938
3895 35.4462 406.3(3) 394.1241 385.2450
3896 35.4542 411.9(3) 400.7029 385.0943
3897 35.4621 418.4(3) 408.8481 384.9455
3898 35.4700 423.3(3) 416.5692 384.7966
3899 35.4780 423.5(3) 421.2226 384.6459
3900 35.4859 419.5(3) 420.7773 384.4971
3901 35.4939 412.9(3) 415.3469 384.3464
3902 35.5018 406.1(3) 407.1372 384.1976
3903 35.5098 400.0(3) 398.6580 384.0469
3904 35.5177 395.6(3) 392.0159 383.8981
3905 35.5257 391.9(3) 387.6440 383.7474
3906 35.5336 388.3(3) 385.2670 383.5986
3907 35.5416 385.7(3) 384.0964 383.4479
3908 35.5495 384.9(3) 383.5576 383.2990
3909 35.5575 385.1(3) 383.2720 383.1483
3910 35.5654 384.3(3) 383.0804 382.9995
3911 35.5734 383.2(3) 382.9145 382.8488
3912 35.5813 383.1(3) 382.7585 382.7000
3913 35.5892 382.9(3) 382.6052 382.5512
3914 35.5972 382.5(3) 382.4520 382.4005
3915 35.6051 381.2(3) 382.3032 382.2516
3916 35.6131 381.4(3) 382.1576 382.1010
3917 35.6210 381.1(3) 382.0233 381.9521
3918 35.6290 381.4(3) 381.9039 381.8014
3919 35.6369 380.8(3) 381.8058 381.6525
3920 35.6449 381.2(3) 381.7287 381.5019
3921 35.6528 381.1(3) 381.6766 381.3530
3922 35.6608 380.7(3) 381.6656 381.2023
3923 35.6687 380.2(3) 381.7552 381.0535
3924 35.6767 380.9(3) 382.0585 380.9028
3925 35.6846 382.1(3) 382.6839 380.7540
3926 35.6926 382.0(3) 383.6643 380.6033
3927 35.7005 382.3(3) 384.7883 380.4545
3928 35.7085 382.4(3) 385.6920 380.3038
3929 35.7164 382.2(3) 385.9409 380.1549
3930 35.7243 381.3(3) 385.3674 380.0061
3931 35.7323 380.5(3) 384.1263 379.8554
3932 35.7402 380.0(3) 382.6557 379.7066
3933 35.7482 379.9(3) 381.3155 379.5559
3934 35.7561 379.2(3) 380.3425 379.4071
3935 35.7641 378.3(3) 379.7243 379.2564
3936 35.7720 377.6(3) 379.4029 379.1075
3937 35.7800 378.0(3) 379.3401 378.9569
3938 35.7879 378.5(3) 379.6509 378.8080
3939 35.7959 379.0(3) 380.6526 378.6573
3940 35.8038 379.9(3) 382.7534 378.5085
3941 35.8118 380.9(3) 386.3170 378.3578
3942 35.8197 382.8(3) 391.0210 378.2090
3943 35.8276 384.4(3) 395.8602 378.0602
3944 35.8356 384.9(3) 399.2512 377.9094
3945 35.8435 384.8(3) 399.7291 377.7607
3946 35.8515 384.1(3) 397.0726 377.6099
3947 35.8594 383.9(3) 392.4209 377.4611
3948 35.8674 382.3(3) 387.3082 377.3104
3949 35.8753 381.2(3) 383.1256 377.1615
3950 35.8833 379.4(3) 380.2597 377.0109
3951 35.8912 379.2(3) 378.6583 376.8620
3952 35.8992 378.4(3) 377.9799 376.7113
3953 35.9071 378.8(3) 378.1331 376.5625
3954 35.9151 379.5(3) 379.4247 376.4118
3955 35.9230 382.4(3) 382.6504 376.2630
3956 35.9310 385.5(3) 389.2078 376.1123
3957 35.9389 389.5(3) 400.1452 375.9635
3958 35.9468 394.7(3) 415.4612 375.8146
3959 35.9548 400.9(3) 432.8651 375.6639
3960 35.9627 407.0(3) 447.0058 375.5151
3961 35.9707 409.7(3) 453.0196 375.3644
3962 35.9786 408.9(3) 448.6232 375.2156
3963 35.9866 404.9(3) 436.0821 375.0649
3964 35.9945 399.2(3) 420.6141 374.9161
3965 36.0025 393.1(3) 406.1957 374.7654
3966 36.0104 388.0(3) 395.1532 374.6166
3967 36.0184 385.3(3) 387.2478 374.4659
3968 36.0263 382.7(3) 382.0199 374.3170
3969 36.0343 381.3(3) 378.8318 374.1663
3970 36.0422 380.8(3) 377.6834 374.0175
3971 36.0502 380.9(3) 378.8817 373.8668
3972 36.0581 382.0(3) 382.9960 373.7179
3973 36.0661 383.8(3) 390.4873 373.5672
3974 36.0740 386.7(3) 400.4053 373.4184
3975 36.0819 389.1(3) 410.3909 373.2696
3976 36.0899 391.9(3) 416.9977 373.1189
3977 36.0978 392.7(3) 417.3387 372.9701
3978 36.1058 391.8(3) 411.3847 372.8194
3979 36.1137 390.1(3) 401.9635 372.6705
3980 36.1217 387.3(3) 392.4046 372.5199
3981 36.1296 384.7(3) 385.2684 372.3710
3982 36.1376 381.8(3) 380.8079 372.2203
3983 36.1455 379.5(3) 378.3152 372.0715
3984 36.1535 377.4(3) 376.7521 371.9208
3985 36.1614 376.5(3) 375.7114 371.7720
3986 36.1694 375.9(3) 375.2322 371.6213
3987 36.1773 375.0(3) 375.5654 371.4725
3988 36.1852 374.0(3) 376.7631 371.3236
3989 36.1932 374.2(3) 378.5291 371.1729
3990 36.2011 374.2(3) 380.1180 371.0241
3991 36.2091 373.6(3) 380.7570 370.8734
3992 36.2170 373.2(3) 379.9924 370.7246
3993 36.2250 374.0(3) 378.0342 370.5739
3994 36.2329 374.6(3) 375.6460 370.4251
3995 36.2409 374.5(3) 373.5175 370.2744
3996 36.2488 374.8(3) 372.1135 370.1255
3997 36.2568 375.7(3) 371.4637 369.9748
3998 36.2647 376.7(3) 371.5128 369.8260
3999 36.2727 378.2(3) 372.2803 369.6753
4000 36.2806 380.9(3) 373.8955 369.5265
4001 36.2886 383.6(3) 376.4975 369.3758
4002 36.2965 386.2(3) 379.8122 369.2269
4003 36.3045 389.0(3) 383.4076 369.0762
4004 36.3124 391.7(3) 386.8872 368.9274
4005 36.3203 394.8(3) 390.9064 368.7786
4006 36.3283 397.8(3) 397.2446 368.6279
4007 36.3362 402.9(3) 407.4868 368.4791
4008 36.3442 407.6(3) 421.9749 368.3284
4009 36.3521 412.3(3) 437.7938 368.1795
4010 36.3601 415.6(3) 450.9161 368.0289
4011 36.3680 417.7(3) 457.1695 367.8800
4012 36.3760 416.7(3) 455.2116 367.7293
4013 36.3839 412.1(3) 445.9022 367.5805
4014 36.3919 406.4(3) 431.1367 367.4298
4015 36.3998 400.2(3) 414.1472 367.2810
4016 36.4078 394.7(3) 397.6985 367.1303
4017 36.4157 389.3(3) 384.6573 366.9815
4018 36.4237 384.6(3) 375.7239 366.8308
4019 36.4316 380.3(3) 370.6931 366.6819
4020 36.4395 377.4(3) 368.2853 366.5331
4021 36.4475 375.8(3) 367.4113 366.3824
4022 36.4554 375.1(3) 367.4224 366.2336
4023 36.4634 375.6(3) 368.0048 366.0828
4024 36.4713 375.8(3) 368.9353 365.9341
4025 36.4793 376.2(3) 369.9311 365.7833
4026 36.4872 376.4(3) 370.6003 365.6345
4027 36.4952 377.1(3) 370.8112 365.4838
4028 36.5031 377.5(3) 370.9755 365.3350
4029 36.5111 378.1(3) 372.1847 365.1843
4030 36.5190 380.0(3) 375.7438 365.0355
4031 36.5270 382.3(3) 382.4978 364.8848
4032 36.5349 384.5(3) 391.4358 364.7359
4033 36.5429 385.7(3) 399.9757 364.5852
4034 36.5508 386.2(3) 404.3205 364.4364
4035 36.5587 385.3(3) 402.4004 364.2876
4036 36.5667 383.0(3) 394.8658 364.1369
4037 36.5746 380.3(3) 385.0298 363.9881
4038 36.5826 376.9(3) 375.9837 363.8374
4039 36.5905 373.3(3) 369.7144 363.6885
4040 36.5985 370.5(3) 366.1252 363.5378
4041 36.6064 369.1(3) 364.5006 363.3890
4042 36.6144 368.2(3) 363.9773 363.2383
4043 36.6223 367.4(3) 364.1304 363.1168
4044 36.6303 367.2(3) 364.7798 363.0389
4045 36.6382 367.2(3) 365.6992 362.9619
4046 36.6462 366.8(3) 366.6126 362.8840
4047 36.6541 366.4(3) 367.1111 362.8071
4048 36.6621 366.4(3) 366.9359 362.7292
4049 36.6700 365.8(3) 366.1397 362.6522
4050 36.6779 365.4(3) 365.0519 362.5753
4051 36.6859 365.2(3) 364.0562 362.4973
4052 36.6938 365.9(3) 363.4738 362.4204
4053 36.7018 366.3(3) 363.4850 362.3425
4054 36.7097 366.7(3) 364.2828 362.2655
4055 36.7177 367.4(3) 366.1422 362.1877
4056 36.7256 367.9(3) 369.2644 362.1107
4057 36.7336 369.5(3) 373.8433 362.0328
4058 36.7415 371.9(3) 379.5898 361.9558
4059 36.7495 375.1(3) 385.9640 361.8779
4060 36.7574 377.5(3) 391.5332 361.8010
4061 36.7654 378.9(3) 394.8242 361.7231
4062 36.7733 378.9(3) 394.7381 361.6461
4063 36.7813 377.9(3) 391.6747 361.5682
4064 36.7892 376.3(3) 387.1735 361.4913
4065 36.7971 373.6(3) 382.4694 361.4143
4066 36.8051 370.6(3) 377.8953 361.3364
4067 36.8130 367.8(3) 373.4977 361.2595
4068 36.8210 365.8(3) 369.3197 361.1816
4069 36.8289 364.2(3) 365.8898 361.1046
4070 36.8369 363.8(3) 363.4490 361.0267
4071 36.8448 363.6(3) 362.0295 360.9498
4072 36.8528 363.1(3) 361.3060 360.8719
4073 36.8607 362.4(3) 360.9769 360.7949
4074 36.8687 361.9(3) 360.8130 360.7170
4075 36.8766 361.1(3) 360.7111 360.6401
4076 36.8846 359.7(3) 360.6289 360.5621
4077 36.8925 359.2(3) 360.5631 360.4852
4078 36.9005 360.0(3) 360.5289 360.4073
4079 36.9084 361.5(3) 360.5705 360.3303
4080 36.9163 362.2(3) 360.7708 360.2534
4081 36.9243 362.3(3) 361.2748 360.1755
4082 36.9322 361.8(3) 362.2657 360.0985
4083 36.9402 362.2(3) 364.0009 360.0206
4084 36.9481 362.7(3) 366.5897 359.9437
4085 36.9561 362.9(3) 369.9403 359.8658
4086 36.9640 362.9(3) 373.2722 359.7888
4087 36.9720 363.0(3) 375.4816 359.7109
4088 36.9799 362.4(3) 375.4547 359.6340
4089 36.9879 361.1(3) 373.0242 359.5561
4090 36.9958 360.9(3) 369.1976 359.4791
4091 37.0038 361.3(3) 365.2847 359.4012
4092 37.0117 360.9(3) 362.3524 359.3243
4093 37.0197 360.4(3) 360.5602 359.2464
4094 37.0276 359.5(3) 359.6740 359.1694
4095 37.0355 358.9(3) 359.2779 359.0925
4096 37.0435 358.6(3) 359.0942 359.0146
4097 37.0514 359.4(3) 358.9879 358.9376
4098 37.0594 359.2(3) 358.9042 358.8597
4099 37.0673 358.7(3) 358.8341 358.7828
4100 37.0753 359.2(3) 358.7818 358.7049
4101 37.0832 359.3(3) 358.7640 358.6279
4102 37.0912 358.3(3) 358.7959 358.5500
4103 37.0991 357.9(3) 358.8774 358.4731
4104 37.1071 358.8(3) 358.9977 358.3951
4105 37.1150 358.9(3) 359.1600 358.3182
4106 37.1230 358.1(3) 359.4827 358.2403
4107 37.1309 357.8(3) 360.2337 358.1633
4108 37.1389 360.0(3) 361.7740 358.0854
4109 37.1468 361.8(3) 364.1359 358.0085
4110 37.1547 362.8(3) 366.8113 357.9315
4111 37.1627 363.7(3) 368.7697 357.8536
4112 37.1706 363.9(3) 369.0157 357.7767
4113 37.1786 363.2(3) 367.5107 357.6988
4114 37.1865 362.0(3) 365.2679 357.6218
4115 37.1945 360.7(3) 363.5012 357.5439
4116 37.2024 359.4(3) 362.9033 357.4670
4117 37.2104 358.5(3) 363.1794 357.3891
4118 37.2183 358.9(3) 363.4868 357.3121
4119 37.2263 359.0(3) 363.1234 357.2342
4120 37.2342 358.0(3) 362.0244 357.1573
4121 37.2422 357.6(3) 360.6272 357.0793
4122 37.2501 358.3(3) 359.4740 357.0024
4123 37.2581 358.5(3) 358.7331 356.9245
4124 37.2660 357.5(3) 358.3103 356.8476
4125 37.2739 356.6(3) 358.0319 356.7706
4126 37.2819 356.9(3) 357.9028 356.6927
4127 37.2898 357.8(3) 358.1190 356.6158
4128 37.2978 358.5(3) 358.8973 356.5378
4129 37.3057 358.9(3) 360.1947 356.4609
4130 37.3137 358.3(3) 361.6233 356.3830
4131 37.3216 359.4(3) 362.4702 356.3060
4132 37.3296 359.4(3) 362.2436 356.2281
4133 37.3375 358.8(3) 361.0126 356.1512
4134 37.3455 357.8(3) 359.3225 356.0732
4135 37.3534 358.9(3) 357.8459 355.9963
4136 37.3614 358.0(3) 356.9182 355.9184
4137 37.3693 357.1(3) 356.6823 355.8415
4138 37.3773 356.9(3) 357.2101 355.7635
4139 37.3852 358.1(3) 358.5895 355.6866
4140 37.3931 358.7(3) 360.7366 355.6096
4141 37.4011 357.9(3) 363.1212 355.5317
4142 37.4090 357.6(3) 364.6955 355.4548
4143 37.4170 358.4(3) 364.6472 355.3769
4144 37.4249 360.2(3) 362.9609 355.3000
4145 37.4329 358.9(3) 360.4246 355.2220
4146 37.4408 357.7(3) 358.0861 355.1451
4147 37.4488 357.5(3) 356.4445 355.0672
4148 37.4567 357.8(3) 355.5615 354.9902
4149 37.4647 357.7(3) 355.1888 354.9123
4150 37.4726 357.2(3) 355.1632 354.8354
4151 37.4806 356.6(3) 355.4737 354.7575
4152 37.4885 357.0(3) 356.2007 354.6805
4153 37.4965 357.6(3) 357.3625 354.6026
4154 37.5044 359.0(3) 358.6482 354.5257
4155 37.5123 358.8(3) 359.5285 354.4487
4156 37.5203 357.9(3) 359.5133 354.3708
4157 37.5282 356.5(3) 358.5709 354.2939
4158 37.5362 355.7(3) 357.1377 354.2159
4159 37.5441 354.9(3) 355.8203 354.1390
4160 37.5521 354.4(3) 354.9213 354.0611
4161 37.5600 355.5(3) 354.4874 353.9842
4162 37.5680 356.2(3) 354.3597 353.9062
4163 37.5759 356.0(3) 354.3650 353.8293
4164 37.5839 355.1(3) 354.3590 353.7514
4165 37.5918 353.7(3) 354.2635 353.6744
4166 37.5998 353.6(3) 354.0767 353.5965
4167 37.6077 355.2(3) 353.8606 353.5196
4168 37.6157 356.9(3) 353.6824 353.4417
4169 37.6236 358.2(3) 353.6289 353.3647
4170 37.6315 359.0(3) 353.8660 353.2878
4171 37.6395 361.2(3) 354.8064 353.2099
4172 37.6474 364.6(3) 357.1240 353.1329
4173 37.6554 366.4(3) 361.6419 353.0550
4174 37.6633 367.0(3) 368.4009 352.9781
4175 37.6713 368.8(3) 376.4458 352.9002
4176 37.6792 371.9(3) 383.2878 352.8232
4177 37.6872 373.4(3) 386.6789 352.7453
4178 37.6951 373.9(3) 385.4216 352.6684
4179 37.7031 373.1(3) 380.1666 352.5905
4180 37.7110 372.6(3) 373.1292 352.5135
4181 37.7190 372.1(3) 366.6135 352.4356
4182 37.7269 372.1(3) 362.5525 352.3587
4183 37.7349 373.0(3) 361.6263 352.2807
4184 37.7428 374.2(3) 363.7148 352.2038
4185 37.7507 375.8(3) 367.6582 352.1268
4186 37.7587 376.8(3) 371.6013 352.0489
4187 37.7666 374.8(3) 373.8058 351.9720
4188 37.7746 373.4(3) 374.1460 351.8941
4189 37.7825 371.9(3) 373.5729 351.8171
4190 37.7905 370.4(3) 372.5768 351.7392
4191 37.7984 368.5(3) 370.6371 351.6623
4192 37.8064 366.5(3) 367.3011 351.5844
4193 37.8143 364.9(3) 363.4857 351.5222
4194 37.8223 363.9(3) 360.4729 351.4657
4195 37.8302 362.1(3) 358.8860 351.4100
4196 37.8382 360.4(3) 358.0575 351.3535
4197 37.8461 357.1(3) 357.0608 351.2978
4198 37.8541 356.2(3) 355.5330 351.2413
4199 37.8620 355.8(3) 353.8647 351.1855
4200 37.8699 355.7(3) 352.5164 351.1298
4201 37.8779 353.9(3) 351.6703 351.0733
4202 37.8858 353.9(3) 351.2495 351.0175
4203 37.8938 353.1(3) 351.0551 350.9611
4204 37.9017 352.1(3) 350.9572 350.9053
4205 37.9097 350.9(3) 350.8885 350.8489
4206 37.9176 350.4(3) 350.8285 350.7931
4207 37.9256 351.5(3) 350.7700 350.7367
4208 37.9335 351.8(3) 350.7132 350.6809
4209 37.9415 352.5(3) 350.6563 350.6244
4210 37.9494 351.6(3) 350.6007 350.5687
4211 37.9574 352.0(3) 350.5453 350.5122
4212 37.9653 351.8(3) 350.4919 350.4565
4213 37.9733 352.5(3) 350.4428 350.4000
4214 37.9812 353.4(3) 350.4147 350.3442
4215 37.9892 354.2(3) 350.4647 350.2878
4216 37.9971 355.7(3) 350.7494 350.2320
4217 38.0050 357.1(3) 351.5805 350.1762
4218 38.0130 358.9(3) 353.3801 350.1198
4219 38.0209 360.7(3) 356.2459 350.0640
4220 38.0289 361.8(3) 359.7052 350.0076
4221 38.0368 361.6(3) 362.5055 349.9518
4222 38.0448 361.5(3) 363.6822 349.8954
4223 38.0527 360.7(3) 363.1363 349.8396
4224 38.0607 359.6(3) 361.5330 349.7831
4225 38.0686 359.3(3) 359.4553 349.7274
4226 38.0766 360.1(3) 357.0334 349.6709
4227 38.0845 358.8(3) 354.5790 349.6152
4228 38.0925 357.7(3) 352.5345 349.5587
4229 38.1004 356.0(3) 351.3903 349.5030
4230 38.1083 355.6(3) 351.2079 349.4472
4231 38.1163 354.3(3) 351.7089 349.3907
4232 38.1242 352.7(3) 352.3415 349.3350
4233 38.1322 351.8(3) 352.5961 349.2785
4234 38.1401 352.3(3) 352.3446 349.2227
4235 38.1481 353.3(3) 352.0629 349.1663
4236 38.1560 353.8(3) 352.5755 349.1105
4237 38.1640 353.5(3) 354.4629 349.0540
4238 38.1719 355.2(3) 357.3398 348.9983
4239 38.1799 356.1(3) 359.8934 348.9418
4240 38.1878 355.0(3) 360.4832 348.8861
4241 38.1958 354.0(3) 358.6360 348.8296
4242 38.2037 354.3(3) 355.4241 348.7739
4243 38.2117 354.3(3) 352.3105 348.7174
4244 38.2196 354.0(3) 350.2444 348.6617
4245 38.2276 351.7(3) 349.1775 348.6052
4246 38.2355 350.7(3) 348.7413 348.5494
4247 38.2434 350.4(3) 348.5707 348.4937
4248 38.2514 350.7(3) 348.4864 348.4372
4249 38.2593 350.5(3) 348.4263 348.3814
4250 38.2673 351.2(3) 348.3734 348.3250
4251 38.2752 350.7(3) 348.3311 348.2692
4252 38.2832 351.3(3) 348.3109 348.2128
4253 38.2911 351.4(3) 348.3341 348.1570
4254 38.2991 352.5(3) 348.4279 348.1006
4255 38.3070 353.9(3) 348.6470 348.0448
4256 38.3150 355.2(3) 349.2066 347.9883
4257 38.3229 356.4(3) 350.6752 347.9326
4258 38.3309 357.6(3) 354.1772 347.8761
4259 38.3388 358.8(3) 360.7220 347.8204
4260 38.3468 360.2(3) 370.4008 347.7639
4261 38.3547 361.9(3) 380.5659 347.7082
4262 38.3626 363.5(3) 387.1171 347.6524
4263 38.3706 365.2(3) 386.5128 347.5959
4264 38.3785 364.0(3) 378.8412 347.5402
4265 38.3865 361.1(3) 367.8032 347.4837
4266 38.3944 359.2(3) 358.1560 347.4279
4267 38.4024 357.1(3) 351.9080 347.3715
4268 38.4103 354.5(3) 348.9074 347.3157
4269 38.4183 353.3(3) 347.7389 347.2592
4270 38.4262 353.1(3) 347.3584 347.2035
4271 38.4342 352.9(3) 347.2191 347.1470
4272 38.4421 351.4(3) 347.1416 347.0913
4273 38.4501 350.0(3) 347.0759 347.0348
4274 38.4580 348.8(3) 347.0140 346.9791
4275 38.4660 348.0(3) 346.9531 346.9226
4276 38.4739 347.8(3) 346.8939 346.8669
4277 38.4818 347.6(3) 346.8354 346.8111
4278 38.4898 347.1(3) 346.7767 346.7546
4279 38.4977 346.8(3) 346.7192 346.6989
4280 38.5057 347.1(3) 346.6614 346.6424
4281 38.5136 346.1(3) 346.6046 346.5867
4282 38.5216 347.0(3) 346.5474 346.5302
4283 38.5295 347.8(3) 346.4912 346.4744
4284 38.5375 348.1(3) 346.4346 346.4180
4285 38.5454 347.9(3) 346.3790 346.3622
4286 38.5534 348.6(3) 346.3236 346.3058
4287 38.5613 348.1(3) 346.2702 346.2500
4288 38.5693 347.5(3) 346.2234 346.1935
4289 38.5772 347.0(3) 346.2072 346.1378
4290 38.5852 346.2(3) 346.2915 346.0813
4291 38.5931 346.3(3) 346.6158 346.0255
4292 38.6010 346.3(3) 347.3518 345.9698
4293 38.6090 348.0(3) 348.5661 345.9133
4294 38.6169 350.1(3) 350.0198 345.8576
4295 38.6249 351.1(3) 351.3852 345.8011
4296 38.6328 350.7(3) 352.3684 345.7454
4297 38.6408 350.9(3) 352.8184 345.6889
4298 38.6487 352.0(3) 352.4471 345.6331
4299 38.6567 350.7(3) 351.0966 345.5767
4300 38.6646 349.7(3) 349.1932 345.5209
4301 38.6726 349.5(3) 347.4096 345.4644
4302 38.6805 350.0(3) 346.2380 345.4087
4303 38.6885 348.0(3) 345.6367 345.3522
4304 38.6964 346.5(3) 345.3854 345.2965
4305 38.7043 345.7(3) 345.2739 345.2407
4306 38.7123 347.1(3) 345.2039 345.1843
4307 38.7202 348.6(3) 345.1448 345.1285
4308 38.7282 347.5(3) 345.0870 345.0721
4309 38.7361 346.8(3) 345.0306 345.0163
4310 38.7441 346.0(3) 344.9738 344.9598
4311 38.7520 346.1(3) 344.9181 344.9041
4312 38.7600 345.2(3) 344.8618 344.8476
4313 38.7679 345.8(3) 344.8066 344.7919
4314 38.7759 345.5(3) 344.7517 344.7354
4315 38.7838 346.7(3) 344.7011 344.6796
4316 38.7918 347.3(3) 344.6651 344.6232
4317 38.7997 347.2(3) 344.6804 344.5674
4318 38.8077 347.6(3) 344.8352 344.5109
4319 38.8156 347.6(3) 345.2649 344.4552
4320 38.8236 348.2(3) 346.0810 344.3987
4321 38.8315 349.9(3) 347.1196 344.3430
4322 38.8394 350.3(3) 347.9125 344.2872
4323 38.8474 350.3(3) 347.9334 344.2307
4324 38.8553 350.3(3) 347.1240 344.1750
4325 38.8633 350.1(3) 345.9766 344.1185
4326 38.8712 347.7(3) 345.1058 344.0628
4327 38.8792 346.8(3) 344.7605 344.0063
4328 38.8871 345.9(3) 344.9644 343.9506
4329 38.8951 346.8(3) 345.8342 343.8941
4330 38.9030 348.2(3) 347.7230 343.8383
4331 38.9110 351.3(3) 350.8755 343.7819
4332 38.9189 353.2(3) 354.3499 343.7261
4333 38.9269 354.6(3) 356.3108 343.6696
4334 38.9348 355.5(3) 355.5566 343.6139
4335 38.9428 355.5(3) 353.3238 343.5574
4336 38.9507 354.1(3) 352.1983 343.5017
4337 38.9586 353.5(3) 353.2484 343.4459
4338 38.9666 352.1(3) 355.0152 343.3895
4339 38.9745 352.2(3) 354.9962 343.3337
4340 38.9825 350.8(3) 352.3978 343.2773
4341 38.9904 349.5(3) 348.7213 343.2215
4342 38.9984 349.4(3) 345.7485 343.2215
#BEGIN Loops that were not found in dictionaries:
loop_
_refln_mult
2
4
4
4
2
2
4
4
4
4
4
4
8
8
4
4
4
8
4
4
4
8
2
8
4
8
4
4
4
8
4
4
8
8
4
4
4
4
8
4
8
8
8
4
8
2
4
2
4
4
2
4
4
8
4
8
8
4
4
8
4
4
8
4
8
8
4
4
4
8
4
8
4
4
8
8
4
8
4
8
8
4
8
8
8
4
8
8
8
4
8
4
4
4
4
2
8
4
8
4
8
4
4
8
8
8
8
4
8
4
8
4
4
4
8
8
8
4
4
4
8
8
8
8
8
4
8
4
8
4
8
4
8
4
8
8
8
8
8
8
4
4
4
8
8
4
8
2
8
4
8
4
2
8
4
8
4
4
4
4
8
4
8
8
4
4
8
8
8
8
8
4
4
4
4
8
4
8
8
4
8
4
8
4
4
8
4
4
8
8
8
8
8
4
4
8
8
8
8
8
8
8
4
8
4
8
8
8
4
8
8
4
8
8
4
8
8
8
8
4
4
4
8
4
4
4
8
8
8
8
8
4
8
8
8
4
8
8
8
4
2
4
4
8
8
8
4
8
8
4
8
8
8
4
4
8
4
4
8
4
8
4
8
8
4
4
8
8
4
4
8
8
8
4
8
8
8
8
8
8
4
8
8
4
8
8
8
8
4
8
8
8
8
8
8
8
4
8
8
4
4
4
8
4
8
8
8
4
8
8
8
8
4
4
4
4
4
8
8
8
8
8
4
8
8
8
8
4
8
8
8
8
8
2
4
8
8
4
8
4
2
8
8
4
8
8
8
4
8
4
4
4
8
8
4
4
2
8
4
8
8
8
4
4
8
4
4
4
8
8
4
#END Loops that were not found in dictionaries
