#------------------------------------------------------------------------------
#$Date: 2015-06-19 10:55:54 +0300 (Fri, 19 Jun 2015) $
#$Revision: 139397 $
#$URL: svn://www.crystallography.net/cod/cif/7/22/08/7220806.cif $
#------------------------------------------------------------------------------
#
# This file is available in the Crystallography Open Database (COD),
# http://www.crystallography.net/
#
# All data on this site have been placed in the public domain by the
# contributors.
#
data_7220806
loop_
_publ_author_name
'Sangtrirutnugul, Preeyanuch'
'Thongkam, Pech'
'Jindabot, Sudarat'
'Prabpai, Samran'
'Kongsaeree, Palangpon'
'Wittisuwannakul, Taveechai'
'Surawatanawong, Panida'
_publ_section_title
;
 Pyridine--Triazole Ligands for Copper--Catalyzed Aerobic Alcohol
 Oxidation
;
_journal_name_full               'RSC Adv.'
_journal_paper_doi               10.1039/C5RA06933E
_journal_year                    2015
_chemical_formula_moiety         'C26 H18 Cu F6 N10 O6 S2'
_chemical_formula_sum            'C26 H18 Cu F6 N10 O6 S2'
_chemical_formula_weight         808.16
_chemical_name_systematic
;
 ?
;
_space_group_crystal_system      triclinic
_space_group_IT_number           2
_space_group_name_Hall           '-P 1'
_space_group_name_H-M_alt        'P -1'
_symmetry_space_group_name_Hall  '-P 1'
_symmetry_space_group_name_H-M   'P -1'
_atom_sites_solution_hydrogens   difmap
_audit_creation_method           SHELXL-2013
_audit_update_record
;
2015-04-12 deposited with the CCDC.
2015-06-18 downloaded from the CCDC.
;
_cell_angle_alpha                111.653(2)
_cell_angle_beta                 92.753(2)
_cell_angle_gamma                102.528(2)
_cell_formula_units_Z            1
_cell_length_a                   8.6034(3)
_cell_length_b                   9.2137(4)
_cell_length_c                   11.0129(5)
_cell_measurement_reflns_used    8013
_cell_measurement_temperature    293
_cell_measurement_theta_max      25.028
_cell_measurement_theta_min      0.998
_cell_volume                     784.13(6)
_computing_cell_refinement       'HKL Scalepack (Otwinowski & Minor 1997)'
_computing_data_reduction
'HKL Denzo and Scalepack (Otwinowski & Minor 1997)'
_computing_molecular_graphics    'Ortep (Johnson, 1976)'
_computing_structure_refinement  'SHELXL-2013 (Sheldrick, 2013)'
_computing_structure_solution    SIR97
_diffrn_ambient_temperature      293
_diffrn_detector_area_resol_mean 14
_diffrn_measured_fraction_theta_full 0.956
_diffrn_measured_fraction_theta_max 0.962
_diffrn_measurement_device_type  KappaCCD2000
_diffrn_measurement_method       CCD
_diffrn_radiation_type           MoK\a
_diffrn_radiation_wavelength     0.71073
_diffrn_reflns_av_R_equivalents  0.0889
_diffrn_reflns_av_unetI/netI     0.0518
_diffrn_reflns_laue_measured_fraction_full 0.956
_diffrn_reflns_laue_measured_fraction_max 0.962
_diffrn_reflns_limit_h_max       9
_diffrn_reflns_limit_h_min       -10
_diffrn_reflns_limit_k_max       11
_diffrn_reflns_limit_k_min       -11
_diffrn_reflns_limit_l_max       13
_diffrn_reflns_limit_l_min       -13
_diffrn_reflns_number            8674
_diffrn_reflns_point_group_measured_fraction_full 0.956
_diffrn_reflns_point_group_measured_fraction_max 0.962
_diffrn_reflns_theta_full        25.242
_diffrn_reflns_theta_max         25.190
_diffrn_reflns_theta_min         2.010
_exptl_absorpt_coefficient_mu    0.925
_exptl_absorpt_correction_type   none
_exptl_crystal_colour            blue
_exptl_crystal_density_diffrn    1.711
_exptl_crystal_description       block
_exptl_crystal_F_000             407
_exptl_crystal_size_max          0.15
_exptl_crystal_size_mid          0.12
_exptl_crystal_size_min          0.10
_refine_diff_density_max         0.388
_refine_diff_density_min         -0.378
_refine_diff_density_rms         0.077
_refine_ls_extinction_coef       0.069(9)
_refine_ls_extinction_expression Fc^*^=kFc[1+0.001xFc^2^\l^3^/sin(2\q)]^-1/4^
_refine_ls_extinction_method     SHELXL
_refine_ls_goodness_of_fit_ref   1.139
_refine_ls_hydrogen_treatment    constr
_refine_ls_matrix_type           full
_refine_ls_number_parameters     233
_refine_ls_number_reflns         2708
_refine_ls_number_restraints     0
_refine_ls_restrained_S_all      1.139
_refine_ls_R_factor_all          0.0422
_refine_ls_R_factor_gt           0.0393
_refine_ls_shift/su_max          0.000
_refine_ls_shift/su_mean         0.000
_refine_ls_structure_factor_coef Fsqd
_refine_ls_weighting_details
'w=1/[\s^2^(Fo^2^)+(0.1000P)^2^] where P=(Fo^2^+2Fc^2^)/3'
_refine_ls_weighting_scheme      calc
_refine_ls_wR_factor_gt          0.1289
_refine_ls_wR_factor_ref         0.1342
_reflns_Friedel_coverage         0.000
_reflns_number_gt                2523
_reflns_number_total             2708
_reflns_threshold_expression     'I > 2\s(I)'
_cod_data_source_file            c5ra06933e2.cif
_cod_data_source_block           shelxl
_cod_database_code               7220806
_shelx_space_group_comment
;
The symmetry employed for this shelxl refinement is uniquely defined
by the following loop, which should always be used as a source of
symmetry information in preference to the above space-group names.
They are only intended as comments.
;
_shelxl_version_number           2013-4
_shelx_res_file
;
TITL PSS0512A2
CELL 0.71073   8.6030   9.2140  11.0130 111.6530  92.7530 102.5280
ZERR    1  0.0003  0.0004  0.0005  0.0017  0.0024  0.0021
LATT  1
SFAC C  H  Cu F  N  O  S
DISP C    0.00330   0.00160
DISP H    0.00000   0.00000
DISP Cu   0.32010   1.26510
DISP F    0.01710   0.01030
DISP N    0.00610   0.00330
DISP O    0.01060   0.00600
DISP S    0.12460   0.12340
UNIT    26   18    1    6   10    6    2
LIST 4
ACTA
BOND $H
FMAP 2
PLAN -20
L.S.  8
OMIT  -3.0000 180
OMIT 1 -4 2
WGHT    0.100000
EXTI    0.068685
FVAR       2.85404
CU1   3   10.000000   10.000000   10.500000    10.50000    0.04419    0.01995 =
         0.04377    0.01210    0.01907    0.00286
S2    7   -0.279004    0.036243    0.260900    11.00000    0.04766    0.02857 =
         0.05234    0.01651    0.00986    0.00452
N2    5    0.134302    0.182788    0.466240    11.00000    0.04037    0.02594 =
         0.04100    0.01395    0.01058    0.00307
N3    5    0.232250    0.196528    0.381128    11.00000    0.04229    0.02672 =
         0.04531    0.01646    0.01145    0.00011
N1    5   -0.063378    0.188199    0.640855    11.00000    0.04195    0.02610 =
         0.04305    0.01504    0.01351    0.00544
O1    6   -0.211350   -0.044639    0.330800    11.00000    0.05551    0.04707 =
         0.06091    0.02820    0.00128    0.00126
C6    1    0.117452    0.329394    0.545685    11.00000    0.03613    0.02216 =
         0.04066    0.01152    0.00232    0.00188
N4    5    0.277624    0.354013    0.407774    11.00000    0.03782    0.02817 =
         0.04007    0.01723    0.00505   -0.00074
C5    1    0.014685    0.335089    0.646528    11.00000    0.03516    0.02594 =
         0.04314    0.01300    0.00392    0.00550
N5    5    0.420515    0.572271    0.370346    11.00000    0.04537    0.04168 =
         0.07111    0.03354    0.00527   -0.00288
C4    1   -0.000984    0.477358    0.743445    11.00000    0.04784    0.02395 =
         0.04926    0.00856    0.00437    0.00498
AFIX   3
H4    2    0.056046    0.579398    0.743825    11.00000   -1.20000
AFIX   0
O3    6   -0.444316   -0.034322    0.208013    11.00000    0.04750    0.07347 =
         0.10314    0.04949    0.00293    0.00760
C8    1    0.385068    0.412390    0.329916    11.00000    0.03017    0.04156 =
         0.05124    0.02841    0.00288   -0.00167
C7    1    0.210747    0.441492    0.508363    11.00000    0.03702    0.02500 =
         0.04267    0.01292    0.00447    0.00191
AFIX   3
H7    2    0.214877    0.553652    0.554263    11.00000   -1.20000
AFIX   0
C3    1   -0.100240    0.466362    0.835106    11.00000    0.06078    0.03713 =
         0.05014    0.00685    0.01491    0.01618
AFIX   3
H3    2   -0.109560    0.562842    0.905046    11.00000   -1.20000
AFIX   0
C12   1    0.514323    0.633245    0.298893    11.00000    0.04685    0.05827 =
         0.09706    0.05465    0.00133   -0.00885
AFIX   3
H12   2    0.546543    0.747445    0.320923    11.00000   -1.20000
AFIX   0
O2    6   -0.229249    0.207795    0.321753    11.00000    0.10129    0.02721 =
         0.08195    0.01151    0.02150    0.00909
C1    1   -0.160588    0.181082    0.729426    11.00000    0.05371    0.03489 =
         0.05701    0.01880    0.02408    0.01037
AFIX   3
H1    2   -0.218198    0.078202    0.727076    11.00000   -1.20000
AFIX   0
C9    1    0.437748    0.308978    0.227042    11.00000    0.05268    0.05082 =
         0.05340    0.02600    0.01337    0.00171
AFIX   3
H9    2    0.408608    0.195758    0.209552    11.00000   -1.20000
AFIX   0
C2    1   -0.181335    0.318893    0.830070    11.00000    0.05837    0.04521 =
         0.05383    0.01789    0.02471    0.01809
AFIX   3
H2    2   -0.254295    0.311833    0.892140    11.00000   -1.20000
AFIX   0
F2    4   -0.020870    0.063473    0.148736    11.00000    0.06661    0.17456 =
         0.07443    0.04364    0.02649    0.00580
F1    4   -0.193802   -0.160922    0.051372    11.00000    0.15153    0.08975 =
         0.07526   -0.00698    0.02176    0.04706
F3    4   -0.233718    0.047005    0.030937    11.00000    0.12929    0.13245 =
         0.06892    0.05949    0.01444    0.03022
C13   1   -0.177994   -0.004001    0.115584    11.00000    0.07658    0.06986 =
         0.05341    0.01905    0.00820    0.01062
C11   1    0.571330    0.540041    0.191319    11.00000    0.05079    0.08573 =
         0.08242    0.06142    0.01624    0.00137
AFIX   3
H11   2    0.638480    0.591401    0.143989    11.00000   -1.20000
AFIX   0
C10   1    0.534464    0.377726    0.155114    11.00000    0.06345    0.09277 =
         0.06705    0.04286    0.02528    0.00999
AFIX   3
H10   2    0.570724    0.307856    0.079504    11.00000   -1.20000
AFIX   0
HKLF 4

REM  PSS0512A2
REM R1 =  0.0393 for    2523 Fo > 4sig(Fo)  and  0.0422 for all    2708 data
REM    233 parameters refined using      0 restraints

END

WGHT      0.0564      0.3793

REM Highest difference peak  0.388,  deepest hole -0.378,  1-sigma level  0.077
Q1    1  -0.0706  0.1070  0.1148  11.00000  0.05    0.39
Q2    1  -0.2018  0.1335  0.0870  11.00000  0.05    0.37
Q3    1  -0.3082 -0.1699  0.0553  11.00000  0.05    0.28
Q4    1  -0.1735  0.2591  0.7800  11.00000  0.05    0.27
Q5    1  -0.0049  0.3930  0.6851  11.00000  0.05    0.25
Q6    1   0.1442  0.0390  0.5803  11.00000  0.05    0.23
Q7    1  -0.0450 -0.0220  0.1569  11.00000  0.05    0.23
Q8    1  -0.5507 -0.0560  0.1379  11.00000  0.05    0.21
Q9    1   0.3095  0.1852  0.0559  11.00000  0.05    0.20
Q10   1  -0.0195 -0.1973  0.0959  11.00000  0.05    0.19
Q11   1   0.0573  0.3944  0.8808  11.00000  0.05    0.19
Q12   1  -0.4950 -0.2266  0.1711  11.00000  0.05    0.18
Q13   1  -0.2854 -0.1604  0.2067  11.00000  0.05    0.17
Q14   1  -0.0990 -0.1159  0.1210  11.00000  0.05    0.17
Q15   1   0.6786  0.4941  0.0800  11.00000  0.05    0.17
Q16   1  -0.1038  0.3782  0.8422  11.00000  0.05    0.17
Q17   1   0.0137 -0.1600  0.3810  11.00000  0.05    0.17
Q18   1  -0.1790  0.2485  0.0633  11.00000  0.05    0.16
Q19   1   0.5905  0.5114  0.1355  11.00000  0.05    0.16
Q20   1   0.1601  0.5369  0.9494  11.00000  0.05    0.16
;
_shelx_res_checksum              59585
_shelx_hkl_file
;
 -10   1   0  123.21   10.88   1
 -10   1   0  121.88   16.12   1
 -10   1   1    9.42    9.82   1
 -10   1   1    7.29   13.28   1
 -10   1   2   27.25    7.52   1
 -10   1   2   16.56   14.49   1
 -10   1   3  223.80   14.06   1
 -10   1   3  308.70   21.08   1
 -10   2  -1  483.56   25.95   1
 -10   2  -1  449.86   28.00   1
 -10   2   0  844.48   40.10   1
 -10   2   0  929.64   43.91   1
 -10   2   1  655.87   32.27   1
 -10   2   1  640.60   34.42   1
 -10   2   2    9.67    8.77   1
 -10   2   2   35.05   13.85   1
 -10   2   3   -0.79    7.87   1
 -10   2   3   21.72   14.73   1
 -10   3  -2  -10.11    9.60   1
 -10   3  -2   11.70   13.82   1
 -10   3  -1  297.22   18.62   1
 -10   3  -1  331.60   21.85   1
 -10   3   0  187.96   14.26   1
 -10   3   0  261.15   23.59   1
 -10   3   1  161.04   15.99   1
 -10   3   1  163.33   17.64   1
 -10   3   2  165.12   13.88   1
 -10   3   2  201.36   23.56   1
 -10   4  -2   28.84   10.95   1
 -10   4  -2   60.68   20.25   1
 -10   4  -1  192.93   19.45   1
 -10   4  -1  211.12   18.31   1
 -10   4   0  251.54   20.30   1
 -10   4   0  219.63   19.27   1
 -10   4   1    0.71   14.67   1
 -10   4   1   38.44   15.13   1
  -9  -3   3  246.18   19.46   1
  -9  -3   3  263.41   15.26   1
  -9  -2   0  189.61   16.52   1
  -9  -2   1   44.62   17.77   1
  -9  -2   2    7.51   11.51   1
  -9  -2   4   12.11   12.60   1
  -9  -2   5  339.30   22.47   1
  -9  -1  -2  361.76   26.25   1
  -9  -1  -1  110.88   18.11   1
  -9  -1   0   75.52    8.86   1
  -9  -1   0   77.62   12.33   1
  -9  -1   1   29.27    6.82   1
  -9  -1   1   45.02   12.35   1
  -9  -1   2  343.36   24.09   1
  -9  -1   3  147.62   14.82   1
  -9  -1   4   83.72   17.93   1
  -9  -1   5  231.65   18.87   1
  -9  -1   6  762.86   38.67   1
  -9   0  -2  476.11   27.06   1
  -9   0  -1   69.22   12.65   1
  -9   0   0  245.86   20.70   1
  -9   0   0  254.72   15.32   1
  -9   0   1  559.32   28.85   1
  -9   0   1  529.92   25.78   1
  -9   0   2  703.31   36.60   1
  -9   0   2  742.56   33.24   1
  -9   0   3 1146.50   53.50   1
  -9   0   3 1170.32   49.95   1
  -9   0   5   87.24   13.82   1
  -9   0   5   59.14    8.15   1
  -9   0   6  847.39   41.92   1
  -9   1  -2  946.79   44.31   1
  -9   1  -1  771.73   34.45   1
  -9   1  -1  753.50   36.23   1
  -9   1   0  113.42   17.89   1
  -9   1   0  125.89    9.65   1
  -9   1   1  469.59   22.10   1
  -9   1   1  464.40   18.53   1
  -9   1   2  337.46   23.88   1
  -9   1   2  399.20   19.58   1
  -9   1   3   -7.18   10.88   1
  -9   1   3   15.68    5.46   1
  -9   1   4   62.09   12.45   1
  -9   1   4   37.45    8.81   1
  -9   1   5   19.80   12.73   1
  -9   1   5   11.09    5.99   1
  -9   1   6  619.51   32.85   1
  -9   1   6  634.03   30.22   1
  -9   2  -2   59.91   12.69   1
  -9   2  -1  117.51   10.62   1
  -9   2  -1  100.80   14.06   1
  -9   2   0   65.77   11.35   1
  -9   2   0   83.17   13.13   1
  -9   2   1  198.81   11.84   1
  -9   2   1  203.06   18.81   1
  -9   2   2 1468.42   53.65   1
  -9   2   2 1605.60   55.30   1
  -9   2   3 2656.37  115.45   1
  -9   2   3 2734.24  116.08   1
  -9   2   4  331.97   18.95   1
  -9   2   4  372.10   25.46   1
  -9   2   5   29.16    7.34   1
  -9   2   6  517.11   30.47   1
  -9   2   6  581.77   28.94   1
  -9   3  -2  522.58   30.63   1
  -9   3  -2  578.40   28.86   1
  -9   3  -1  860.84   33.45   1
  -9   3  -1  838.10   33.58   1
  -9   3   0    2.50    8.18   1
  -9   3   0   17.47   15.47   1
  -9   3   1   -4.28   10.60   1
  -9   3   1   28.62   10.59   1
  -9   3   2   72.76    9.72   1
  -9   3   2   91.58   12.25   1
  -9   3   3  197.12   14.32   1
  -9   3   3  245.55   17.24   1
  -9   3   4  288.66   18.69   1
  -9   3   4  368.64   24.19   1
  -9   3   5  160.53   16.47   1
  -9   4  -3  122.99   12.20   1
  -9   4  -2  761.21   37.52   1
  -9   4  -2  777.29   38.47   1
  -9   4  -1  906.61   42.15   1
  -9   4   0  222.31   17.30   1
  -9   4   1   74.65   10.02   1
  -9   4   1   47.33   11.70   1
  -9   4   2   50.41   10.65   1
  -9   4   2   81.18   12.61   1
  -9   4   3  219.34   18.36   1
  -9   4   3  233.17   18.32   1
  -9   4   4  417.79   22.48   1
  -9   4   4  379.08   23.75   1
  -9   4   5   16.32   10.99   1
  -9   4   5   69.06   20.11   1
  -9   5  -4   -6.40   15.08   1
  -9   5  -3   35.88   11.98   1
  -9   5  -3   33.64   10.79   1
  -9   5  -2  249.32   18.63   1
  -9   5  -2  327.97   21.73   1
  -9   5  -1  724.69   35.53   1
  -9   5  -1  732.24   35.72   1
  -9   5   0  112.15   18.00   1
  -9   5   0  119.46   12.46   1
  -9   5   1  344.10   21.15   1
  -9   5   1  432.64   25.79   1
  -9   5   2  696.96   35.90   1
  -9   5   2  643.64   32.47   1
  -9   5   3 1102.90   51.14   1
  -9   5   3 1062.11   52.14   1
  -9   6  -5  434.72   28.77   1
  -9   6  -4  199.66   20.63   1
  -9   6  -3   -5.52   11.70   1
  -9   6  -3  -11.90   11.52   1
  -9   6  -2  134.56   18.10   1
  -9   6  -2  134.79   18.81   1
  -9   6  -1  532.22   29.07   1
  -9   6  -1  529.46   28.07   1
  -9   6   0  176.36   15.67   1
  -9   6   0  165.89   15.71   1
  -9   6   1  288.66   19.37   1
  -9   6   1  258.24   18.96   1
  -9   6   2  338.56   25.76   1
  -9   6   2  322.56   21.19   1
  -9   7  -3   80.28   19.17   1
  -9   7  -3   43.30   13.95   1
  -9   7  -2  190.99   21.84   1
  -9   7  -2  134.56   16.47   1
  -9   7  -1  762.31   37.55   1
  -9   7  -1  759.00   38.57   1
  -9   7   0  234.09   23.87   1
  -9   7   0  211.70   18.04   1
  -8  -4   0  164.61   14.37   1
  -8  -4   0  197.40   16.02   1
  -8  -4   1  937.58   42.87   1
  -8  -4   1  771.17   38.32   1
  -8  -4   2  478.30   27.56   1
  -8  -4   2  503.10   26.47   1
  -8  -4   3  988.47   44.64   1
  -8  -4   3  837.52   40.52   1
  -8  -4   4 1209.65   53.56   1
  -8  -4   4 1255.99   54.58   1
  -8  -4   5  814.53   38.81   1
  -8  -4   5  710.22   36.24   1
  -8  -4   6  223.50   17.34   1
  -8  -3  -2  110.25   18.27   1
  -8  -3  -1  712.89   36.31   1
  -8  -3  -1  801.46   38.50   1
  -8  -3   0  746.38   36.06   1
  -8  -3   0  758.45   35.25   1
  -8  -3   1  632.02   29.16   1
  -8  -3   1  640.09   31.37   1
  -8  -3   2  194.32   15.06   1
  -8  -3   2  220.52   13.07   1
  -8  -3   3  140.90   16.38   1
  -8  -3   3  129.50   10.70   1
  -8  -3   4  146.17   13.30   1
  -8  -3   4  127.69   10.40   1
  -8  -3   5 2798.41  116.38   1
  -8  -3   5 2759.40  116.62   1
  -8  -3   6 1524.12   66.37   1
  -8  -3   6 1447.04   63.91   1
  -8  -2  -3  169.52   16.67   1
  -8  -2  -2   13.32    7.52   1
  -8  -2  -1    7.90   13.99   1
  -8  -2   0  795.24   30.46   1
  -8  -2   1  130.42   14.39   1
  -8  -2   1  121.44    7.93   1
  -8  -2   2  688.54   22.57   1
  -8  -2   2  646.68   25.94   1
  -8  -2   3   85.75   10.93   1
  -8  -2   3   79.39    6.95   1
  -8  -2   4  373.65   16.24   1
  -8  -2   4  347.45   20.50   1
  -8  -2   5  496.84   27.64   1
  -8  -2   5  454.97   22.18   1
  -8  -2   6  528.08   25.74   1
  -8  -2   6  586.61   29.55   1
  -8  -2   7   37.33    8.07   1
  -8  -2   8   58.98    9.83   1
  -8  -1  -3  722.00   36.54   1
  -8  -1  -1    4.88    9.37   1
  -8  -1   0  196.00   10.36   1
  -8  -1   0  214.33   13.76   1
  -8  -1   1  736.04   29.30   1
  -8  -1   1  808.26   27.29   1
  -8  -1   1  794.11   27.62   1
  -8  -1   2  375.97   18.61   1
  -8  -1   2  391.64   15.83   1
  -8  -1   2  404.41   15.28   1
  -8  -1   3  312.58   12.38   1
  -8  -1   3  287.64   17.64   1
  -8  -1   3  260.82   11.30   1
  -8  -1   4  994.14   31.53   1
  -8  -1   4  972.82   36.18   1
  -8  -1   4  862.01   33.47   1
  -8  -1   5 1298.16   44.68   1
  -8  -1   5 1417.52   45.18   1
  -8  -1   5 1298.16   47.56   1
  -8  -1   6  996.66   42.94   1
  -8  -1   6  985.96   45.84   1
  -8  -1   7    6.00    9.31   1
  -8  -1   8  293.44   18.50   1
  -8   0  -5  173.71   14.76   1
  -8   0  -4  176.36   13.01   1
  -8   0  -1  764.52   30.97   1
  -8   0   0  514.38   23.59   1
  -8   0   0  561.69   22.28   1
  -8   0   0  759.55   23.70   1
  -8   0   1 1687.57   59.16   1
  -8   0   1 1826.71   58.13   1
  -8   0   2  187.14   12.59   1
  -8   0   2  196.84    7.58   1
  -8   0   2  174.77    8.99   1
  -8   0   3   36.84    9.59   1
  -8   0   3   44.62    6.15   1
  -8   0   3   30.58    4.31   1
  -8   0   4  687.49   25.17   1
  -8   0   4  729.00   24.30   1
  -8   0   5 1478.40   48.45   1
  -8   0   5 1498.46   52.65   1
  -8   0   5 1421.29   49.76   1
  -8   0   6  281.23   13.08   1
  -8   0   6  277.89   12.67   1
  -8   0   6  227.41   15.98   1
  -8   0   7  124.32   11.37   1
  -8   0   7  152.28   11.11   1
  -8   0   8   88.55   10.73   1
  -8   0   8   78.85    9.59   1
  -8   1  -6   37.45   14.44   1
  -8   1  -4   27.67    8.42   1
  -8   1  -3  414.94   20.78   1
  -8   1  -2  392.44   16.64   1
  -8   1  -1  139.48    6.61   1
  -8   1   0    9.67    5.29   1
  -8   1   0   27.04    9.26   1
  -8   1   1 2026.80   69.33   1
  -8   1   1 2175.29   69.03   1
  -8   1   2 2198.67   75.96   1
  -8   1   2 2463.14   75.44   1
  -8   1   3 1401.00   43.42   1
  -8   1   3 1416.02   46.66   1
  -8   1   3 1335.90   48.25   1
  -8   1   4  243.98   14.68   1
  -8   1   4  214.92    8.80   1
  -8   1   4  207.65   14.41   1
  -8   1   5  110.67    9.89   1
  -8   1   5   91.58   11.87   1
  -8   1   6 1022.08   46.68   1
  -8   1   6  980.32   42.58   1
  -8   1   6 1016.97   44.65   1
  -8   1   7   48.72    8.93   1
  -8   1   7   44.76    7.76   1
  -8   1   8  -28.62   10.38   1
  -8   1   8    0.10   11.13   1
  -8   2  -7   70.06   13.89   1
  -8   2  -6  -11.90    7.18   1
  -8   2  -5  -15.21    7.80   1
  -8   2  -4  186.60   12.02   1
  -8   2  -3  546.16   19.63   1
  -8   2  -2 1087.68   29.68   1
  -8   2  -2  534.07   24.50   1
  -8   2  -1  377.91   17.88   1
  -8   2  -1  392.04   16.24   1
  -8   2   0   49.00   12.74   1
  -8   2   0   21.62    6.60   1
  -8   2   1 1979.36   64.07   1
  -8   2   1 1919.32   63.96   1
  -8   2   2  487.97   21.65   1
  -8   2   2  551.31   21.13   1
  -8   2   3   24.70    6.06   1
  -8   2   3   24.50    9.21   1
  -8   2   4 1166.22   38.25   1
  -8   2   4 1154.64   41.46   1
  -8   2   4 1221.50   41.94   1
  -8   2   5 1971.36   62.16   1
  -8   2   5 1862.79   65.60   1
  -8   2   5 2017.81   66.48   1
  -8   2   6 1508.55   66.03   1
  -8   2   7  219.93   14.24   1
  -8   2   7  200.22   13.58   1
  -8   3  -7   51.55   13.07   1
  -8   3  -6  109.20   10.87   1
  -8   3  -5   -1.39    4.58   1
  -8   3  -4   23.52    6.89   1
  -8   3  -3  306.60   12.96   1
  -8   3  -2 1100.91   37.83   1
  -8   3  -1   11.70   12.59   1
  -8   3  -1   16.16    7.80   1
  -8   3   0   14.82    7.31   1
  -8   3   0   23.33   12.75   1
  -8   3   1 1029.77   38.51   1
  -8   3   1 1161.45   40.21   1
  -8   3   2 1258.83   44.00   1
  -8   3   3  200.51   13.88   1
  -8   3   3  205.06   13.17   1
  -8   3   4  143.28   10.77   1
  -8   3   4  123.43   12.22   1
  -8   3   5  651.27   32.16   1
  -8   3   5  648.21   30.55   1
  -8   3   6  864.36   39.98   1
  -8   3   7  107.12   12.83   1
  -8   4  -7  506.25   26.55   1
  -8   4  -6   -8.53    9.11   1
  -8   4  -5   28.09    5.41   1
  -8   4  -4    2.59    4.70   1
  -8   4  -3  440.16   16.36   1
  -8   4  -2 3251.28  104.92   1
  -8   4  -1  110.46   12.40   1
  -8   4  -1   97.61   14.03   1
  -8   4   0  -23.23   12.92   1
  -8   4   0   -0.30    7.83   1
  -8   4   1  846.81   31.43   1
  -8   4   2  139.24   11.09   1
  -8   4   2  168.48   11.94   1
  -8   4   3   30.25   11.99   1
  -8   4   3   46.10   10.59   1
  -8   4   4  473.93   24.38   1
  -8   4   5  204.20   15.15   1
  -8   4   6  343.36   20.75   1
  -8   5  -6  356.45   18.50   1
  -8   5  -5   11.22    6.10   1
  -8   5  -3  511.21   22.16   1
  -8   5  -2  387.30   20.07   1
  -8   5  -2  388.09   18.52   1
  -8   5  -1   18.66    8.81   1
  -8   5  -1   33.76   12.20   1
  -8   5   0   43.03   10.10   1
  -8   5   0   34.34    9.73   1
  -8   5   1   93.32   10.43   1
  -8   5   1   74.65   10.71   1
  -8   5   2  710.76   28.79   1
  -8   5   2  758.45   30.84   1
  -8   5   3  527.16   28.47   1
  -8   5   3  536.39   26.87   1
  -8   5   4  231.65   19.48   1
  -8   5   4  179.02   15.79   1
  -8   5   5  149.08   18.32   1
  -8   6  -4  170.30   14.62   1
  -8   6  -3  546.16   24.30   1
  -8   6  -2 1490.73   49.42   1
  -8   6  -2 1275.92   47.86   1
  -8   6  -1  205.35   17.20   1
  -8   6  -1  182.52   15.67   1
  -8   6   0   38.81   13.71   1
  -8   6   0   19.71    9.95   1
  -8   6   1 2300.16   95.92   1
  -8   6   1 2174.36   96.06   1
  -8   6   2 2635.80  111.92   1
  -8   6   2 2658.43  112.40   1
  -8   6   3  398.80   25.96   1
  -8   6   3  377.52   22.15   1
  -8   6   4   55.35   17.56   1
  -8   7  -6  390.06   24.89   1
  -8   7  -5  -21.90   12.64   1
  -8   7  -4   72.42   13.11   1
  -8   7  -3  135.96   17.26   1
  -8   7  -3  230.43   19.73   1
  -8   7  -2  845.65   44.78   1
  -8   7  -2 1077.15   45.29   1
  -8   7  -1    2.79   10.19   1
  -8   7  -1    1.10   10.92   1
  -8   7   0  219.34   21.03   1
  -8   7   0  197.96   15.48   1
  -8   7   1  192.10   18.30   1
  -8   7   1  139.71   16.08   1
  -8   7   2  607.62   31.55   1
  -8   7   2  554.60   29.20   1
  -8   8  -5   21.72   14.07   1
  -8   8  -4  116.21   14.23   1
  -8   8  -4   74.48   18.99   1
  -8   8  -3  153.02   17.07   1
  -8   8  -3  219.93   16.61   1
  -8   8  -2  182.52   16.21   1
  -8   8  -2  185.50   16.89   1
  -8   8  -1  -22.47   13.65   1
  -8   8  -1  -34.22   15.33   1
  -8   8   0    4.71   10.72   1
  -8   8   0   24.30   13.51   1
  -7  -6   3 1483.79   70.11   1
  -7  -6   3 1740.56   70.92   1
  -7  -6   4  773.40   37.27   1
  -7  -6   4  820.82   37.82   1
  -7  -6   5  103.43   17.29   1
  -7  -6   6   -8.88   11.26   1
  -7  -5  -1   61.15   13.76   1
  -7  -5  -1   26.52   10.51   1
  -7  -5   0   20.16   11.76   1
  -7  -5   0   -1.90   13.72   1
  -7  -5   1  177.96   14.41   1
  -7  -5   1  139.24   13.45   1
  -7  -5   2  676.52   32.25   1
  -7  -5   2  679.64   32.33   1
  -7  -5   3 1658.93   72.50   1
  -7  -5   3 1699.91   72.56   1
  -7  -5   4 2200.55   92.88   1
  -7  -5   4 2162.25   93.93   1
  -7  -5   5  344.84   20.43   1
  -7  -5   5  364.05   22.13   1
  -7  -5   6   -8.88   13.59   1
  -7  -5   7  708.09   34.06   1
  -7  -4  -2  359.86   21.25   1
  -7  -4  -2  368.64   21.12   1
  -7  -4  -1 1186.80   50.30   1
  -7  -4  -1 1087.68   50.13   1
  -7  -4   0  237.16   15.09   1
  -7  -4   0  199.09   14.39   1
  -7  -4   1  969.70   36.12   1
  -7  -4   1 1041.35   38.08   1
  -7  -4   2   -0.71    7.83   1
  -7  -4   3 4856.70  149.14   1
  -7  -4   3 4643.06  148.55   1
  -7  -4   4 3194.51  104.00   1
  -7  -4   4 3165.19  102.39   1
  -7  -4   5  661.52   25.72   1
  -7  -4   5  687.49   25.17   1
  -7  -4   6  401.60   21.64   1
  -7  -4   7  674.44   31.68   1
  -7  -4   8 1403.25   62.18   1
  -7  -4   9  655.36   32.26   1
  -7  -3  -1  779.53   29.04   1
  -7  -3  -1  783.44   28.55   1
  -7  -3   0 1470.72   49.09   1
  -7  -3   0 1574.50   53.17   1
  -7  -3   0 1307.55   47.01   1
  -7  -3   1  535.46   23.60   1
  -7  -3   1  649.74   22.43   1
  -7  -3   1  535.46   20.83   1
  -7  -3   2  148.35    5.36   1
  -7  -3   2  139.00    5.42   1
  -7  -3   2  156.50   11.26   1
  -7  -3   2  179.02   13.38   1
  -7  -3   2  141.61    9.28   1
  -7  -3   3  653.82   25.06   1
  -7  -3   3  628.50   26.07   1
  -7  -3   3  798.06   29.38   1
  -7  -3   4   63.52    9.56   1
  -7  -3   4   66.42   10.76   1
  -7  -3   4   52.56    9.57   1
  -7  -3   5    6.10    8.60   1
  -7  -3   5   25.30    7.65   1
  -7  -3   5   14.98    9.21   1
  -7  -3   6   12.82    9.38   1
  -7  -3   6   26.52    7.73   1
  -7  -3   7  645.16   23.88   1
  -7  -3   8 1935.12   81.82   1
  -7  -3   9   22.94   10.73   1
  -7  -2  -5   91.58   13.21   1
  -7  -2  -4   17.31    9.32   1
  -7  -2  -3   14.52    8.23   1
  -7  -2  -2   11.42   12.44   1
  -7  -2  -1  234.40   12.86   1
  -7  -2  -1  228.92   13.31   1
  -7  -2  -1  304.85   16.41   1
  -7  -2   0 1683.46   50.88   1
  -7  -2   0 1455.42   52.65   1
  -7  -2   0 1434.14   49.23   1
  -7  -2   1  469.59   16.90   1
  -7  -2   1  548.50   19.20   1
  -7  -2   1  434.31   17.09   1
  -7  -2   1  429.73   20.73   1
  -7  -2   2 1047.17   34.30   1
  -7  -2   2 1071.91   39.94   1
  -7  -2   2  962.24   35.98   1
  -7  -2   2 1315.51   38.45   1
  -7  -2   3  167.96    9.07   1
  -7  -2   3  196.56    7.29   1
  -7  -2   3  259.53   11.92   1
  -7  -2   4 1332.25   47.45   1
  -7  -2   4 1361.61   48.71   1
  -7  -2   4 1620.06   49.10   1
  -7  -2   5  101.00    9.65   1
  -7  -2   5   74.65    8.99   1
  -7  -2   5  114.06   10.68   1
  -7  -2   6   66.42    8.97   1
  -7  -2   6  103.63   10.59   1
  -7  -2   6   68.39   10.42   1
  -7  -2   7  736.58   27.68   1
  -7  -2   8 1126.27   49.67   1
  -7  -2   9  236.24   15.37   1
  -7  -1  -6   71.74   16.09   1
  -7  -1  -5  657.92   36.42   1
  -7  -1  -4  599.27   26.44   1
  -7  -1  -3 1040.06   40.63   1
  -7  -1  -3 1277.35   42.89   1
  -7  -1  -2  794.68   28.75   1
  -7  -1  -1 1962.49   66.45   1
  -7  -1   0 1943.93   65.25   1
  -7  -1   0 2339.66   70.62   1
  -7  -1   0 1867.97   63.97   1
  -7  -1   1  210.25    9.28   1
  -7  -1   1  249.32   11.05   1
  -7  -1   1  197.96   12.10   1
  -7  -1   1  213.16    9.64   1
  -7  -1   2    6.00    3.72   1
  -7  -1   2   23.43    5.03   1
  -7  -1   2    8.41    8.00   1
  -7  -1   2   19.71    5.06   1
  -7  -1   3 5235.97  173.66   1
  -7  -1   3 5031.06  171.65   1
  -7  -1   3 5464.17  171.49   1
  -7  -1   3 6541.57  173.08   1
  -7  -1   4 3359.36  114.76   1
  -7  -1   4 3287.88  112.39   1
  -7  -1   4 4088.32  113.81   1
  -7  -1   5 1202.01   38.83   1
  -7  -1   5 1145.82   39.27   1
  -7  -1   5 1121.58   40.86   1
  -7  -1   5 1366.78   45.84   1
  -7  -1   6  339.66   14.74   1
  -7  -1   6  276.22   11.97   1
  -7  -1   6  304.50   15.36   1
  -7  -1   7    5.62    8.53   1
  -7  -1   8 1250.33   53.75   1
  -7  -1   9  841.58   39.45   1
  -7   0  -7  -11.09   10.39   1
  -7   0  -6  124.10   15.37   1
  -7   0  -4 1427.33   47.60   1
  -7   0  -4 1237.63   50.66   1
  -7   0  -3  580.33   18.79   1
  -7   0  -3  199.66   16.96   1
  -7   0  -2   39.94    6.45   1
  -7   0  -2   58.37    5.65   1
  -7   0  -1   38.44    5.08   1
  -7   0  -1   58.06    5.79   1
  -7   0   0 5176.80  141.02   1
  -7   0   0 3790.86  137.92   1
  -7   0   1 2365.85   71.99   1
  -7   0   1 2198.67   72.21   1
  -7   0   1 2225.01   71.70   1
  -7   0   2  182.25    7.02   1
  -7   0   2  115.13   10.30   1
  -7   0   2  131.56    6.19   1
  -7   0   2  127.92    7.01   1
  -7   0   3 5331.92  170.87   1
  -7   0   3 5517.52  170.84   1
  -7   0   3 5710.82  172.30   1
  -7   0   4 3679.64  112.83   1
  -7   0   4 3418.74  112.26   1
  -7   0   4 3528.36  110.48   1
  -7   0   5  263.74   12.02   1
  -7   0   5  285.95   11.84   1
  -7   0   5  276.22   14.63   1
  -7   0   6  252.17   11.12   1
  -7   0   6  266.34   14.69   1
  -7   0   6  263.74   12.67   1
  -7   0   7  147.38    8.50   1
  -7   0   7  156.00   10.74   1
  -7   0   8  928.42   42.05   1
  -7   0   8  929.64   42.08   1
  -7   0   9  439.32   22.22   1
  -7   1  -8  140.19   21.55   1
  -7   1  -7   32.26   11.25   1
  -7   1  -6   -4.88    6.98   1
  -7   1  -5  348.94   23.16   1
  -7   1  -5  552.25   23.03   1
  -7   1  -4  840.42   42.33   1
  -7   1  -4 1385.33   41.69   1
  -7   1  -3  404.41   23.33   1
  -7   1  -3  712.36   21.89   1
  -7   1  -2  417.79   19.21   1
  -7   1  -1  218.45    9.46   1
  -7   1   0  286.62   12.53   1
  -7   1   0  259.53   13.21   1
  -7   1   1   76.91    7.54   1
  -7   1   1   97.42    8.69   1
  -7   1   2   90.25    6.27   1
  -7   1   2   72.93    9.05   1
  -7   1   2   88.17    3.57   1
  -7   1   3 2332.89   76.31   1
  -7   1   3 2342.56   72.60   1
  -7   1   4 7663.25  243.36   1
  -7   1   4 7846.42  240.94   1
  -7   1   5 3821.71  117.46   1
  -7   1   5 3830.37  120.07   1
  -7   1   5 3778.56  121.71   1
  -7   1   6  251.86   11.74   1
  -7   1   6  246.80   11.63   1
  -7   1   7  279.22   12.70   1
  -7   1   7  278.89   14.36   1
  -7   1   8 1067.33   47.70   1
  -7   1   8 1139.06   49.28   1
  -7   1   9  301.02   17.35   1
  -7   2  -8    9.92    9.39   1
  -7   2  -7   52.27   11.57   1
  -7   2  -6   90.25   10.45   1
  -7   2  -5  271.59   16.15   1
  -7   2  -5  369.79   15.77   1
  -7   2  -4  758.45   28.09   1
  -7   2  -3  294.81   13.74   1
  -7   2   0 2738.43   88.96   1
  -7   2   0 2860.11   88.78   1
  -7   2   1 1905.32   61.98   1
  -7   2   1 1823.29   60.63   1
  -7   2   2  149.08    8.30   1
  -7   2   2  168.48   13.24   1
  -7   2   3  466.99   19.45   1
  -7   2   3  444.79   17.29   1
  -7   2   4 1316.24   44.26   1
  -7   2   4 1270.92   40.64   1
  -7   2   4 1259.54   41.17   1
  -7   2   4 1234.82   42.17   1
  -7   2   5   11.83    3.30   1
  -7   2   5   -5.02    8.42   1
  -7   2   5   16.89    8.88   1
  -7   2   6  274.56   12.26   1
  -7   2   6  314.71   13.84   1
  -7   2   7  606.14   23.64   1
  -7   2   7  661.00   25.71   1
  -7   2   8  803.72   36.85   1
  -7   2   9 1186.80   53.05   1
  -7   2   9 1095.61   50.31   1
  -7   3  -8  742.02   38.14   1
  -7   3  -7  584.19   29.00   1
  -7   3  -6  237.16   11.40   1
  -7   3  -6  245.55   13.79   1
  -7   3  -5   25.70    7.00   1
  -7   3  -5   56.55    8.72   1
  -7   3  -4 1815.61   51.13   1
  -7   3  -4 1214.52   57.15   1
  -7   3  -1  525.33   19.25   1
  -7   3  -1  502.21   20.17   1
  -7   3   0 3984.13  123.72   1
  -7   3   0 3885.03  123.41   1
  -7   3   1 2599.98   81.58   1
  -7   3   1 2563.40   83.03   1
  -7   3   2  576.00   22.08   1
  -7   3   2  597.31   22.48   1
  -7   3   3   35.76    8.73   1
  -7   3   3   36.24    6.86   1
  -7   3   3   43.69    2.78   1
  -7   3   4   42.64    8.75   1
  -7   3   4   29.05    3.99   1
  -7   3   4   38.07   10.37   1
  -7   3   5   17.47    5.02   1
  -7   3   5    8.29    7.20   1
  -7   3   5    4.00    6.32   1
  -7   3   5    7.90    8.99   1
  -7   3   6  572.17   22.48   1
  -7   3   6  475.68   19.19   1
  -7   3   7  126.34   11.91   1
  -7   3   7  128.60    9.30   1
  -7   3   8  583.22   30.43   1
  -7   3   8  478.73   25.38   1
  -7   4  -9   43.82   16.15   1
  -7   4  -8  503.55   30.97   1
  -7   4  -7  975.31   41.22   1
  -7   4  -6    6.71    9.32   1
  -7   4  -6   -9.18   10.18   1
  -7   4  -5  368.64   16.90   1
  -7   4  -4 1755.61   67.88   1
  -7   4  -4 2318.42   67.41   1
  -7   4  -3  560.27   19.41   1
  -7   4  -2  243.05   11.54   1
  -7   4  -2  162.56    6.38   1
  -7   4  -1  115.78   11.62   1
  -7   4  -1   81.18    8.11   1
  -7   4   0 1671.99   57.25   1
  -7   4   0 1799.46   56.84   1
  -7   4   1 2109.56   69.81   1
  -7   4   1 2220.29   70.68   1
  -7   4   2  192.93   11.11   1
  -7   4   2  194.60   11.72   1
  -7   4   3  305.90   13.99   1
  -7   4   3  255.04   16.61   1
  -7   4   3  300.68   10.75   1
  -7   4   3  338.56   11.41   1
  -7   4   4 2219.35   71.61   1
  -7   4   4 2208.06   74.24   1
  -7   4   4 2366.82   74.92   1
  -7   4   5 1122.25   38.19   1
  -7   4   5 1234.82   43.57   1
  -7   4   6   34.46    8.10   1
  -7   4   6   65.45   13.43   1
  -7   4   7   14.59    9.17   1
  -7   5  -9   11.97   16.88   1
  -7   5  -8   28.73   13.08   1
  -7   5  -7   17.47   10.70   1
  -7   5  -6  196.00   12.04   1
  -7   5  -5   80.46    8.25   1
  -7   5  -4 1545.28   51.89   1
  -7   5  -3 2308.80   74.00   1
  -7   5  -3 2204.30   72.30   1
  -7   5  -2  274.56   14.58   1
  -7   5  -1   22.28    7.27   1
  -7   5  -1   16.97    7.33   1
  -7   5   0 1155.32   39.43   1
  -7   5   0 1121.58   42.20   1
  -7   5   1 1440.20   47.06   1
  -7   5   1 1276.63   46.45   1
  -7   5   2  229.52    9.09   1
  -7   5   2  259.85    9.67   1
  -7   5   2  233.78   15.60   1
  -7   5   2  265.04   14.00   1
  -7   5   3 1343.96   49.86   1
  -7   5   3 1378.64   44.56   1
  -7   5   3 1404.75   47.97   1
  -7   5   4 1220.10   41.22   1
  -7   5   4 1293.84   45.32   1
  -7   5   5  518.02   24.13   1
  -7   5   5  517.11   26.38   1
  -7   5   6  284.60   16.20   1
  -7   5   6  331.97   20.41   1
  -7   6  -8  112.15   11.86   1
  -7   6  -7  365.57   20.65   1
  -7   6  -6    9.30    8.17   1
  -7   6  -5  282.58   13.78   1
  -7   6  -4 2539.15   84.66   1
  -7   6  -4 2537.14   84.62   1
  -7   6  -3  607.13   26.12   1
  -7   6  -3  573.12   21.55   1
  -7   6  -2   -0.59   11.63   1
  -7   6  -2   -3.39   10.67   1
  -7   6  -1   95.65   13.11   1
  -7   6  -1  101.00    9.25   1
  -7   6   0 1394.28   43.31   1
  -7   6   0 1345.42   46.22   1
  -7   6   1 1781.68   59.09   1
  -7   6   1 1764.00   59.64   1
  -7   6   2  338.93   17.67   1
  -7   6   2  318.62   17.85   1
  -7   6   3  271.92   16.16   1
  -7   6   3  264.39   14.96   1
  -7   6   4  938.81   43.51   1
  -7   6   5 1181.30   55.68   1
  -7   7  -7  262.44   16.52   1
  -7   7  -6   44.49   10.01   1
  -7   7  -5   16.48    8.36   1
  -7   7  -5  -11.90   10.49   1
  -7   7  -4  329.06   18.50   1
  -7   7  -4  357.97   21.57   1
  -7   7  -3   55.95   12.57   1
  -7   7  -3   22.47    6.16   1
  -7   7  -3   66.59   11.10   1
  -7   7  -2   29.05   10.03   1
  -7   7  -2   27.25    5.74   1
  -7   7  -2   31.47    8.41   1
  -7   7  -1   49.84    6.50   1
  -7   7  -1   58.83    8.74   1
  -7   7  -1   37.95   10.35   1
  -7   7   0  360.24   18.98   1
  -7   7   1  324.36   18.01   1
  -7   7   1  318.98   21.07   1
  -7   7   2   17.14   16.15   1
  -7   7   2   56.55   12.78   1
  -7   7   3   -4.71   11.72   1
  -7   7   4   -5.52   12.22   1
  -7   8  -7  269.62   20.69   1
  -7   8  -6   35.64   11.82   1
  -7   8  -6   23.52   13.29   1
  -7   8  -5   45.16   13.71   1
  -7   8  -4  299.98   19.40   1
  -7   8  -4  243.67   17.48   1
  -7   8  -3 1005.52   42.49   1
  -7   8  -3  900.00   43.80   1
  -7   8  -3  845.06   47.09   1
  -7   8  -2  499.97   27.28   1
  -7   8  -2  535.46   26.84   1
  -7   8  -1   16.40   12.39   1
  -7   8  -1   30.47    8.94   1
  -7   8   0  377.14   19.81   1
  -7   8   0  325.80   22.02   1
  -7   8   1 1654.86   69.97   1
  -7   8   1 1596.00   72.71   1
  -7   8   2  468.72   28.14   1
  -7   9  -6  357.59   28.74   1
  -7   9  -5   29.05   18.43   1
  -7   9  -5   24.30   12.62   1
  -7   9  -4   65.45   14.72   1
  -7   9  -4  117.07   16.23   1
  -7   9  -3   93.90   13.57   1
  -7   9  -3   79.57   14.99   1
  -7   9  -3   77.62   15.15   1
  -7   9  -2  -15.76   24.14   1
  -7   9  -2   -1.69   12.45   1
  -7   9  -1    7.40   12.29   1
  -7   9  -1   16.16   21.31   1
  -7   9   0  582.74   36.69   1
  -6  -7   2 1288.81   59.59   1
  -6  -7   3  474.80   30.07   1
  -6  -7   6  832.90   40.40   1
  -6  -6  -1  120.56   15.59   1
  -6  -6  -1  105.88   11.11   1
  -6  -6   0  304.15   21.63   1
  -6  -6   0  379.47   19.09   1
  -6  -6   1 1840.41   76.36   1
  -6  -6   1 1707.34   76.86   1
  -6  -6   2 2897.67  118.43   1
  -6  -6   2 2732.15  118.13   1
  -6  -6   3  493.28   26.21   1
  -6  -6   3  533.15   24.94   1
  -6  -6   4   40.96   10.37   1
  -6  -6   4   13.40    8.13   1
  -6  -6   5  846.23   38.98   1
  -6  -6   6 1761.48   75.55   1
  -6  -6   7  813.96   38.80   1
  -6  -6   9   50.98   13.14   1
  -6  -5  -2  927.20   43.24   1
  -6  -5  -2  934.52   42.80   1
  -6  -5  -1  133.63   13.41   1
  -6  -5  -1   99.40   12.56   1
  -6  -5   0  764.52   27.65   1
  -6  -5   0  642.62   26.36   1
  -6  -5   1 1604.80   56.08   1
  -6  -5   1 1749.75   56.89   1
  -6  -5   2  713.96   29.39   1
  -6  -5   2  795.24   28.20   1
  -6  -5   3 2834.50   86.25   1
  -6  -5   3 2540.16   86.69   1
  -6  -5   4  517.56   20.48   1
  -6  -5   4  480.49   20.60   1
  -6  -5   5 2517.03   83.28   1
  -6  -5   5 2651.22   83.41   1
  -6  -5   6 3321.22  107.19   1
  -6  -5   7  535.92   22.22   1
  -6  -5   8  139.00   16.74   1
  -6  -5  10  666.16   36.13   1
  -6  -4  -2 1510.88   51.31   1
  -6  -4  -1  296.87   15.85   1
  -6  -4  -1  260.82   14.86   1
  -6  -4   0  187.42   13.96   1
  -6  -4   0  217.86   13.28   1
  -6  -4   0  182.25    8.91   1
  -6  -4   1 1001.72   34.18   1
  -6  -4   1 1035.55   34.75   1
  -6  -4   1  931.47   33.57   1
  -6  -4   2 4286.32  119.16   1
  -6  -4   2 3243.30  113.90   1
  -6  -4   2 3345.47  112.21   1
  -6  -4   3 4537.37  130.68   1
  -6  -4   3 3673.57  127.28   1
  -6  -4   4  114.28   11.76   1
  -6  -4   4  104.24   10.62   1
  -6  -4   5  196.56   11.50   1
  -6  -4   5  187.14   11.22   1
  -6  -4   5  220.23   15.14   1
  -6  -4   6  465.70   20.29   1
  -6  -4   8 1059.50   37.11   1
  -6  -4   9  537.78   26.90   1
  -6  -4  10 1035.55   48.91   1
  -6  -3  -5   89.49   18.92   1
  -6  -3  -3  105.88    8.64   1
  -6  -3  -2  341.88   15.16   1
  -6  -3  -2  335.62   15.76   1
  -6  -3  -1  757.35   26.97   1
  -6  -3  -1  742.02   31.05   1
  -6  -3   0    6.50    4.90   1
  -6  -3   0  -12.39   10.98   1
  -6  -3   0    6.81    8.30   1
  -6  -3   0    3.69    6.37   1
  -6  -3   1   74.82    4.50   1
  -6  -3   1   64.96    9.83   1
  -6  -3   1   78.32    7.26   1
  -6  -3   2 5580.09  149.40   1
  -6  -3   2 4758.24  144.86   1
  -6  -3   2 4286.32  146.65   1
  -6  -3   2 4366.57  146.70   1
  -6  -3   3 3485.72   95.64   1
  -6  -3   3 2890.14   94.62   1
  -6  -3   3 2710.24   94.75   1
  -6  -3   4 3127.05  107.37   1
  -6  -3   4 3189.99  107.31   1
  -6  -3   4 4029.71  112.99   1
  -6  -3   5  125.44    8.29   1
  -6  -3   5  152.77   11.62   1
  -6  -3   5  130.19    9.58   1
  -6  -3   6 1576.88   50.83   1
  -6  -3   6 1216.61   45.34   1
  -6  -3   7  210.83   11.62   1
  -6  -3   7  247.12   15.41   1
  -6  -3   8  191.55   11.63   1
  -6  -3   9  212.28   14.28   1
  -6  -3  10  152.77   13.60   1
  -6  -2  -7  206.50   19.83   1
  -6  -2  -6  684.35   37.67   1
  -6  -2  -5 1108.89   41.29   1
  -6  -2  -2 1842.98   65.25   1
  -6  -2  -2 2221.24   66.92   1
  -6  -2  -1 2817.49   81.74   1
  -6  -2  -1 2205.24   78.89   1
  -6  -2   0  157.00   10.27   1
  -6  -2   0  130.87    8.47   1
  -6  -2   0  122.77    8.64   1
  -6  -2   1   36.00    5.40   1
  -6  -2   1   27.35    6.07   1
  -6  -2   1   27.56    9.45   1
  -6  -2   2 2476.06   81.61   1
  -6  -2   2 2401.00   80.36   1
  -6  -2   2 2351.28   80.49   1
  -6  -2   2 3085.80   84.44   1
  -6  -2   3 6217.32  195.55   1
  -6  -2   3 6293.25  196.74   1
  -6  -2   3 6694.51  196.37   1
  -6  -2   4   47.75    7.32   1
  -6  -2   4   54.02    7.64   1
  -6  -2   4   35.52    7.87   1
  -6  -2   5  417.79   15.94   1
  -6  -2   5  436.81   17.56   1
  -6  -2   6 3400.06   96.79   1
  -6  -2   6 2623.49   94.24   1
  -6  -2   7 2306.88   70.12   1
  -6  -2   7 1772.41   63.99   1
  -6  -2   8  548.03   21.07   1
  -6  -2   9  103.43   10.37   1
  -6  -2  10  471.32   24.75   1
  -6  -1  -7   53.00   11.79   1
  -6  -1  -5  476.99   21.40   1
  -6  -1  -4  343.36   16.68   1
  -6  -1  -4  406.43   19.35   1
  -6  -1  -3 1343.96   54.99   1
  -6  -1  -3 1799.46   54.30   1
  -6  -1  -2 2502.00   79.03   1
  -6  -1  -1  705.43   26.56   1
  -6  -1  -1  965.97   30.46   1
  -6  -1   0 1823.29   64.90   1
  -6  -1   0 2409.83   69.71   1
  -6  -1   0 1993.62   67.87   1
  -6  -1   1 3491.63  117.00   1
  -6  -1   1 3453.91  117.54   1
  -6  -1   1 4476.95  117.76   1
  -6  -1   1 3735.65  117.35   1
  -6  -1   2 4143.50  136.46   1
  -6  -1   2 4014.49  136.86   1
  -6  -1   2 5217.17  140.13   1
  -6  -1   2 4463.58  137.63   1
  -6  -1   310444.84  290.25   1
  -6  -1   3 8359.45  285.26   1
  -6  -1   4  193.49    9.18   1
  -6  -1   4  219.34   10.07   1
  -6  -1   4  290.70   11.25   1
  -6  -1   4  218.15   11.82   1
  -6  -1   5   10.63    7.43   1
  -6  -1   5   26.01    6.43   1
  -6  -1   5   -3.10    5.91   1
  -6  -1   5    7.51    3.73   1
  -6  -1   6 2814.30   79.57   1
  -6  -1   6 2209.00   75.20   1
  -6  -1   6 2227.84   76.46   1
  -6  -1   7 2781.51   87.55   1
  -6  -1   8   34.81    7.67   1
  -6  -1   8   16.97    6.67   1
  -6  -1   9  -14.82   10.63   1
  -6  -1  10  173.19   17.11   1
  -6   0  -8   26.94   11.00   1
  -6   0  -7   26.63   14.14   1
  -6   0  -5 2760.45   80.91   1
  -6   0  -5 2732.15   82.59   1
  -6   0  -5 2007.04   87.81   1
  -6   0  -4  593.90   22.42   1
  -6   0  -4  592.44   22.88   1
  -6   0  -3   20.98    7.33   1
  -6   0  -3   -7.90    4.38   1
  -6   0  -2 1672.81   53.17   1
  -6   0  -2 1541.35   53.39   1
  -6   0  -1 1215.22   43.23   1
  -6   0  -1 1337.36   43.88   1
  -6   0   0   14.06    2.92   1
  -6   0   0   -3.50    8.30   1
  -6   0   0   10.37    6.38   1
  -6   0   0    5.11    4.02   1
  -6   0   1   94.28    8.35   1
  -6   0   1  144.00    6.00   1
  -6   0   1  109.20    6.90   1
  -6   0   1  154.50    9.70   1
  -6   0   2 1669.54   47.40   1
  -6   0   2 1280.92   42.95   1
  -6   0   2 1194.39   43.55   1
  -6   0   2 1484.56   46.24   1
  -6   0   2 1254.58   45.34   1
  -6   0   3 8635.99  291.80   1
  -6   0   3 9154.66  292.78   1
  -6   0   3 8493.47  293.07   1
  -6   0   310945.34  295.03   1
  -6   0   310625.49  294.81   1
  -6   0   4 1301.04   41.84   1
  -6   0   4 1563.41   46.66   1
  -6   0   4 1295.28   43.91   1
  -6   0   4 1197.85   44.30   1
  -6   0   5 2694.65   90.32   1
  -6   0   5 2613.25   86.90   1
  -6   0   5 2611.21   88.91   1
  -6   0   5 3477.46   93.17   1
  -6   0   6 1181.98   39.19   1
  -6   0   7  537.78   19.94   1
  -6   0   7  521.67   20.56   1
  -6   0   8  624.50   23.49   1
  -6   0   9  272.25   15.84   1
  -6   0  10   -3.50    8.90   1
  -6   1  -9  180.90   20.44   1
  -6   1  -8   24.50   12.97   1
  -6   1  -7  223.20   16.73   1
  -6   1  -7  123.43   12.67   1
  -6   1  -6  290.36   16.70   1
  -6   1  -6  364.43   17.18   1
  -6   1  -5 2015.11   61.95   1
  -6   1  -5 2539.15   58.45   1
  -6   1  -5  565.01   54.67   1
  -6   1  -4   38.32    6.56   1
  -6   1  -4   64.96    8.22   1
  -6   1  -3   29.81    7.43   1
  -6   1  -3   15.52    4.89   1
  -6   1  -3   34.11    5.84   1
  -6   1  -2 3527.17  100.96   1
  -6   1  -2 3515.30   99.61   1
  -6   1  -2 2499.00   98.98   1
  -6   1  -1 1982.92   85.50   1
  -6   1  -1 3231.92   88.69   1
  -6   1  -1 3032.70   88.11   1
  -6   1   0  183.60    8.13   1
  -6   1   0  233.17   10.99   1
  -6   1   0  160.28    9.37   1
  -6   1   1  901.20   28.82   1
  -6   1   1  766.18   24.36   1
  -6   1   1  723.07   25.81   1
  -6   1   1  742.02   26.70   1
  -6   1   2  728.46   24.29   1
  -6   1   2  606.64   22.17   1
  -6   1   2  618.02   22.37   1
  -6   1   3 8731.03  244.81   1
  -6   1   3 6992.30  240.83   1
  -6   1   4   26.63    4.33   1
  -6   1   4   38.44    9.30   1
  -6   1   4   38.32    6.56   1
  -6   1   4   25.70    7.10   1
  -6   1   5   20.07    7.17   1
  -6   1   5    7.18   10.08   1
  -6   1   5   -2.99    4.19   1
  -6   1   5    3.88    3.31   1
  -6   1   6 2460.16   77.38   1
  -6   1   6 2472.08   78.56   1
  -6   1   7 4004.36  127.83   1
  -6   1   8 1368.26   48.09   1
  -6   1   8 1455.42   48.83   1
  -6   1  10   90.63   12.00   1
  -6   2  -9  118.59   17.21   1
  -6   2  -8   37.21    9.15   1
  -6   2  -7  292.75   15.06   1
  -6   2  -7  234.70   14.40   1
  -6   2  -6  389.67   18.95   1
  -6   2  -6  424.36   19.36   1
  -6   2  -6  323.28   17.26   1
  -6   2  -5 2687.39  104.72   1
  -6   2  -5 3733.21  107.54   1
  -6   2  -5 3711.25  110.87   1
  -6   2  -4  277.89   12.67   1
  -6   2  -4  333.06   13.51   1
  -6   2  -3  724.69   26.92   1
  -6   2  -3  770.62   26.65   1
  -6   2  -2  568.35   23.36   1
  -6   2  -2  852.64   25.70   1
  -6   2  -1 5196.97  134.09   1
  -6   2  -1 3464.50  135.38   1
  -6   2   0  223.50   10.76   1
  -6   2   0  259.21   13.20   1
  -6   2   0  311.17   13.05   1
  -6   2   1  889.23   28.63   1
  -6   2   1  712.36   26.69   1
  -6   2   2 1480.71   50.02   1
  -6   2   2 1472.26   46.81   1
  -6   2   2 1503.11   47.30   1
  -6   2   2 1709.82   49.62   1
  -6   2   2 1395.02   48.55   1
  -6   2   3 3010.72   97.67   1
  -6   2   3 3237.61   97.87   1
  -6   2   3 3060.30   99.58   1
  -6   2   3 2928.97   98.50   1
  -6   2   3 3650.58  101.51   1
  -6   2   4 1553.94   50.46   1
  -6   2   4 1813.06   52.80   1
  -6   2   4 1481.48   52.35   1
  -6   2   4 1465.36   50.53   1
  -6   2   5  504.00   19.76   1
  -6   2   5  518.47   18.22   1
  -6   2   5  494.62   20.02   1
  -6   2   6  224.10    9.88   1
  -6   2   6  212.28   11.07   1
  -6   2   7 1296.72   43.21   1
  -6   2   7 1248.21   43.10   1
  -6   2   8 1055.60   37.69   1
  -6   2   8 1086.36   39.55   1
  -6   2   9   81.90   10.32   1
  -6   2   9   59.44   10.95   1
  -6   3 -10   92.35   15.95   1
  -6   3  -9  206.78   16.11   1
  -6   3  -7  946.79   40.00   1
  -6   3  -7 1194.39   38.71   1
  -6   3  -6 6943.89  253.32   1
  -6   3  -6 8732.90  256.05   1
  -6   3  -6 8749.73  252.56   1
  -6   3  -5 9662.89  273.27   1
  -6   3  -5 9164.23  271.87   1
  -6   3  -5 7680.77  271.68   1
  -6   3  -4  421.48   17.66   1
  -6   3  -3  401.20   15.62   1
  -6   3  -3  290.02   12.60   1
  -6   3  -2   30.69    7.20   1
  -6   3  -1 4131.92  120.85   1
  -6   3  -1 3556.93  120.47   1
  -6   3   0 4367.89  142.75   1
  -6   3   0 4298.11  142.92   1
  -6   3   0 5288.20  146.89   1
  -6   3   1 2472.08   71.60   1
  -6   3   1 2002.56   69.81   1
  -6   3   1 2107.73   71.62   1
  -6   3   2  924.16   28.58   1
  -6   3   2  907.82   30.73   1
  -6   3   2  843.32   30.20   1
  -6   3   3 2522.05   84.37   1
  -6   3   3 2601.00   83.64   1
  -6   3   3 2615.30   84.89   1
  -6   3   3 2964.80   83.85   1
  -6   3   4   23.04    8.74   1
  -6   3   4    7.40    4.79   1
  -6   3   4    1.99    3.78   1
  -6   3   4   21.72    6.80   1
  -6   3   5  248.69   11.35   1
  -6   3   5  194.60   11.16   1
  -6   3   5  189.06    9.62   1
  -6   3   6 1306.82   41.93   1
  -6   3   6 1135.02   39.08   1
  -6   3   6 1133.67   43.77   1
  -6   3   7  694.32   26.88   1
  -6   3   7  619.51   24.39   1
  -6   3   8  493.73   27.11   1
  -6   3   8  450.71   24.20   1
  -6   3   9   24.90    9.88   1
  -6   4 -10   47.75   18.93   1
  -6   4  -9  139.24   13.45   1
  -6   4  -8  320.77   15.76   1
  -6   4  -8  253.45   18.15   1
  -6   4  -7   29.16    7.34   1
  -6   4  -7   37.45   12.97   1
  -6   4  -6  470.89   19.10   1
  -6   4  -6  410.87   20.27   1
  -6   4  -5 2831.30   87.26   1
  -6   4  -5 2576.58   87.31   1
  -6   4  -4  887.44   38.73   1
  -6   4  -4 1145.82   36.56   1
  -6   4  -3   15.68   10.06   1
  -6   4  -2  748.57   25.72   1
  -6   4  -2  825.41   28.16   1
  -6   4  -1 4303.36  133.82   1
  -6   4  -1 4311.24  133.95   1
  -6   4   0   22.00    8.25   1
  -6   4   0   39.56    8.81   1
  -6   4   1  508.05   15.33   1
  -6   4   1  468.29   19.91   1
  -6   4   1  452.41   17.87   1
  -6   4   1  457.53   15.40   1
  -6   4   2  124.99   11.18   1
  -6   4   2  151.29    9.10   1
  -6   4   2  183.33    7.04   1
  -6   4   3  265.04   10.09   1
  -6   4   3  219.04   13.32   1
  -6   4   3  224.10   12.28   1
  -6   4   4  345.96   16.00   1
  -6   4   4  367.49   16.49   1
  -6   4   4  446.05   15.63   1
  -6   4   5  975.31   32.48   1
  -6   4   5  898.80   33.58   1
  -6   4   6  522.58   22.86   1
  -6   4   6  503.55   24.24   1
  -6   4   7  727.92   36.15   1
  -6   4   7  728.46   33.47   1
  -6   4   8  711.82   35.75   1
  -6   4   8  713.96   34.20   1
  -6   5 -10   26.11   13.80   1
  -6   5  -9  335.99   21.63   1
  -6   5  -8   58.68    9.50   1
  -6   5  -7  503.55   23.79   1
  -6   5  -5 3249.00  103.74   1
  -6   5  -4  911.44   33.81   1
  -6   5  -3  214.92   12.90   1
  -6   5  -3  237.78   11.72   1
  -6   5  -2 1081.09   36.83   1
  -6   5  -1 2890.14   84.94   1
  -6   5  -1 2613.25   84.86   1
  -6   5  -1 2473.07   82.55   1
  -6   5   0 2224.07   64.14   1
  -6   5   0 1883.56   65.97   1
  -6   5   0 1962.49   65.56   1
  -6   5   1 1503.89   45.76   1
  -6   5   1 1321.32   46.53   1
  -6   5   1 1418.28   50.46   1
  -6   5   2  434.72   19.18   1
  -6   5   2  535.00   20.35   1
  -6   5   2  530.84   17.51   1
  -6   5   3 4703.22  149.50   1
  -6   5   3 4867.85  149.31   1
  -6   5   4 3927.53  114.06   1
  -6   5   4 3199.03  111.99   1
  -6   5   5  803.72   31.19   1
  -6   5   6  148.11   14.12   1
  -6   5   7  532.22   30.91   1
  -6   6 -10    8.18   14.30   1
  -6   6  -9  105.06   14.76   1
  -6   6  -8   72.93   12.64   1
  -6   6  -7   -6.92    9.73   1
  -6   6  -6  107.33   10.77   1
  -6   6  -5 1414.51   48.14   1
  -6   6  -4  680.17   25.56   1
  -6   6  -4  549.43   27.19   1
  -6   6  -3   28.94    3.66   1
  -6   6  -3   13.99    8.08   1
  -6   6  -2   15.76    6.11   1
  -6   6  -2   14.06    3.23   1
  -6   6  -2   15.13    4.98   1
  -6   6  -2    0.59   10.13   1
  -6   6  -1  849.72   35.56   1
  -6   6  -1 1145.15   31.81   1
  -6   6  -1  925.98   34.08   1
  -6   6  -1  999.19   34.77   1
  -6   6   0 2633.74   74.93   1
  -6   6   0 2061.16   77.18   1
  -6   6   0 2518.03   76.27   1
  -6   6   0 2188.37   76.72   1
  -6   6   1    3.39    4.38   1
  -6   6   1   18.92   11.31   1
  -6   6   1   22.56    6.65   1
  -6   6   2  170.82   12.02   1
  -6   6   2  184.42   10.59   1
  -6   6   3  364.81   15.28   1
  -6   6   3  321.48   16.85   1
  -6   6   4  939.42   34.94   1
  -6   6   5  639.08   32.86   1
  -6   6   6   -1.90   17.33   1
  -6   7  -9  556.49   31.61   1
  -6   7  -8  175.83   14.59   1
  -6   7  -7   87.42   12.53   1
  -6   7  -6    8.53    9.81   1
  -6   7  -5 1189.56   36.56   1
  -6   7  -5  844.48   44.17   1
  -6   7  -5 1062.76   39.12   1
  -6   7  -4   82.26    7.62   1
  -6   7  -4   40.70   12.89   1
  -6   7  -4   85.93    8.71   1
  -6   7  -3   33.06    8.74   1
  -6   7  -3   62.57    7.91   1
  -6   7  -3   68.56    6.46   1
  -6   7  -2  480.49   21.04   1
  -6   7  -2  535.46   21.75   1
  -6   7  -2  581.29   19.29   1
  -6   7  -1 1166.22   38.93   1
  -6   7  -1 1130.98   39.68   1
  -6   7  -1 1457.71   38.18   1
  -6   7  -1  668.22   43.95   1
  -6   7   0 1054.95   32.48   1
  -6   7   0  872.02   32.48   1
  -6   7   0  869.66   33.03   1
  -6   7   1   14.82    6.31   1
  -6   7   1    8.70    9.62   1
  -6   7   1    4.20    9.80   1
  -6   7   2   -8.41   10.21   1
  -6   7   3  451.14   25.06   1
  -6   7   4  830.59   39.77   1
  -6   8  -9   76.74   14.72   1
  -6   8  -8  244.61   17.20   1
  -6   8  -6  253.76   19.75   1
  -6   8  -6  229.22   17.26   1
  -6   8  -5 1106.23   41.24   1
  -6   8  -5 1106.23   43.90   1
  -6   8  -4  350.06   17.96   1
  -6   8  -4  315.77   15.64   1
  -6   8  -3  145.68   13.28   1
  -6   8  -3  229.83   13.34   1
  -6   8  -3  214.62   14.36   1
  -6   8  -2  191.55   15.50   1
  -6   8  -2  195.72   12.87   1
  -6   8  -1  701.72   34.44   1
  -6   8  -1  811.68   33.05   1
  -6   8  -1  778.41   27.90   1
  -6   8   0 2718.58   84.47   1
  -6   8   0 2517.03   86.29   1
  -6   8   1 1009.33   47.02   1
  -6   8   2  310.82   20.45   1
  -6   8   3   84.46   19.12   1
  -6   9  -8  497.29   30.77   1
  -6   9  -8  338.19   29.06   1
  -6   9  -7  126.79   21.39   1
  -6   9  -7  119.25   17.47   1
  -6   9  -6  309.06   24.96   1
  -6   9  -6  345.59   23.05   1
  -6   9  -5 1041.35   48.40   1
  -6   9  -5  988.47   47.79   1
  -6   9  -4  445.63   25.33   1
  -6   9  -4  436.39   22.56   1
  -6   9  -4  407.23   24.62   1
  -6   9  -3  474.80   28.76   1
  -6   9  -2   72.25   10.71   1
  -6   9  -2  103.43   14.24   1
  -6   9  -2   85.38   13.12   1
  -6   9  -1   57.15   13.61   1
  -6   9   0  664.09   42.26   1
  -6   9   0  863.18   40.54   1
  -6   9   1  302.41   21.56   1
  -6  10  -5    1.00   11.70   1
  -6  10  -5    9.12   18.12   1
  -6  10  -4  719.85   38.64   1
  -6  10  -3  766.18   42.63   1
  -6  10  -3  935.14   42.81   1
  -6  10  -2  121.00   21.78   1
  -6  10  -2   95.84   15.47   1
  -5  -8   3  249.01   25.25   1
  -5  -8   4  702.25   35.51   1
  -5  -8   5  374.04   27.46   1
  -5  -8   6    4.71   13.80   1
  -5  -7   0 1174.43   55.52   1
  -5  -7   1 3395.39  143.34   1
  -5  -7   2 2373.64   95.49   1
  -5  -7   2 2106.81   95.47   1
  -5  -7   3   23.23   12.05   1
  -5  -7   4  840.42   38.85   1
  -5  -7   5 2862.25  119.84   1
  -5  -7   6  364.05   24.42   1
  -5  -7   7   36.84   12.26   1
  -5  -7   8  644.14   32.49   1
  -5  -7   9  433.06   25.39   1
  -5  -6  -3  732.24   38.43   1
  -5  -6  -2   74.48   11.05   1
  -5  -6  -2   28.94   14.74   1
  -5  -6  -1   36.60    9.68   1
  -5  -6  -1   66.26   16.28   1
  -5  -6   0  385.34   21.99   1
  -5  -6   0  388.48   16.16   1
  -5  -6   1  157.00   11.03   1
  -5  -6   1  121.66   13.24   1
  -5  -6   2    7.62    9.60   1
  -5  -6   2   33.29    8.54   1
  -5  -6   3  216.97   13.55   1
  -5  -6   3  185.78   10.36   1
  -5  -6   4 2037.62   66.81   1
  -5  -6   5 3023.90   95.68   1
  -5  -6   6 1829.27   60.73   1
  -5  -6   7  227.41   14.48   1
  -5  -6   8  611.57   30.17   1
  -5  -6   9 1314.79   58.02   1
  -5  -6  10  191.55   16.88   1
  -5  -5  -3 1036.20   47.00   1
  -5  -5  -2  151.29   13.78   1
  -5  -5  -1  -18.40    9.09   1
  -5  -5  -1   19.89    7.94   1
  -5  -5   0 1566.58   49.08   1
  -5  -5   0 1370.48   51.09   1
  -5  -5   1 5647.52  156.31   1
  -5  -5   1 4567.06  156.79   1
  -5  -5   1 4858.09  156.13   1
  -5  -5   2 1297.44   47.55   1
  -5  -5   2 1360.13   42.78   1
  -5  -5   3 3590.41  111.45   1
  -5  -5   5 8508.22  261.96   1
  -5  -5   6 2678.06   85.90   1
  -5  -5   7  255.04   13.73   1
  -5  -5   9 1161.45   52.48   1
  -5  -5  10  703.31   35.01   1
  -5  -5  11  422.30   27.54   1
  -5  -4  -6   44.49   15.34   1
  -5  -4  -3 2322.28   71.32   1
  -5  -4  -3 1909.69   69.05   1
  -5  -4  -2   82.81    7.46   1
  -5  -4  -2   54.17    9.27   1
  -5  -4  -1  153.02   12.62   1
  -5  -4  -1  165.64    7.98   1
  -5  -4   0  786.80   26.93   1
  -5  -4   0  723.61   27.44   1
  -5  -4   0  838.68   28.38   1
  -5  -4   1 3634.88  118.17   1
  -5  -4   1 3627.65  119.26   1
  -5  -4   1 4201.63  117.97   1
  -5  -4   2 4583.29  138.11   1
  -5  -4   2 4345.45  137.11   1
  -5  -4   3  484.88   18.50   1
  -5  -4   3  483.56   20.23   1
  -5  -4   3  568.82   21.94   1
  -5  -4   4 1031.69   37.26   1
  -5  -4   4 1278.06   37.18   1
  -5  -4   4  955.43   35.86   1
  -5  -4   5 1701.56   51.97   1
  -5  -4   5 1385.33   48.39   1
  -5  -4   5 1408.50   48.04   1
  -5  -4   6   45.83    9.34   1
  -5  -4   6   43.96    8.35   1
  -5  -4   7  302.76   15.66   1
  -5  -4   8  642.12   24.33   1
  -5  -4   9 1241.15   42.98   1
  -5  -4  10 1020.80   46.01   1
  -5  -4  11   48.44   17.68   1
  -5  -3  -7  882.68   45.16   1
  -5  -3  -6 1782.53   81.91   1
  -5  -3  -5  109.20   13.17   1
  -5  -3  -3 1620.06   54.74   1
  -5  -3  -2   33.41    5.66   1
  -5  -3  -2    4.00   11.52   1
  -5  -3  -2   -4.58    9.46   1
  -5  -3  -1 1595.20   47.93   1
  -5  -3  -1 1382.35   45.36   1
  -5  -3  -1 1262.38   45.48   1
  -5  -3   0  613.06   21.29   1
  -5  -3   0  564.06   21.85   1
  -5  -3   0  596.34   21.49   1
  -5  -3   0  728.46   26.99   1
  -5  -3   1 2870.82  101.80   1
  -5  -3   1 3751.56  102.90   1
  -5  -3   1 3297.06  102.21   1
  -5  -3   2 4470.26  136.39   1
  -5  -3   2 4264.09  137.13   1
  -5  -3   2 5224.40  138.78   1
  -5  -3   2 4042.42  137.33   1
  -5  -3   3  522.58   19.66   1
  -5  -3   3  644.14   20.81   1
  -5  -3   3  510.31   18.98   1
  -5  -3   4  571.21   21.03   1
  -5  -3   4  713.42   24.04   1
  -5  -3   4  590.98   21.88   1
  -5  -3   5  230.43   11.54   1
  -5  -3   5  287.30   13.90   1
  -5  -3   5  316.84   14.95   1
  -5  -3   6  883.28   32.69   1
  -5  -3   6  980.32   33.19   1
  -5  -3   7    6.30    8.58   1
  -5  -3   7   11.97    7.68   1
  -5  -3   8 1005.52   31.71   1
  -5  -3   8  748.57   31.19   1
  -5  -3   9 1794.37   55.92   1
  -5  -3   9 1532.72   56.38   1
  -5  -3  10  479.61   24.97   1
  -5  -3  11  106.50   13.00   1
  -5  -2  -8   58.22   14.34   1
  -5  -2  -4  803.72   29.48   1
  -5  -2  -3 5115.11  161.64   1
  -5  -2  -2 2601.00   92.82   1
  -5  -2  -2 3152.82   92.09   1
  -5  -2  -1  190.72    9.11   1
  -5  -2  -1  141.13    7.84   1
  -5  -2   0 5872.16  180.85   1
  -5  -2   1 9960.04  307.38   1
  -5  -2   110174.76  306.64   1
  -5  -2   2 5671.60  152.13   1
  -5  -2   2 4495.70  148.85   1
  -5  -2   2 4790.02  146.73   1
  -5  -2   2 4443.56  147.99   1
  -5  -2   3    9.30    5.43   1
  -5  -2   3    8.70    1.42   1
  -5  -2   3    1.00    5.30   1
  -5  -2   3   13.69    7.62   1
  -5  -2   4  531.30   21.21   1
  -5  -2   4  490.62   18.61   1
  -5  -2   4  648.72   21.39   1
  -5  -2   510104.27  295.53   1
  -5  -2   5 8322.91  293.76   1
  -5  -2   510465.29  294.62   1
  -5  -2   6 4475.61  128.45   1
  -5  -2   6 3484.54  126.32   1
  -5  -2   6 4371.85  129.60   1
  -5  -2   7 2079.36   67.49   1
  -5  -2   8 1016.33   35.71   1
  -5  -2   8 1035.55   34.11   1
  -5  -2   8  831.17   32.29   1
  -5  -2   9  239.63   13.31   1
  -5  -2   9  335.99   16.13   1
  -5  -2  10  421.07   19.70   1
  -5  -2  11  470.89   26.04   1
  -5  -1  -8    7.18   11.36   1
  -5  -1  -6 1974.02   58.65   1
  -5  -1  -6 1628.93   66.19   1
  -5  -1  -5    3.61    9.20   1
  -5  -1  -4  199.66   11.59   1
  -5  -1  -3 3200.16  106.35   1
  -5  -1  -2 6552.90  202.38   1
  -5  -1  -1  693.80   24.76   1
  -5  -1  -1  873.79   27.79   1
  -5  -1   0 1949.22   57.40   1
  -5  -1   0 1505.44   53.54   1
  -5  -1   1 2742.62   93.22   1
  -5  -1   1 3374.45   94.11   1
  -5  -1   1 2677.03   90.03   1
  -5  -1   2 7542.92  258.81   1
  -5  -1   2 9514.05  261.41   1
  -5  -1   2 7958.42  262.28   1
  -5  -1   2 7749.28  258.81   1
  -5  -1   210008.00  268.11   1
  -5  -1   3 1278.78   45.06   1
  -5  -1   3 1582.45   46.14   1
  -5  -1   3 1303.21   44.04   1
  -5  -1   3 1300.32   44.71   1
  -5  -1   3 1572.92   46.80   1
  -5  -1   4   38.69    7.84   1
  -5  -1   4    1.21    3.32   1
  -5  -1   4   19.89    6.07   1
  -5  -1   4   10.69    4.77   1
  -5  -1   4   10.37    2.77   1
  -5  -1   511444.72  301.68   1
  -5  -1   5 9246.75  300.02   1
  -5  -1   5 9217.92  299.55   1
  -5  -1   5 9516.00  302.40   1
  -5  -1   6 5314.41  179.33   1
  -5  -1   6 5004.15  178.26   1
  -5  -1   6 6502.81  180.63   1
  -5  -1   6 6414.41  181.00   1
  -5  -1   7   23.81    7.12   1
  -5  -1   7   27.67    7.57   1
  -5  -1   7   29.81    6.66   1
  -5  -1   8  269.94   13.47   1
  -5  -1   8  382.98   14.87   1
  -5  -1   8  280.56   17.42   1
  -5  -1   9  641.10   23.29   1
  -5  -1   9  527.62   23.89   1
  -5  -1  10  412.90   23.98   1
  -5  -1  11  257.92   17.67   1
  -5   0  -9   18.32   17.12   1
  -5   0  -8  293.09   16.78   1
  -5   0  -7  566.44   21.42   1
  -5   0  -7  457.96   20.97   1
  -5   0  -6 1329.33   40.11   1
  -5   0  -6 1076.50   43.31   1
  -5   0  -5  112.36    8.48   1
  -5   0  -5   84.46    7.72   1
  -5   0  -4   31.25    6.60   1
  -5   0  -4   20.61    6.63   1
  -5   0  -4   23.72    7.60   1
  -5   0  -3 3590.41  107.86   1
  -5   0  -3 2813.24  106.08   1
  -5   0  -3 3798.26  109.70   1
  -5   0  -2 4536.02  137.39   1
  -5   0  -2 4447.56  140.05   1
  -5   0  -1 1487.64   46.28   1
  -5   0  -1 1366.04   45.83   1
  -5   0   011517.58  328.40   1
  -5   0   011867.92  339.89   1
  -5   0   0 9047.81  327.21   1
  -5   0   1 8363.10  270.69   1
  -5   0   1 7791.59  268.34   1
  -5   0   1 9666.82  271.36   1
  -5   0   1 8306.50  269.77   1
  -5   0   110259.66  273.48   1
  -5   0   2   34.22    2.92   1
  -5   0   2   11.83    2.82   1
  -5   0   2   21.81    5.42   1
  -5   0   2   16.89    3.53   1
  -5   0   3 1503.89   52.74   1
  -5   0   3 1505.44   51.99   1
  -5   0   3 1908.82   54.18   1
  -5   0   3 1645.92   54.36   1
  -5   0   3 1920.19   54.34   1
  -5   0   4   27.77    7.90   1
  -5   0   4   13.91    4.33   1
  -5   0   4   20.88    5.48   1
  -5   0   4    8.18    4.00   1
  -5   0   5 2630.66   87.19   1
  -5   0   5 2537.14   85.63   1
  -5   0   5 2526.07   84.44   1
  -5   0   5 3208.09   86.09   1
  -5   0   611410.51  373.87   1
  -5   0   613964.15  375.78   1
  -5   0   611257.21  373.47   1
  -5   0   7 7987.00  244.87   1
  -5   0   7 8083.81  248.15   1
  -5   0   8  121.88    9.94   1
  -5   0   8   93.12    8.30   1
  -5   0   8   60.06   11.93   1
  -5   0   9  597.31   23.46   1
  -5   0  10  889.23   41.75   1
  -5   0  11  244.30   18.44   1
  -5   1  -9   26.01   10.61   1
  -5   1  -8    1.10    8.72   1
  -5   1  -7   29.27    7.79   1
  -5   1  -7   66.75   10.95   1
  -5   1  -6  289.68   16.00   1
  -5   1  -6  364.43   14.89   1
  -5   1  -5  627.00   21.53   1
  -5   1  -5  570.25   21.97   1
  -5   1  -5  467.42   21.62   1
  -5   1  -4  106.09    7.62   1
  -5   1  -4   85.75    6.48   1
  -5   1  -4   90.63    6.09   1
  -5   1  -3 4357.32  134.66   1
  -5   1  -3 4420.92  135.64   1
  -5   1  -2 1136.36   37.08   1
  -5   1  -1  995.40   32.81   1
  -5   1   0 1334.44   29.95   1
  -5   1   0  361.00   25.08   1
  -5   1   0  982.82   28.22   1
  -5   1   0  803.16   27.21   1
  -5   1   1  919.30   31.53   1
  -5   1   1 1114.89   32.72   1
  -5   1   1  955.43   32.76   1
  -5   1   1  972.19   30.56   1
  -5   1   2 3352.41  111.17   1
  -5   1   2 3485.72  109.81   1
  -5   1   2 3382.59  109.34   1
  -5   1   2 4098.56  111.39   1
  -5   1   3  559.80   20.35   1
  -5   1   3  578.88   20.21   1
  -5   1   3  742.02   22.34   1
  -5   1   3  555.54   19.33   1
  -5   1   4   18.23    3.93   1
  -5   1   4   12.18    3.70   1
  -5   1   4   14.67    7.81   1
  -5   1   4   21.44    5.46   1
  -5   1   5  641.61   24.82   1
  -5   1   5  875.57   26.04   1
  -5   1   5  737.12   25.52   1
  -5   1   6 1878.36   65.01   1
  -5   1   6 2011.52   69.07   1
  -5   1   6 2383.39   68.35   1
  -5   1   7   66.75    9.31   1
  -5   1   7   53.73    6.60   1
  -5   1   7   61.62    6.59   1
  -5   1   8   60.37    9.79   1
  -5   1   8   41.22    9.76   1
  -5   1   8   35.16    6.88   1
  -5   1   9  870.84   31.87   1
  -5   1  10  778.97   37.40   1
  -5   2 -10  101.61   13.91   1
  -5   2  -9   66.10   10.08   1
  -5   2  -8  232.26   11.89   1
  -5   2  -8  182.52   14.59   1
  -5   2  -7 1557.88   51.31   1
  -5   2  -6 8346.65  237.54   1
  -5   2  -6 8414.39  234.83   1
  -5   2  -6 6340.94  237.30   1
  -5   2  -5 2803.70   81.54   1
  -5   2  -5 2689.46   80.90   1
  -5   2  -5 2186.50   80.43   1
  -5   2  -4  859.66   26.97   1
  -5   2  -4  597.80   24.94   1
  -5   2  -4  820.25   25.20   1
  -5   2  -3 1043.29   34.88   1
  -5   2  -3  992.88   34.03   1
  -5   2  -2 3249.00  120.84   1
  -5   2  -2 4596.84  122.04   1
  -5   2  -1   52.56    2.46   1
  -5   2  -1   89.30    6.43   1
  -5   2   0 1044.58   30.38   1
  -5   2   0  845.06   29.07   1
  -5   2   0  862.60   29.96   1
  -5   2   112544.00  338.24   1
  -5   2   110150.56  334.49   1
  -5   2   110416.24  334.76   1
  -5   2   2 5430.22  147.38   1
  -5   2   2 4814.97  145.72   1
  -5   2   2 4468.92  147.07   1
  -5   2   2 4329.64  148.71   1
  -5   2   3 3110.29  103.73   1
  -5   2   3 3147.21  104.35   1
  -5   2   3 3814.30  104.99   1
  -5   2   4 2247.71   77.75   1
  -5   2   4 2341.59   77.42   1
  -5   2   4 2940.89   80.26   1
  -5   2   4 2329.99   77.23   1
  -5   2   5  221.12   10.71   1
  -5   2   5  234.70   10.11   1
  -5   2   5  266.02   11.74   1
  -5   2   6   62.73    9.03   1
  -5   2   6   39.94    4.93   1
  -5   2   7  140.42   11.38   1
  -5   2   7  105.68    7.61   1
  -5   2   7  123.65    9.34   1
  -5   2   8  153.26   10.40   1
  -5   2   8  153.51   11.15   1
  -5   2   9  162.56   12.75   1
  -5   2  10  725.76   37.18   1
  -5   3 -10  238.70   20.08   1
  -5   3  -9  105.68   14.60   1
  -5   3  -8   23.14   11.54   1
  -5   3  -8   48.44    7.10   1
  -5   3  -7  970.95   30.54   1
  -5   3  -7  750.76   32.33   1
  -5   3  -6 6460.94  236.32   1
  -5   3  -6 8130.63  230.84   1
  -5   3  -6 7972.70  232.15   1
  -5   3  -5 3116.99   88.21   1
  -5   3  -5 2463.14   86.36   1
  -5   3  -4   15.52    7.88   1
  -5   3  -4   14.82    4.31   1
  -5   3  -3 3219.43   90.78   1
  -5   3  -3 2471.08   87.49   1
  -5   3  -2 7199.52  222.31   1
  -5   3  -1 1615.24   47.42   1
  -5   3  -1 1288.81   45.23   1
  -5   3   0  144.24    8.89   1
  -5   3   0  116.42    7.12   1
  -5   3   0  164.61   10.01   1
  -5   3   1 1122.25   36.85   1
  -5   3   1 1013.79   35.66   1
  -5   3   1 1036.84   34.78   1
  -5   3   1 1300.32   38.22   1
  -5   3   1 1120.91   34.82   1
  -5   3   2  997.93   30.96   1
  -5   3   2  850.89   29.17   1
  -5   3   2  927.20   29.23   1
  -5   3   2  807.13   29.55   1
  -5   3   3 3422.25  114.66   1
  -5   3   3 4119.07  120.66   1
  -5   3   3 3402.39  116.66   1
  -5   3   3 3953.89  115.70   1
  -5   3   4  148.60    9.02   1
  -5   3   4  145.68    8.69   1
  -5   3   4  175.56    9.54   1
  -5   3   4  177.42    9.06   1
  -5   3   5   80.10    9.67   1
  -5   3   5  105.68    7.40   1
  -5   3   5   84.27    8.08   1
  -5   3   6 2854.76   98.31   1
  -5   3   6 3292.46   94.10   1
  -5   3   7 2590.81   87.55   1
  -5   3   8   57.30    8.93   1
  -5   3   8   54.76   13.32   1
  -5   3   9    4.71   10.11   1
  -5   3   9    6.71   10.98   1
  -5   4 -11   26.32   20.52   1
  -5   4 -10  227.10   20.19   1
  -5   4  -9  112.36   13.99   1
  -5   4  -8   -4.41    9.91   1
  -5   4  -8   -6.30    7.48   1
  -5   4  -7  740.38   33.20   1
  -5   4  -7  996.03   32.19   1
  -5   4  -6 1785.06   65.06   1
  -5   4  -5  800.89   29.43   1
  -5   4  -5 1023.36   33.27   1
  -5   4  -4  897.60   31.16   1
  -5   4  -3  498.63   19.65   1
  -5   4  -2 3093.58   93.44   1
  -5   4  -2 2933.31  100.74   1
  -5   4  -1 7881.89  246.81   1
  -5   4  -1 9246.75  250.02   1
  -5   4  -1 6743.69  249.64   1
  -5   4  -1 8308.32  244.28   1
  -5   4   0 3269.55  110.93   1
  -5   4   0 3990.45  113.71   1
  -5   4   0 3745.44  110.16   1
  -5   4   0 3449.21  111.59   1
  -5   4   1 2016.91   65.57   1
  -5   4   1 1840.41   65.21   1
  -5   4   1 2254.35   65.52   1
  -5   4   1 2278.15   68.73   1
  -5   4   2  796.93   27.67   1
  -5   4   2  686.44   26.20   1
  -5   4   2  786.24   24.68   1
  -5   4   2  711.82   25.08   1
  -5   4   3 1861.06   66.44   1
  -5   4   3 2138.14   66.59   1
  -5   4   3 2259.10   68.44   1
  -5   4   4  206.21   13.21   1
  -5   4   4  219.63   10.37   1
  -5   4   5 4151.23  118.55   1
  -5   4   5 3395.39  120.04   1
  -5   4   6 2296.33   70.92   1
  -5   4   6 2025.90   70.22   1
  -5   4   7 1495.37   54.14   1
  -5   4   8  102.62   13.37   1
  -5   4   9  -50.84   18.40   1
  -5   5 -11  222.01   24.73   1
  -5   5 -10  886.85   44.67   1
  -5   5  -9   15.60   13.82   1
  -5   5  -8   16.16   11.01   1
  -5   5  -7  310.82   16.22   1
  -5   5  -6 1955.41   73.41   1
  -5   5  -5  219.34   11.85   1
  -5   5  -5  218.45   10.94   1
  -5   5  -4  134.10   11.58   1
  -5   5  -4   84.82    6.45   1
  -5   5  -3 1547.64   62.16   1
  -5   5  -3 1861.06   56.08   1
  -5   5  -3 1972.25   57.73   1
  -5   5  -3 1655.68   55.34   1
  -5   5  -2 9459.51  262.60   1
  -5   5  -2 8762.83  260.24   1
  -5   5  -2 7719.38  270.61   1
  -5   5  -2 8136.04  259.78   1
  -5   5  -1 1994.52   67.88   1
  -5   5  -1 2177.16   65.32   1
  -5   5  -1 1900.96   64.53   1
  -5   5  -1 1782.53   67.55   1
  -5   5  -1 2247.71   63.53   1
  -5   5   0  178.22    7.21   1
  -5   5   0  164.87    8.73   1
  -5   5   0  212.28    9.91   1
  -5   5   0  183.60   11.38   1
  -5   5   1 1318.42   39.94   1
  -5   5   1 1112.89   39.36   1
  -5   5   1 1156.68   39.45   1
  -5   5   2 2591.83   72.29   1
  -5   5   2 2248.66   72.08   1
  -5   5   2 2047.56   73.31   1
  -5   5   3 2088.49   73.12   1
  -5   5   3 2554.29   72.78   1
  -5   5   4  179.83   11.80   1
  -5   5   4  207.07   11.51   1
  -5   5   5  933.30   32.99   1
  -5   5   5  833.48   32.33   1
  -5   5   6 1925.45   64.94   1
  -5   5   7 2153.89   93.75   1
  -5   5   8  -14.21   12.21   1
  -5   6 -11    5.29   12.88   1
  -5   6 -10  132.71   15.21   1
  -5   6  -9  145.68   13.52   1
  -5   6  -8   72.76    9.21   1
  -5   6  -7  126.11   11.68   1
  -5   6  -6  225.60   12.02   1
  -5   6  -5  270.27   13.48   1
  -5   6  -5  282.91   12.45   1
  -5   6  -4   71.74    5.93   1
  -5   6  -4   60.06    6.36   1
  -5   6  -4   55.80    7.77   1
  -5   6  -3  461.39   18.90   1
  -5   6  -3  490.62   17.28   1
  -5   6  -2  853.81   30.39   1
  -5   6  -2  845.06   30.81   1
  -5   6  -2  842.74   31.35   1
  -5   6  -2  995.40   29.66   1
  -5   6  -1  318.98   15.00   1
  -5   6  -1  346.33   14.52   1
  -5   6  -1  376.75   14.75   1
  -5   6  -1  390.46   13.83   1
  -5   6   0   12.67    6.91   1
  -5   6   0   10.82    5.72   1
  -5   6   0    4.71    4.90   1
  -5   6   0   -1.99    6.09   1
  -5   6   1   52.56    5.95   1
  -5   6   1   67.08   10.97   1
  -5   6   1   46.38    5.58   1
  -5   6   2  943.10   35.62   1
  -5   6   2 1025.28   35.22   1
  -5   6   2 1217.31   37.68   1
  -5   6   3  374.04   17.79   1
  -5   6   3  419.02   17.19   1
  -5   6   4   21.81   11.68   1
  -5   6   4  -12.39    9.50   1
  -5   6   5   19.54   10.43   1
  -5   6   6  132.48   17.96   1
  -5   7 -10  750.76   41.65   1
  -5   7  -9  499.52   26.37   1
  -5   7  -7  533.15   26.32   1
  -5   7  -6 1957.18   57.51   1
  -5   7  -6 1558.67   56.85   1
  -5   7  -5  369.41   14.61   1
  -5   7  -5  293.78   18.85   1
  -5   7  -5  315.06   31.24   1
  -5   7  -4  442.26   19.35   1
  -5   7  -4  520.30   19.16   1
  -5   7  -4  498.18   22.32   1
  -5   7  -3    0.59   12.43   1
  -5   7  -3   23.91    7.82   1
  -5   7  -2  830.02   25.93   1
  -5   7  -2  713.42   25.64   1
  -5   7  -2  614.05   27.75   1
  -5   7  -1 4466.25  122.97   1
  -5   7  -1 4024.63  120.54   1
  -5   7  -1 3497.54  124.19   1
  -5   7  -1 3534.30  122.47   1
  -5   7   0 1241.15   45.09   1
  -5   7   0 1524.90   45.30   1
  -5   7   0 1272.35   44.23   1
  -5   7   1  117.51   14.53   1
  -5   7   1  120.78    9.67   1
  -5   7   1  150.55    9.82   1
  -5   7   2 1010.60   35.60   1
  -5   7   2  853.81   35.06   1
  -5   7   3 3068.05   99.70   1
  -5   7   4  850.31   41.41   1
  -5   7   5    4.80   12.70   1
  -5   8 -10   82.63   18.73   1
  -5   8  -9   12.60   12.07   1
  -5   8  -8   -4.00   10.20   1
  -5   8  -7  277.22   18.65   1
  -5   8  -6  924.77   45.01   1
  -5   8  -6 1141.76   39.20   1
  -5   8  -6 1166.91   40.99   1
  -5   8  -5 2004.35   70.74   1
  -5   8  -5 2285.80   68.85   1
  -5   8  -5 2092.15   71.35   1
  -5   8  -4  599.76   24.98   1
  -5   8  -4  647.70   24.94   1
  -5   8  -3  374.81   16.65   1
  -5   8  -3  370.18   20.39   1
  -5   8  -3  400.00   20.80   1
  -5   8  -3  470.46   19.09   1
  -5   8  -2  436.39   16.71   1
  -5   8  -2  378.30   19.84   1
  -5   8  -2  426.01   22.29   1
  -5   8  -2  425.18   18.15   1
  -5   8  -1 1054.95   39.63   1
  -5   8  -1 1188.18   35.85   1
  -5   8  -1  956.66   42.68   1
  -5   8   0   50.55    8.53   1
  -5   8   0   12.67   14.60   1
  -5   8   0   12.18    9.21   1
  -5   8   0   36.84    5.95   1
  -5   8   1  -18.66   10.45   1
  -5   8   2 1057.55   48.13   1
  -5   8   3 1247.50   56.51   1
  -5   9  -9  319.69   25.75   1
  -5   9  -8  131.33   19.71   1
  -5   9  -7  146.41   19.12   1
  -5   9  -7  136.19   14.47   1
  -5   9  -6 1450.09   66.26   1
  -5   9  -6 1469.19   65.16   1
  -5   9  -5 1786.75   61.71   1
  -5   9  -5 1671.99   64.61   1
  -5   9  -4   -2.79   13.76   1
  -5   9  -4  -15.21   12.09   1
  -5   9  -3   28.52    5.45   1
  -5   9  -3   39.44   10.55   1
  -5   9  -3    0.20    9.15   1
  -5   9  -2 1653.24   60.99   1
  -5   9  -2 1882.69   56.41   1
  -5   9  -2 1637.01   58.26   1
  -5   9  -1 3466.85  151.91   1
  -5   9  -1 3591.60  160.61   1
  -5   9  -1 3863.87  149.18   1
  -5   9   0  668.22   34.64   1
  -5   9   0  683.82   37.66   1
  -5   9   1   68.89   13.61   1
  -5   9   2   45.16   13.98   1
  -5  10  -7  -35.88   17.49   1
  -5  10  -7  100.00   19.20   1
  -5  10  -6   25.91   11.81   1
  -5  10  -6   23.33   11.59   1
  -5  10  -5   22.47   11.00   1
  -5  10  -5    1.49   11.15   1
  -5  10  -4   46.24   16.05   1
  -5  10  -3   96.04   16.86   1
  -5  10  -3  125.44   15.01   1
  -5  10  -2  197.40   21.64   1
  -5  10  -2  127.46   15.35   1
  -5  10  -1  993.51   47.28   1
  -5  10  -1  990.99   49.11   1
  -4  -8   0 1600.00   74.40   1
  -4  -8   1   99.80   15.58   1
  -4  -8   2  334.52   21.95   1
  -4  -8   3 2250.55   96.78   1
  -4  -8   4 2193.99   94.62   1
  -4  -8   5   64.32   13.63   1
  -4  -8   6    7.29   12.58   1
  -4  -8   7 1979.36   84.53   1
  -4  -8   8 1255.28   57.40   1
  -4  -8   9   86.49   16.00   1
  -4  -7  -2  107.54   17.01   1
  -4  -7  -1  577.92   30.29   1
  -4  -7   0  687.49   34.09   1
  -4  -7   1  200.79    9.92   1
  -4  -7   1  192.10   14.69   1
  -4  -7   2 1142.44   39.21   1
  -4  -7   2 1081.09   39.46   1
  -4  -7   3 4954.75  154.86   1
  -4  -7   4 3657.83  116.12   1
  -4  -7   5   19.01   10.64   1
  -4  -7   6   27.98   14.92   1
  -4  -7   7 3185.47  102.72   1
  -4  -7   8 2786.78  117.19   1
  -4  -7   9  268.63   18.68   1
  -4  -7  10   -8.12   12.82   1
  -4  -6  -3  212.58   18.08   1
  -4  -6  -2    1.00   11.20   1
  -4  -6  -1 2620.42   79.86   1
  -4  -6  -1 2713.37   81.26   1
  -4  -6  -1 2143.69   80.56   1
  -4  -6   0 2580.64   92.46   1
  -4  -6   0 2960.45   89.23   1
  -4  -6   0 3006.33   91.02   1
  -4  -6   1  244.92   10.95   1
  -4  -6   1  259.85   10.64   1
  -4  -6   1  207.36   13.82   1
  -4  -6   2  664.09   26.29   1
  -4  -6   2  707.56   22.34   1
  -4  -6   2  605.65   22.64   1
  -4  -6   3  908.42   34.36   1
  -4  -6   3  962.86   32.27   1
  -4  -6   4  482.24   21.08   1
  -4  -6   5  754.05   28.56   1
  -4  -6   6  855.56   32.17   1
  -4  -6   7 6578.83  204.40   1
  -4  -6   8 4615.84  145.39   1
  -4  -6   9   61.15   15.80   1
  -4  -6  10  128.60   14.06   1
  -4  -6  11  227.71   22.94   1
  -4  -5  -3  554.60   23.55   1
  -4  -5  -2  103.84   10.60   1
  -4  -5  -2   90.63   10.66   1
  -4  -5  -1 3141.60  110.98   1
  -4  -5  -1 3871.33  112.00   1
  -4  -5   0 7818.10  217.51   1
  -4  -5   0 6293.25  215.78   1
  -4  -5   0 7057.68  216.75   1
  -4  -5   1  226.20    9.32   1
  -4  -5   1  208.51   13.57   1
  -4  -5   1  207.07    9.21   1
  -4  -5   2  272.58   15.19   1
  -4  -5   2  294.81   11.33   1
  -4  -5   3 5122.26  164.61   1
  -4  -5   3 6250.48  167.61   1
  -4  -5   3 4598.20  162.74   1
  -4  -5   4 4235.41  121.05   1
  -4  -5   4 3361.68  117.12   1
  -4  -5   5 1601.60   52.83   1
  -4  -5   6 1039.42   34.82   1
  -4  -5   7   15.13   10.74   1
  -4  -5   8  676.52   25.49   1
  -4  -5   9  879.72   33.22   1
  -4  -5  10  799.19   32.23   1
  -4  -5  11  368.26   21.88   1
  -4  -4  -7  120.56   18.23   1
  -4  -4  -6  110.46   15.13   1
  -4  -4  -3   33.64    9.05   1
  -4  -4  -2 1472.26   46.04   1
  -4  -4  -2 1270.92   44.92   1
  -4  -4  -1 1953.64   58.34   1
  -4  -4  -1 1713.96   54.65   1
  -4  -4  -1 1503.11   55.05   1
  -4  -4   0 3956.41  113.22   1
  -4  -4   0 3090.25  112.29   1
  -4  -4   0 4102.40  112.73   1
  -4  -4   0 3325.83  111.88   1
  -4  -4   1 1122.92   34.18   1
  -4  -4   1  897.60   31.76   1
  -4  -4   1 1025.28   30.74   1
  -4  -4   1  840.42   31.89   1
  -4  -4   2    1.39    3.80   1
  -4  -4   2    7.02    7.90   1
  -4  -4   2    5.62    6.21   1
  -4  -4   3  183.06    9.47   1
  -4  -4   3  135.72    8.39   1
  -4  -4   3  116.42    7.55   1
  -4  -4   4 4629.44  160.57   1
  -4  -4   4 4898.60  162.38   1
  -4  -4   4 6329.79  163.89   1
  -4  -4   5 1232.01   46.33   1
  -4  -4   5 1734.72   52.48   1
  -4  -4   6  829.44   31.10   1
  -4  -4   6  987.84   32.69   1
  -4  -4   7    9.42    8.72   1
  -4  -4   8 1466.12   49.01   1
  -4  -4   9   -7.29   11.61   1
  -4  -4  10   57.91   10.65   1
  -4  -4  10   66.10    8.13   1
  -4  -4  11  132.25   13.80   1
  -4  -3  -8  -11.22   16.01   1
  -4  -3  -7    5.20   12.59   1
  -4  -3  -6  710.22   30.38   1
  -4  -3  -4 5016.89  161.49   1
  -4  -3  -3 3129.28   89.50   1
  -4  -3  -3 2549.24   88.86   1
  -4  -3  -2  998.56   33.50   1
  -4  -3  -2  901.80   33.63   1
  -4  -3  -2 1195.78   36.65   1
  -4  -3  -1  410.06   15.79   1
  -4  -3  -1  407.64   14.13   1
  -4  -3  -1  322.56   14.37   1
  -4  -3   013507.09  434.66   1
  -4  -3   014786.56  432.90   1
  -4  -3   1 2444.31   74.16   1
  -4  -3   1 2737.38   76.39   1
  -4  -3   1 2221.24   73.52   1
  -4  -3   1 2136.29   74.88   1
  -4  -3   2  206.50    9.48   1
  -4  -3   2  178.22    8.81   1
  -4  -3   2  231.04   10.94   1
  -4  -3   3 1267.36   37.02   1
  -4  -3   3 1077.81   36.77   1
  -4  -3   3  933.30   34.83   1
  -4  -3   4 3590.41   97.07   1
  -4  -3   4 2828.11   94.66   1
  -4  -3   4 2833.43   94.75   1
  -4  -3   5 3346.62  121.48   1
  -4  -3   5 4460.90  128.24   1
  -4  -3   6 1306.10   47.70   1
  -4  -3   6 1713.13   49.67   1
  -4  -3   7  957.28   32.18   1
  -4  -3   7  774.51   28.94   1
  -4  -3   8 2981.16  108.11   1
  -4  -3   8 3963.96  110.81   1
  -4  -3  10  329.42   14.52   1
  -4  -3  10  248.38   17.34   1
  -4  -3  11   52.42   11.15   1
  -4  -3  12  901.80   43.84   1
  -4  -2  -8  843.90   47.06   1
  -4  -2  -7   97.42   15.79   1
  -4  -2  -6   26.42   11.92   1
  -4  -2  -4 1490.73   50.19   1
  -4  -2  -4 1575.30   53.98   1
  -4  -2  -3  135.26    7.21   1
  -4  -2  -3  129.73    8.88   1
  -4  -2  -2   43.43    5.93   1
  -4  -2  -2   38.81    6.48   1
  -4  -2  -110461.20  286.38   1
  -4  -2  -1 8231.93  283.08   1
  -4  -2   019157.33  578.55   1
  -4  -2   1   83.72    6.40   1
  -4  -2   1   44.09    4.65   1
  -4  -2   1   95.26    6.25   1
  -4  -2   2 4300.74  145.59   1
  -4  -2   2 4761.00  144.90   1
  -4  -2   2 5524.95  153.12   1
  -4  -2   2 4522.56  145.26   1
  -4  -2   311811.34  360.82   1
  -4  -2   311672.64  356.53   1
  -4  -2   4 7888.99  268.24   1
  -4  -2   4 8250.09  268.86   1
  -4  -2   410532.92  285.31   1
  -4  -2   5 3870.08  108.25   1
  -4  -2   5 3118.11  107.21   1
  -4  -2   6 1314.06   50.03   1
  -4  -2   6 1765.68   54.63   1
  -4  -2   6 1732.22   51.61   1
  -4  -2   7   20.61    7.08   1
  -4  -2   7   20.07    9.23   1
  -4  -2   7   16.00    7.44   1
  -4  -2   8 2971.34   85.04   1
  -4  -2   8 2364.88   83.64   1
  -4  -2   9 3167.44   90.05   1
  -4  -2   9 2392.19   88.04   1
  -4  -2  10   25.91    8.35   1
  -4  -2  11    8.01   13.70   1
  -4  -2  12  472.19   29.55   1
  -4  -1  -9   -0.10   12.95   1
  -4  -1  -8  457.96   25.25   1
  -4  -1  -7  661.00   21.60   1
  -4  -1  -7  456.25   25.20   1
  -4  -1  -6   50.13    6.94   1
  -4  -1  -6   24.50    7.62   1
  -4  -1  -5   25.20    6.33   1
  -4  -1  -5   32.38   10.01   1
  -4  -1  -4 1106.89   46.58   1
  -4  -1  -4 1564.99   47.47   1
  -4  -1  -3 2848.36   90.73   1
  -4  -1  -2  782.88   25.74   1
  -4  -1  -2  581.29   21.70   1
  -4  -1  -1 1948.34   63.56   1
  -4  -1   018273.63  559.65   1
  -4  -1   1  132.94    5.53   1
  -4  -1   1  127.92    6.56   1
  -4  -1   1  154.75    6.72   1
  -4  -1   2  187.14    6.57   1
  -4  -1   2  146.89    7.27   1
  -4  -1   2  163.33    6.65   1
  -4  -1   2  163.07    6.13   1
  -4  -1   3  688.01   19.93   1
  -4  -1   3  543.36   19.11   1
  -4  -1   3  564.06   19.48   1
  -4  -1   3  556.49   19.82   1
  -4  -1   4 5059.48  143.68   1
  -4  -1   4 4018.29  136.92   1
  -4  -1   4 4022.10  136.99   1
  -4  -1   4 4050.05  134.92   1
  -4  -1   4 4937.87  134.92   1
  -4  -1   5 3397.72  118.91   1
  -4  -1   5 4330.96  125.04   1
  -4  -1   5 3571.26  121.91   1
  -4  -1   5 4271.93  120.26   1
  -4  -1   610090.20  277.24   1
  -4  -1   6 7988.78  278.87   1
  -4  -1   7 3285.58   92.86   1
  -4  -1   7 2373.64   91.59   1
  -4  -1   7 3237.61   92.18   1
  -4  -1   8 1773.25   52.22   1
  -4  -1   8 1510.88   59.86   1
  -4  -1   8 1419.03   52.74   1
  -4  -1   9  720.92   28.46   1
  -4  -1   9  860.25   27.57   1
  -4  -1  10  221.12   16.36   1
  -4  -1  11  123.21   15.54   1
  -4  -1  12  103.23   19.30   1
  -4   0 -10   27.77   18.44   1
  -4   0  -9  187.42   16.43   1
  -4   0  -8 1863.65   69.94   1
  -4   0  -8 2239.18   67.19   1
  -4   0  -7 1813.06   54.50   1
  -4   0  -7 1483.79   56.24   1
  -4   0  -6    1.39    5.88   1
  -4   0  -6   16.97    4.86   1
  -4   0  -5   50.55    6.68   1
  -4   0  -5   25.30    8.45   1
  -4   0  -4 1219.41   37.02   1
  -4   0  -4  933.91   36.67   1
  -4   0  -4 1278.78   40.05   1
  -4   0  -3  748.57   26.81   1
  -4   0  -3  977.81   27.52   1
  -4   0  -3  676.52   28.09   1
  -4   0  -2  820.82   26.93   1
  -4   0  -2  799.19   26.57   1
  -4   0  -1 2665.66   79.51   1
  -4   0  -1 2816.42   81.73   1
  -4   0  -1 2219.35   78.20   1
  -4   0   030674.02  840.67   1
  -4   0   028635.41  839.33   1
  -4   0   024183.36  836.64   1
  -4   0   1 1185.42   39.25   1
  -4   0   1 1153.28   37.36   1
  -4   0   1 1320.60   39.25   1
  -4   0   2  100.40    4.41   1
  -4   0   2   89.68    4.17   1
  -4   0   2  123.21    7.10   1
  -4   0   3 5776.00  159.60   1
  -4   0   3 4719.69  153.89   1
  -4   0   3 4619.92  153.61   1
  -4   0   3 5595.04  158.58   1
  -4   0   3 4521.22  153.31   1
  -4   0   4 3793.33  121.95   1
  -4   0   4 4588.71  121.93   1
  -4   0   4 3666.30  121.10   1
  -4   0   4 3750.34  121.26   1
  -4   0   5 4069.16  139.06   1
  -4   0   5 5418.43  142.80   1
  -4   0   5 4121.64  138.67   1
  -4   0   6 2168.76   68.92   1
  -4   0   6 2162.25   67.89   1
  -4   0   7  312.94   12.03   1
  -4   0   7  237.78   11.41   1
  -4   0   8 2652.25   75.19   1
  -4   0   8 1931.60   72.96   1
  -4   0   8 2444.31   79.10   1
  -4   0   9 4808.04  131.75   1
  -4   0   9 3606.00  133.31   1
  -4   0  10  850.89   32.09   1
  -4   0  11  221.12   20.22   1
  -4   1 -10  131.33   14.90   1
  -4   1  -9  171.87   14.16   1
  -4   1  -8 2236.34   83.23   1
  -4   1  -7  556.96   24.54   1
  -4   1  -7  699.60   23.81   1
  -4   1  -6  122.54    8.63   1
  -4   1  -6  183.06   12.18   1
  -4   1  -6  161.29    8.13   1
  -4   1  -5   12.11    7.10   1
  -4   1  -5   29.16    6.05   1
  -4   1  -4  765.63   31.54   1
  -4   1  -4  998.56   30.34   1
  -4   1  -4  952.34   30.24   1
  -4   1  -3 2163.18   61.39   1
  -4   1  -3 1551.57   59.87   1
  -4   1  -3 2048.47   60.65   1
  -4   1  -2 1214.52   46.70   1
  -4   1  -2 1651.61   47.14   1
  -4   1  -2 1643.49   47.84   1
  -4   1  -1   49.56    5.77   1
  -4   1   0 9615.76  292.22   1
  -4   1   1 2351.28   74.67   1
  -4   1   1 2353.22   73.74   1
  -4   1   1 2276.24   74.43   1
  -4   1   1 2666.69   75.39   1
  -4   1   2    8.18    5.32   1
  -4   1   2    9.30    3.60   1
  -4   1   2   14.52    1.90   1
  -4   1   2   25.50    4.04   1
  -4   1   3  339.30   14.00   1
  -4   1   3  327.61   12.67   1
  -4   1   3  315.42   13.14   1
  -4   1   3  582.26   15.93   1
  -4   1   4 5308.58  163.21   1
  -4   1   4 5247.55  165.16   1
  -4   1   4 5414.02  163.35   1
  -4   1   5 2762.55   91.45   1
  -4   1   5 2642.99   91.51   1
  -4   1   5 3450.39   91.63   1
  -4   1   6 5716.87  201.12   1
  -4   1   6 7724.65  203.90   1
  -4   1   6 6356.87  204.11   1
  -4   1   7 1134.34   35.03   1
  -4   1   7  910.23   33.19   1
  -4   1   7  957.90   35.28   1
  -4   1   8  740.93   29.94   1
  -4   1   8  969.08   30.51   1
  -4   1   9 1198.54   42.24   1
  -4   1  10  668.22   32.57   1
  -4   1  11   19.62   12.05   1
  -4   2 -11  380.64   30.05   1
  -4   2 -10    2.40   16.21   1
  -4   2  -9    9.80    9.52   1
  -4   2  -8 1729.73   64.88   1
  -4   2  -8 2048.47   59.74   1
  -4   2  -7 1260.25   43.31   1
  -4   2  -7  969.08   39.85   1
  -4   2  -7 1324.23   39.30   1
  -4   2  -6   16.56    5.37   1
  -4   2  -6   11.09    8.72   1
  -4   2  -6   13.40    4.39   1
  -4   2  -5 6280.56  177.52   1
  -4   2  -5 4788.64  174.38   1
  -4   2  -5 6193.69  179.44   1
  -4   2  -3 9864.46  357.55   1
  -4   2  -313379.55  356.26   1
  -4   2  -2  306.60   11.91   1
  -4   2  -2  392.04   13.07   1
  -4   2  -1  498.63   16.08   1
  -4   2  -1  344.84   13.37   1
  -4   2   0  556.02   17.92   1
  -4   2   0  474.80   16.56   1
  -4   2   0  460.96   16.32   1
  -4   2   1 3594.00  118.70   1
  -4   2   1 3757.69  118.92   1
  -4   2   1 4056.42  118.46   1
  -4   2   1 3674.78  117.60   1
  -4   2   1 4361.28  120.19   1
  -4   2   2 7269.27  238.73   1
  -4   2   2 7245.42  238.34   1
  -4   2   2 8862.34  239.12   1
  -4   2   2 7929.90  236.87   1
  -4   2   3 2896.59   79.65   1
  -4   2   3 2414.74   79.61   1
  -4   2   3 2318.42   78.97   1
  -4   2   4 4841.38  136.38   1
  -4   2   4 3868.84  134.35   1
  -4   2   5 6245.74  177.03   1
  -4   2   5 5066.59  173.68   1
  -4   2   6   89.68    7.58   1
  -4   2   6  108.58    7.09   1
  -4   2   7  390.85   16.21   1
  -4   2   8  586.61   23.25   1
  -4   2   8  634.54   27.21   1
  -4   2   9 1006.16   36.80   1
  -4   2  10  311.88   19.43   1
  -4   3 -11  294.47   21.96   1
  -4   3 -10  127.69   13.79   1
  -4   3  -9   29.38   13.12   1
  -4   3  -8 2227.84   87.79   1
  -4   3  -8 2730.06   79.42   1
  -4   3  -7  355.32   16.97   1
  -4   3  -7  459.24   15.43   1
  -4   3  -6 1255.99   38.28   1
  -4   3  -6 1018.25   37.65   1
  -4   3  -5  200.79    9.35   1
  -4   3  -5  275.89   10.30   1
  -4   3  -4  298.25   11.74   1
  -4   3  -4  291.04   12.28   1
  -4   3  -3  247.12   10.38   1
  -4   3  -3  329.06   11.25   1
  -4   3  -211449.00  385.20   1
  -4   3  -213933.44  384.81   1
  -4   3  -1  509.86   19.42   1
  -4   3  -1  631.01   19.59   1
  -4   3  -1  537.78   19.02   1
  -4   3  -1  589.52   17.97   1
  -4   3   0 4576.52  144.77   1
  -4   3   0 4286.32  144.03   1
  -4   3   0 4865.06  143.68   1
  -4   3   0 5138.02  146.23   1
  -4   3   1 6760.13  198.97   1
  -4   3   1 7131.80  199.30   1
  -4   3   1 6108.99  196.96   1
  -4   3   1 5932.08  197.17   1
  -4   3   2   16.40    4.70   1
  -4   3   2   11.49    3.32   1
  -4   3   2   12.39    5.49   1
  -4   3   2   14.98    4.10   1
  -4   3   3  305.55   12.59   1
  -4   3   3  298.25   10.71   1
  -4   3   3  228.61   10.58   1
  -4   3   3  238.39   12.35   1
  -4   3   4 1695.79   49.42   1
  -4   3   4 1406.25   48.75   1
  -4   3   5 1396.52   41.85   1
  -4   3   5 1160.76   42.25   1
  -4   3   6  236.24   12.30   1
  -4   3   6  210.83   13.36   1
  -4   3   7  663.06   26.26   1
  -4   3   8  216.38   13.24   1
  -4   4 -11   82.45   17.98   1
  -4   4 -10   22.75   14.12   1
  -4   4  -9    5.81   11.91   1
  -4   4  -8 1788.44   60.90   1
  -4   4  -7 1654.86   59.39   1
  -4   4  -6   88.17    8.64   1
  -4   4  -5 3525.98   99.76   1
  -4   4  -5 2799.47   97.35   1
  -4   4  -4  929.64   35.98   1
  -4   4  -4 1130.98   34.30   1
  -4   4  -3 1861.06   58.67   1
  -4   4  -3 1853.30   57.69   1
  -4   4  -212168.30  335.34   1
  -4   4  -2 9882.35  332.03   1
  -4   4  -1 3279.85  112.25   1
  -4   4  -1 3966.48  110.84   1
  -4   4  -1 3332.75  109.69   1
  -4   4  -1 3767.50  110.48   1
  -4   4   0 3956.41  138.38   1
  -4   4   0 4489.00  138.02   1
  -4   4   0 4212.01  137.59   1
  -4   4   0 4908.40  138.72   1
  -4   4   0 4895.80  139.94   1
  -4   4   1 2223.12   75.44   1
  -4   4   1 2602.02   75.49   1
  -4   4   1 2596.92   76.44   1
  -4   4   1 2304.96   74.90   1
  -4   4   2 4529.29  129.22   1
  -4   4   2 4070.44  127.60   1
  -4   4   2 3739.32  127.19   1
  -4   4   3  970.32   32.40   1
  -4   4   4 2859.04   82.34   1
  -4   4   4 2360.02   81.61   1
  -4   4   5 8632.27  291.74   1
  -4   4   510261.69  291.74   1
  -4   4   6 2861.18   92.00   1
  -4   4   7  657.92   26.16   1
  -4   4   8   89.11   15.67   1
  -4   5 -11  118.37   18.93   1
  -4   5 -10   -4.88   10.17   1
  -4   5  -9  -20.07   12.01   1
  -4   5  -8 1392.04   47.01   1
  -4   5  -7  905.41   33.70   1
  -4   5  -5   17.14    4.39   1
  -4   5  -4 1238.34   37.30   1
  -4   5  -4 1034.91   38.60   1
  -4   5  -3  824.84   25.27   1
  -4   5  -3  709.16   25.56   1
  -4   5  -2 5307.12  173.38   1
  -4   5  -2 5412.54  180.98   1
  -4   5  -2 6348.90  175.30   1
  -4   5  -1  478.30   17.50   1
  -4   5  -1  392.04   17.03   1
  -4   5  -1  487.08   16.33   1
  -4   5   0   26.42    5.65   1
  -4   5   0    6.40    4.40   1
  -4   5   0   10.69    3.07   1
  -4   5   0   10.11    3.69   1
  -4   5   1  932.08   29.92   1
  -4   5   1 1001.09   31.01   1
  -4   5   1  820.25   29.79   1
  -4   5   1  838.10   30.11   1
  -4   5   2 4513.15  143.77   1
  -4   5   2 4234.10  144.46   1
  -4   5   2 5208.51  145.78   1
  -4   5   3  270.93   15.14   1
  -4   5   3  310.46   13.74   1
  -4   5   4  -11.09    7.59   1
  -4   5   5 1008.70   35.57   1
  -4   5   6  786.24   31.97   1
  -4   5   7  279.56   19.06   1
  -4   5   8   -2.69   16.27   1
  -4   6 -11  824.26   41.92   1
  -4   6 -10  198.53   16.06   1
  -4   6  -9   -8.29    8.99   1
  -4   6  -8 1337.36   49.74   1
  -4   6  -7 2594.88   86.60   1
  -4   6  -6  430.98   19.51   1
  -4   6  -6  523.49   19.68   1
  -4   6  -5  673.92   26.48   1
  -4   6  -5  790.17   26.42   1
  -4   6  -4  106.09    8.24   1
  -4   6  -4  147.87    8.51   1
  -4   6  -4  103.43    7.32   1
  -4   6  -3 2709.20   93.69   1
  -4   6  -3 3430.44   93.71   1
  -4   6  -3 2851.56   92.92   1
  -4   6  -2  859.08   30.48   1
  -4   6  -2  889.83   32.22   1
  -4   6  -2  901.20   31.22   1
  -4   6  -2 1045.88   30.40   1
  -4   6  -1   25.30    4.93   1
  -4   6  -1    5.38    4.32   1
  -4   6  -1   12.32    4.70   1
  -4   6  -1    6.71    8.50   1
  -4   6   0  533.15   18.01   1
  -4   6   0  566.92   18.57   1
  -4   6   0  452.41   19.14   1
  -4   6   0  454.97   21.33   1
  -4   6   1 2859.04   93.04   1
  -4   6   1 2654.31   93.77   1
  -4   6   1 2658.43   91.78   1
  -4   6   1 3606.00   97.28   1
  -4   6   2 2092.15   66.78   1
  -4   6   3  381.42   16.80   1
  -4   6   3  412.90   17.88   1
  -4   6   4  135.49   11.17   1
  -4   6   5 1316.24   47.16   1
  -4   6   6  855.56   40.37   1
  -4   6   7   73.44   18.17   1
  -4   7 -11  142.56   20.78   1
  -4   7 -10  208.22   19.34   1
  -4   7  -9  124.32   12.49   1
  -4   7  -8  663.06   28.33   1
  -4   7  -7  229.52   13.63   1
  -4   7  -7  211.12   13.08   1
  -4   7  -6  718.24   25.73   1
  -4   7  -6  613.55   24.27   1
  -4   7  -5  805.99   28.96   1
  -4   7  -4 1516.32   53.74   1
  -4   7  -4 1867.10   54.44   1
  -4   7  -4 1547.64   53.50   1
  -4   7  -3 6271.06  171.05   1
  -4   7  -3 5041.00  174.66   1
  -4   7  -3 5138.02  170.60   1
  -4   7  -2 2104.06   77.06   1
  -4   7  -2 2541.17   71.58   1
  -4   7  -2 2059.34   71.70   1
  -4   7  -1  389.27   16.18   1
  -4   7  -1  419.84   17.21   1
  -4   7  -1  500.86   17.46   1
  -4   7  -1  421.48   15.19   1
  -4   7   0 1637.82   58.28   1
  -4   7   0 1672.81   62.99   1
  -4   7   0 1936.00   57.20   1
  -4   7   0 1672.81   56.44   1
  -4   7   1 2366.82   81.73   1
  -4   7   1 2940.89   82.43   1
  -4   7   1 2346.43   83.32   1
  -4   7   2 4359.96  149.23   1
  -4   7   2 5259.15  153.74   1
  -4   7   3  951.11   34.54   1
  -4   7   4  699.07   29.08   1
  -4   7   5  347.82   22.38   1
  -4   7   6  518.93   29.61   1
  -4   8 -10   85.93   17.06   1
  -4   8  -9   16.81   11.64   1
  -4   8  -8  -10.82    9.28   1
  -4   8  -7  339.66   19.17   1
  -4   8  -6 1141.09   37.83   1
  -4   8  -6 1075.18   37.38   1
  -4   8  -6  910.23   42.24   1
  -4   8  -5   29.81   11.58   1
  -4   8  -5   30.25   12.65   1
  -4   8  -5   31.58   10.90   1
  -4   8  -4 1868.83   57.06   1
  -4   8  -4 1626.51   56.46   1
  -4   8  -4 1501.56   58.12   1
  -4   8  -3 4780.34  165.94   1
  -4   8  -3 5160.98  163.80   1
  -4   8  -3 5629.50  160.56   1
  -4   8  -2 1989.16   69.58   1
  -4   8  -2 1943.05   73.17   1
  -4   8  -2 2315.53   69.29   1
  -4   8  -2 2190.24   66.46   1
  -4   8  -1 1016.97   40.18   1
  -4   8  -1 1027.20   38.46   1
  -4   8  -1 1234.12   39.35   1
  -4   8   0   -7.62    9.22   1
  -4   8   0   43.30   12.24   1
  -4   8   1  433.89   19.16   1
  -4   8   1  408.85   21.84   1
  -4   8   2 1420.54   50.50   1
  -4   8   3  379.86   22.22   1
  -4   8   4   28.84   12.46   1
  -4   9 -10  464.83   28.03   1
  -4   9  -8  180.63   15.59   1
  -4   9  -7  522.58   29.72   1
  -4   9  -7  557.90   28.82   1
  -4   9  -6 1102.90   41.84   1
  -4   9  -6 1138.39   41.84   1
  -4   9  -5  314.71   16.32   1
  -4   9  -5  262.12   17.16   1
  -4   9  -4  119.90   10.95   1
  -4   9  -4   65.77    5.51   1
  -4   9  -4   95.84   14.10   1
  -4   9  -3   92.35    6.34   1
  -4   9  -3  109.20   14.63   1
  -4   9  -3  115.78   14.63   1
  -4   9  -2 2770.97   89.49   1
  -4   9  -2 2989.90   87.49   1
  -4   9  -2 2606.10   90.87   1
  -4   9  -1 1179.92   43.28   1
  -4   9  -1 1181.98   50.19   1
  -4   9   0   51.55   10.77   1
  -4   9   0   62.57   11.55   1
  -4   9   2 1064.06   49.58   1
  -4  10  -8    2.99   12.98   1
  -4  10  -8  -33.52   14.36   1
  -4  10  -7  368.64   25.73   1
  -4  10  -7  306.95   21.02   1
  -4  10  -6  452.41   28.50   1
  -4  10  -6  490.18   27.90   1
  -4  10  -5  469.59   25.57   1
  -4  10  -5  417.38   23.70   1
  -4  10  -4  458.82   31.70   1
  -4  10  -4  596.82   30.29   1
  -4  10  -3  483.12   26.82   1
  -4  10  -3  444.37   25.30   1
  -4  10  -2  882.68   46.94   1
  -4  10  -2  995.40   44.17   1
  -4  10  -1   38.81   12.58   1
  -4  10  -1   81.18   17.12   1
  -4  10   0   18.23   13.32   1
  -4  10   0   39.31   13.04   1
  -3  -9   1  362.14   25.50   1
  -3  -9   2 1116.23   54.79   1
  -3  -9   3  512.57   28.07   1
  -3  -9   4   86.12   15.22   1
  -3  -9   5  773.40   38.93   1
  -3  -9   6 1900.96   82.84   1
  -3  -9   7  306.25   22.05   1
  -3  -9   8  111.94   17.14   1
  -3  -8  -1 1057.55   50.08   1
  -3  -8   0  298.60   24.19   1
  -3  -8   1 1004.89   48.18   1
  -3  -8   2 2880.47   93.39   1
  -3  -8   3 2784.67   89.71   1
  -3  -8   4 1082.41   39.48   1
  -3  -8   5  571.21   24.38   1
  -3  -8   6 2542.18   83.70   1
  -3  -8   7 2669.79  112.64   1
  -3  -8   8   36.60   13.19   1
  -3  -8   9  107.12   14.90   1
  -3  -8  10  378.30   24.51   1
  -3  -7  -3   54.61   14.63   1
  -3  -7  -2  765.63   37.63   1
  -3  -7  -1 1893.99   69.63   1
  -3  -7  -1 2304.00   68.16   1
  -3  -7   0   36.24   10.47   1
  -3  -7   0   21.07    6.33   1
  -3  -7   0   21.16    3.86   1
  -3  -7   1  189.61    7.71   1
  -3  -7   1  183.60    9.76   1
  -3  -7   1  166.67   13.17   1
  -3  -7   2 2130.75   64.62   1
  -3  -7   2 1732.22   62.43   1
  -3  -7   3   20.70    9.46   1
  -3  -7   4  882.09   32.67   1
  -3  -7   5 1355.71   47.13   1
  -3  -7   6 4251.04  133.01   1
  -3  -7   7 2638.88   85.27   1
  -3  -7   8  900.60   33.01   1
  -3  -7   9  392.83   19.82   1
  -3  -7  10  358.72   21.97   1
  -3  -7  11 1056.90   50.07   1
  -3  -6  -3  752.95   31.83   1
  -3  -6  -2  591.46   26.27   1
  -3  -6  -1 3373.29  110.35   1
  -3  -6   0   20.98    5.68   1
  -3  -6   0   -1.10    8.61   1
  -3  -6   0   -1.30    2.60   1
  -3  -6   1  758.45   24.24   1
  -3  -6   1  654.34   22.51   1
  -3  -6   1  634.54   26.70   1
  -3  -6   2 4292.87  146.76   1
  -3  -6   2 5350.92  147.76   1
  -3  -6   2 4659.43  147.44   1
  -3  -6   3 5701.76  176.69   1
  -3  -6   4   53.14    8.16   1
  -3  -6   5 1528.81   50.83   1
  -3  -6   6  247.43   15.10   1
  -3  -6   7 7456.32  229.69   1
  -3  -6   8 1495.37   51.04   1
  -3  -6   9  270.93   18.76   1
  -3  -6  10 1290.25   45.98   1
  -3  -6  11 1370.48   62.93   1
  -3  -6  12  617.03   36.76   1
  -3  -5  -3  843.90   31.37   1
  -3  -5  -2 6355.28  183.36   1
  -3  -5  -2 5247.55  179.65   1
  -3  -5  -1 8321.09  255.42   1
  -3  -5   0   69.89    5.18   1
  -3  -5   0   64.32    7.70   1
  -3  -5   0   41.34    4.89   1
  -3  -5   1   26.11    4.29   1
  -3  -5   1   23.62    6.51   1
  -3  -5   1   27.14    4.27   1
  -3  -5   1   33.52   11.00   1
  -3  -5   2 1981.14   58.75   1
  -3  -5   2 1773.25   58.95   1
  -3  -5   2 1644.30   58.39   1
  -3  -5   2 2064.79   60.89   1
  -3  -5   3 4422.25  119.70   1
  -3  -5   3 3278.71  114.52   1
  -3  -5   3 3560.51  115.76   1
  -3  -5   4 1377.89   50.48   1
  -3  -5   4 1842.13   54.08   1
  -3  -5   5 6617.82  182.22   1
  -3  -5   5 4940.68  175.73   1
  -3  -5   6 2906.29   90.57   1
  -3  -5   7 1080.44   36.81   1
  -3  -5   8  239.63   13.31   1
  -3  -5   9  424.77   18.96   1
  -3  -5  11 1444.76   63.86   1
  -3  -5  12  831.75   43.26   1
  -3  -4  -7   74.82   20.93   1
  -3  -4  -3  710.76   25.59   1
  -3  -4  -3  580.81   25.55   1
  -3  -4  -2 2329.99   81.09   1
  -3  -4  -2 2809.00   81.62   1
  -3  -4  -1 6697.79  247.16   1
  -3  -4  -1 8418.06  249.56   1
  -3  -4  -1 9331.56  251.16   1
  -3  -4   0  319.69   14.30   1
  -3  -4   0  267.32   10.46   1
  -3  -4   0  279.22   12.03   1
  -3  -4   0  325.44   11.55   1
  -3  -4   1 1449.32   54.06   1
  -3  -4   1 1990.94   55.33   1
  -3  -4   1 1694.15   54.33   1
  -3  -4   1 1775.78   53.10   1
  -3  -4   2  759.55   22.05   1
  -3  -4   2  672.36   22.82   1
  -3  -4   2  658.95   23.62   1
  -3  -4   3 3404.72  116.70   1
  -3  -4   3 4249.74  117.34   1
  -3  -4   3 3512.93  113.80   1
  -3  -4   4 1336.63   48.26   1
  -3  -4   4 1738.89   50.87   1
  -3  -4   5 6236.26  216.38   1
  -3  -4   5 8028.16  220.42   1
  -3  -4   6    9.92    7.31   1
  -3  -4   6   21.07    9.00   1
  -3  -4   7   12.53   10.41   1
  -3  -4   7    2.40    5.80   1
  -3  -4   8  124.10   11.36   1
  -3  -4   9  -10.89    7.19   1
  -3  -4  10  298.60   15.55   1
  -3  -4  11 1727.23   60.68   1
  -3  -4  12  442.26   26.50   1
  -3  -3  -8  128.82   16.80   1
  -3  -3  -7    7.40   11.59   1
  -3  -3  -6  828.29   33.96   1
  -3  -3  -4   30.25    6.38   1
  -3  -3  -3  102.82   11.15   1
  -3  -3  -3   67.24    7.54   1
  -3  -3  -3  105.88    6.79   1
  -3  -3  -2 7888.99  220.27   1
  -3  -3  -2 6360.06  221.71   1
  -3  -3  -2 7136.87  217.96   1
  -3  -3  -117508.58  476.35   1
  -3  -3  -115735.19  471.65   1
  -3  -3  -113553.62  472.67   1
  -3  -3   0 4726.56  132.00   1
  -3  -3   0 4115.22  125.73   1
  -3  -3   0 3537.87  126.10   1
  -3  -3   1 3167.44  108.06   1
  -3  -3   1 3591.60  110.27   1
  -3  -3   1 4048.78  109.44   1
  -3  -3   1 3438.65  110.24   1
  -3  -3   2 7675.51  257.57   1
  -3  -3   2 9352.82  259.18   1
  -3  -3   312746.41  390.63   1
  -3  -3   4 3706.37  129.07   1
  -3  -3   4 4798.33  131.61   1
  -3  -3   5 2558.34   70.81   1
  -3  -3   5 1942.16   69.63   1
  -3  -3   6 3101.38  109.15   1
  -3  -3   6 4003.09  111.36   1
  -3  -3   7 5797.30  159.89   1
  -3  -3   7 4329.64  153.97   1
  -3  -3   8 2303.04   72.94   1
  -3  -3   9  967.21   37.94   1
  -3  -3   9 1244.68   36.69   1
  -3  -3  10  734.95   26.03   1
  -3  -3  10  642.12   25.85   1
  -3  -3  11  707.03   30.31   1
  -3  -3  12  476.11   27.49   1
  -3  -2  -9  645.67   36.59   1
  -3  -2  -8   29.70   11.77   1
  -3  -2  -6  268.30   13.76   1
  -3  -2  -5 1653.24   67.50   1
  -3  -2  -5 2208.06   64.85   1
  -3  -2  -4  283.25   12.12   1
  -3  -2  -4  262.76   12.97   1
  -3  -2  -3  351.56   14.25   1
  -3  -2  -3  342.62   13.70   1
  -3  -2  -2    7.62    4.58   1
  -3  -2  -2    4.58    3.89   1
  -3  -2  -1 8397.89  287.75   1
  -3  -2  -110888.92  290.09   1
  -3  -2  -1 9177.64  291.23   1
  -3  -2   0 6601.56  222.62   1
  -3  -2   0 8456.64  224.38   1
  -3  -2   0 6935.56  224.86   1
  -3  -2   1   21.90    4.40   1
  -3  -2   1   36.60    3.39   1
  -3  -2   1   19.18    1.49   1
  -3  -2   1   23.72    4.09   1
  -3  -2   2  314.00   10.63   1
  -3  -2   2  257.92    9.64   1
  -3  -2   2  246.18   10.04   1
  -3  -2   3 1831.84   61.63   1
  -3  -2   3 1845.56   61.86   1
  -3  -2   3 2355.16   65.03   1
  -3  -2   413229.60  407.17   1
  -3  -2   5 2849.42  101.42   1
  -3  -2   5 3810.59  103.71   1
  -3  -2   6  903.00   29.45   1
  -3  -2   7 5628.00  160.54   1
  -3  -2   7 4315.18  157.66   1
  -3  -2   7 5638.51  163.70   1
  -3  -2   8 4592.77  166.71   1
  -3  -2   8 5941.33  171.12   1
  -3  -2   8 5898.24  172.03   1
  -3  -2   9  185.78    8.72   1
  -3  -2   9  170.04   10.43   1
  -3  -2  10  112.36   13.78   1
  -3  -2  10  135.49    6.52   1
  -3  -2  11  730.08   29.72   1
  -3  -2  12  483.56   28.15   1
  -3  -1 -10  147.14   22.56   1
  -3  -1  -9 1764.84   78.98   1
  -3  -1  -8   45.83   10.43   1
  -3  -1  -8   69.06    7.15   1
  -3  -1  -7   93.32   12.75   1
  -3  -1  -7  103.43    6.51   1
  -3  -1  -6 2034.91   64.96   1
  -3  -1  -5 3866.35   83.32   1
  -3  -1  -5 1139.06   81.00   1
  -3  -1  -4 1428.08   46.86   1
  -3  -1  -3 2791.01   89.81   1
  -3  -1  -2 4303.36  123.33   1
  -3  -1  -2 3403.56  117.85   1
  -3  -1  -113016.53  397.03   1
  -3  -1   0  846.81   29.10   1
  -3  -1   0 1034.91   29.60   1
  -3  -1   1  139.00    5.89   1
  -3  -1   1  148.60    6.58   1
  -3  -1   2 8742.25  271.15   1
  -3  -1   210286.02  273.83   1
  -3  -1   2 8452.96  270.30   1
  -3  -1   2 8268.26  270.97   1
  -3  -1   316371.20  499.01   1
  -3  -1   316563.69  496.78   1
  -3  -1   4  980.32   28.18   1
  -3  -1   4  779.53   27.36   1
  -3  -1   4  928.42   28.64   1
  -3  -1   4  785.12   28.02   1
  -3  -1   5 4036.06  143.58   1
  -3  -1   5 5056.63  147.91   1
  -3  -1   5 4975.89  143.90   1
  -3  -1   6  916.88   28.46   1
  -3  -1   6  894.61   26.92   1
  -3  -1   6  723.07   27.97   1
  -3  -1   7  381.81   16.41   1
  -3  -1   7  397.60   13.16   1
  -3  -1   7  295.15   13.40   1
  -3  -1   810422.37  361.40   1
  -3  -1   813361.05  362.95   1
  -3  -1   9 4790.02  170.26   1
  -3  -1   9 6211.02  170.23   1
  -3  -1  10  266.02   14.68   1
  -3  -1  11  664.09   32.99   1
  -3  -1  12 1056.90   52.02   1
  -3   0 -11  -30.03   20.39   1
  -3   0 -10   65.45   18.12   1
  -3   0  -9 1651.61   63.40   1
  -3   0  -8 2662.56   73.27   1
  -3   0  -8 1990.05   77.62   1
  -3   0  -7  633.03   26.17   1
  -3   0  -7  800.32   24.90   1
  -3   0  -6   25.50    5.66   1
  -3   0  -6   43.82    9.67   1
  -3   0  -6   46.24    3.81   1
  -3   0  -5 1624.90   52.40   1
  -3   0  -5 1600.80   51.21   1
  -3   0  -4 5060.90  135.17   1
  -3   0  -4 3755.24  134.82   1
  -3   0  -3  201.64    7.67   1
  -3   0  -3  194.32    8.36   1
  -3   0  -3  182.52    8.92   1
  -3   0  -2 4448.89  124.06   1
  -3   0  -2 3176.45  129.63   1
  -3   0  -2 4514.50  124.97   1
  -3   0  -119762.74  559.51   1
  -3   0  -117147.90  560.47   1
  -3   0   0 2156.67   73.38   1
  -3   0   0 2629.64   75.89   1
  -3   0   0 2466.12   74.49   1
  -3   0   1   27.04    3.12   1
  -3   0   1   21.34    4.07   1
  -3   0   1   25.20    1.91   1
  -3   0   1   30.80    2.00   1
  -3   0   2 2024.10   65.69   1
  -3   0   2 1937.76   66.03   1
  -3   0   2 2345.46   66.83   1
  -3   0   2 2330.96   68.56   1
  -3   0   3 2528.08   82.46   1
  -3   0   3 2604.06   84.71   1
  -3   0   3 2966.98   82.79   1
  -3   0   3 2912.76   85.27   1
  -3   0   3 2495.00   82.92   1
  -3   0   5   -1.10    4.41   1
  -3   0   5   -3.20    3.11   1
  -3   0   5   14.36    3.18   1
  -3   0   5   15.13    4.12   1
  -3   0   6  182.52    8.92   1
  -3   0   6  143.28    8.62   1
  -3   0   6  188.79    7.14   1
  -3   0   7  195.16   12.29   1
  -3   0   7  184.14    7.33   1
  -3   0   7  151.29    8.36   1
  -3   0   8 2482.03   79.71   1
  -3   0   8 2013.32   70.89   1
  -3   0   9   92.54   11.74   1
  -3   0  10   98.21   10.70   1
  -3   0  11  691.16   36.28   1
  -3   0  12  897.60   45.54   1
  -3   1 -11    7.29   13.07   1
  -3   1 -10   27.98   11.21   1
  -3   1  -9 1151.24   47.50   1
  -3   1  -9 1426.57   41.55   1
  -3   1  -8  186.32   13.10   1
  -3   1  -8  280.90    9.72   1
  -3   1  -7    4.71    5.99   1
  -3   1  -7   27.88    4.54   1
  -3   1  -6 1428.84   55.94   1
  -3   1  -6 1886.16   53.85   1
  -3   1  -6 1779.15   56.52   1
  -3   1  -5 7832.25  274.35   1
  -3   1  -510114.33  275.56   1
  -3   1  -4 7673.76  219.00   1
  -3   1  -4 7582.93  215.96   1
  -3   1  -4 5864.50  212.89   1
  -3   1  -320646.82  623.61   1
  -3   1  -2 3106.95   86.95   1
  -3   1  -2 2381.44   86.86   1
  -3   1  -2 3045.94   87.20   1
  -3   1  -1 2528.08   78.44   1
  -3   1   0 2704.00   83.20   1
  -3   1   1 1870.56   52.76   1
  -3   1   1 1557.09   52.88   1
  -3   1   2 1572.92   50.76   1
  -3   1   2 1606.41   50.50   1
  -3   1   2 1525.68   50.78   1
  -3   1   2 1845.56   51.55   1
  -3   1   319897.92  609.38   1
  -3   1   420848.47  632.43   1
  -3   1   5 1800.30   64.49   1
  -3   1   5 2195.86   62.79   1
  -3   1   6 3684.49  101.98   1
  -3   1   6 2871.89  100.75   1
  -3   1   7  235.32   10.74   1
  -3   1   8   76.56    9.97   1
  -3   1   9  -12.60    7.88   1
  -3   1  10  145.20   12.53   1
  -3   1  11  158.00   15.34   1
  -3   2 -11  119.68   19.04   1
  -3   2 -10  112.78   12.74   1
  -3   2  -9 2678.06   89.01   1
  -3   2  -8  572.64   23.93   1
  -3   2  -8  735.49   21.70   1
  -3   2  -7  108.16    9.57   1
  -3   2  -7  138.30    6.12   1
  -3   2  -6   84.82    5.34   1
  -3   2  -6   60.84    7.33   1
  -3   2  -5 3615.62   98.61   1
  -3   2  -5 2746.81   97.48   1
  -3   2  -4 9015.50  322.83   1
  -3   2  -412225.72  325.08   1
  -3   2  -314994.00  465.31   1
  -3   2  -214510.61  438.47   1
  -3   2  -1 3763.82  104.29   1
  -3   2  -1 2984.44  104.89   1
  -3   2   013555.95  416.82   1
  -3   2   014316.12  416.38   1
  -3   2   013467.60  415.46   1
  -3   2   1 5102.25  141.43   1
  -3   2   1 4694.99  141.15   1
  -3   2   1 4426.24  141.04   1
  -3   2   1 4271.93  139.87   1
  -3   2   2 3655.41  119.71   1
  -3   2   2 3990.45  120.02   1
  -3   2   2 4338.86  121.20   1
  -3   2   2 3778.56  120.48   1
  -3   2   3 1121.58   40.19   1
  -3   2   3 1392.78   41.80   1
  -3   2   3 1322.05   40.00   1
  -3   2   411588.52  329.41   1
  -3   2   4 9888.31  326.16   1
  -3   2   5 1391.29   44.01   1
  -3   2   6  233.78   11.93   1
  -3   2   7   11.90    6.49   1
  -3   2  11   67.73   14.16   1
  -3   3 -12    9.42   13.51   1
  -3   3 -11   24.50   16.33   1
  -3   3 -10    9.99   10.36   1
  -3   3  -9 1297.44   48.99   1
  -3   3  -8  258.24   13.82   1
  -3   3  -7   18.06    7.39   1
  -3   3  -6  600.74   19.12   1
  -3   3  -6  531.30   21.21   1
  -3   3  -5 4245.83  119.89   1
  -3   3  -5 3472.74  119.04   1
  -3   3  -4 5806.44  161.54   1
  -3   3  -4 4725.19  166.35   1
  -3   3  -3 2180.89   76.59   1
  -3   3  -3 2734.24   76.34   1
  -3   3  -2  515.29   16.34   1
  -3   3  -2  446.05   17.74   1
  -3   3  -2  563.11   17.56   1
  -3   3  -1  952.96   35.19   1
  -3   3  -1 1000.46   33.53   1
  -3   3  -1 1258.83   36.19   1
  -3   3  -1 1117.56   34.10   1
  -3   3   0 5858.37  168.39   1
  -3   3   0 5280.93  167.14   1
  -3   3   0 5739.58  168.19   1
  -3   3   0 5109.39  167.26   1
  -3   3   116131.54  452.16   1
  -3   3   116192.56  447.92   1
  -3   3   112925.42  447.94   1
  -3   3   113766.33  445.85   1
  -3   3   2 7700.06  250.96   1
  -3   3   2 9106.88  253.84   1
  -3   3   2 8107.20  252.11   1
  -3   3   3 2543.18   87.75   1
  -3   3   3 3157.32   89.90   1
  -3   3   4 8221.05  281.08   1
  -3   3   410237.39  281.28   1
  -3   3   5  193.49   11.68   1
  -3   3   5  209.09   10.70   1
  -3   3   6   79.39   11.40   1
  -3   3   6   35.05    9.83   1
  -3   3   7 3640.92  115.85   1
  -3   4 -12    4.71   13.11   1
  -3   4 -11  136.89   18.49   1
  -3   4 -10  226.20   14.44   1
  -3   4  -9 3627.65  118.05   1
  -3   4  -8 1982.92   66.79   1
  -3   4  -7  223.20   12.25   1
  -3   4  -6  264.39   13.01   1
  -3   4  -5  830.02   29.96   1
  -3   4  -5  979.06   30.04   1
  -3   4  -4 6650.40  187.57   1
  -3   4  -4 5495.26  186.81   1
  -3   4  -3 1741.39   54.25   1
  -3   4  -2  538.70   21.35   1
  -3   4  -2  582.74   18.83   1
  -3   4  -1  691.16   24.71   1
  -3   4  -1  792.42   23.65   1
  -3   4  -1  641.61   23.30   1
  -3   4   019435.15  585.52   1
  -3   4   1 1273.78   44.97   1
  -3   4   1 1642.68   46.20   1
  -3   4   1 1482.25   45.43   1
  -3   4   1 1392.04   45.52   1
  -3   4   2  355.32   14.70   1
  -3   4   2  390.46   13.83   1
  -3   4   3 2482.03   68.75   1
  -3   4   3 1877.49   67.59   1
  -3   4   414158.62  387.91   1
  -3   4   411214.81  387.59   1
  -3   4   5  170.82   12.29   1
  -3   4   5  166.41   11.09   1
  -3   4   6   22.66   10.57   1
  -3   4   7  837.52   30.68   1
  -3   4   8 2377.54   78.99   1
  -3   5 -12  105.68   16.04   1
  -3   5 -11  154.50   15.66   1
  -3   5 -10  180.10   17.18   1
  -3   5  -9  608.61   25.16   1
  -3   5  -8  140.66   12.33   1
  -3   5  -7  999.19   34.77   1
  -3   5  -6  148.84    8.30   1
  -3   5  -6  128.37    9.29   1
  -3   5  -5  142.80    8.84   1
  -3   5  -5  172.40    8.40   1
  -3   5  -4  796.93   27.67   1
  -3   5  -3 2152.96   69.60   1
  -3   5  -3 2008.83   70.82   1
  -3   5  -3 2536.13   69.50   1
  -3   5  -2 1550.78   54.34   1
  -3   5  -2 1888.77   52.15   1
  -3   5  -2 1528.03   52.38   1
  -3   5  -1  317.20   11.40   1
  -3   5  -1  277.56   11.33   1
  -3   5  -1  315.06   10.65   1
  -3   5  -1  255.68   11.19   1
  -3   5   0 1989.16   62.44   1
  -3   5   0 1802.00   63.68   1
  -3   5   0 2304.96   65.29   1
  -3   5   1   29.05    4.20   1
  -3   5   1   33.06    5.64   1
  -3   5   1   23.04    4.13   1
  -3   5   1   27.25    4.70   1
  -3   5   2   56.85    6.33   1
  -3   5   3   26.83    6.63   1
  -3   5   4 5127.99  180.46   1
  -3   5   4 6481.86  183.56   1
  -3   5   5   90.44    9.89   1
  -3   5   6    5.11   12.29   1
  -3   5   7   12.82   10.38   1
  -3   5   8  347.45   22.00   1
  -3   6 -12  384.55   25.89   1
  -3   6 -11  164.10   19.22   1
  -3   6 -10  162.82   16.84   1
  -3   6  -9 1431.87   58.27   1
  -3   6  -8 2298.24   78.62   1
  -3   6  -7 2353.22   67.91   1
  -3   6  -7 1822.44   66.60   1
  -3   6  -6  194.32   12.55   1
  -3   6  -6  161.54    9.91   1
  -3   6  -5 1045.23   38.80   1
  -3   6  -5 1372.70   40.01   1
  -3   6  -4 9808.92  295.14   1
  -3   6  -4 9488.71  301.97   1
  -3   6  -3 1230.61   42.80   1
  -3   6  -3 1219.41   43.30   1
  -3   6  -3 1553.94   42.57   1
  -3   6  -2  784.56   28.57   1
  -3   6  -2  893.41   27.50   1
  -3   6  -2 1067.98   30.72   1
  -3   6  -2  740.93   28.31   1
  -3   6  -1   87.80    4.50   1
  -3   6  -1   89.11    7.17   1
  -3   6  -1  100.60    7.22   1
  -3   6   0 1705.69   60.30   1
  -3   6   0 1733.89   63.29   1
  -3   6   0 1888.77   59.97   1
  -3   6   0 2294.41   60.35   1
  -3   6   1 5442.01  140.16   1
  -3   6   1 4124.21  140.00   1
  -3   6   1 4087.04  140.65   1
  -3   6   2 1094.95   34.41   1
  -3   6   2  919.30   35.78   1
  -3   6   3   17.89    9.39   1
  -3   6   3   36.72    8.85   1
  -3   6   4 2648.13   85.42   1
  -3   6   5 1907.94   65.52   1
  -3   6   6  438.90   25.14   1
  -3   6   7   11.90   11.87   1
  -3   7 -11   82.08   14.68   1
  -3   7 -10   41.60   10.97   1
  -3   7  -9  263.41   17.85   1
  -3   7  -8  455.40   21.77   1
  -3   7  -7  118.37   12.40   1
  -3   7  -6   94.67   10.70   1
  -3   7  -6   95.84    9.79   1
  -3   7  -5  311.88   15.89   1
  -3   7  -5  360.24   15.18   1
  -3   7  -4 8042.50  274.42   1
  -3   7  -4 8257.36  278.06   1
  -3   7  -410699.83  281.36   1
  -3   7  -3 6595.06  212.77   1
  -3   7  -3 6253.65  216.68   1
  -3   7  -3 7967.35  214.22   1
  -3   7  -2 1254.58   48.88   1
  -3   7  -2 1728.90   49.06   1
  -3   7  -2 1308.27   46.30   1
  -3   7  -2 1487.64   45.51   1
  -3   7  -1  475.24   20.49   1
  -3   7  -1  609.10   20.73   1
  -3   7  -1  542.89   17.24   1
  -3   7  -1  472.63   19.57   1
  -3   7   0 1607.21   68.95   1
  -3   7   0 2217.47   63.10   1
  -3   7   0 1842.13   62.66   1
  -3   7   1 1834.41   65.10   1
  -3   7   1 1834.41   65.10   1
  -3   7   1 2349.34   67.86   1
  -3   7   2  288.66   14.61   1
  -3   7   3   61.47    9.88   1
  -3   7   4 1958.06   67.26   1
  -3   7   5  943.10   44.22   1
  -3   7   6  334.52   23.78   1
  -3   7   6  224.40   23.97   1
  -3   8 -11  630.51   37.67   1
  -3   8 -10   94.67   13.43   1
  -3   8  -9   13.40   15.52   1
  -3   8  -8  556.02   24.99   1
  -3   8  -7  447.75   20.74   1
  -3   8  -6   40.96   12.29   1
  -3   8  -6   61.15   12.04   1
  -3   8  -5  146.65   13.08   1
  -3   8  -5  134.79   13.00   1
  -3   8  -4 9341.22  286.08   1
  -3   8  -4 9129.80  294.29   1
  -3   8  -3 4946.31  165.98   1
  -3   8  -3 5625.00  163.50   1
  -3   8  -3 4867.85  168.84   1
  -3   8  -3 6062.18  171.29   1
  -3   8  -2  143.76   11.99   1
  -3   8  -2  144.48   12.74   1
  -3   8  -2  130.19    5.70   1
  -3   8  -1   61.62   13.19   1
  -3   8   0 4358.64  139.96   1
  -3   8   0 4501.07  146.26   1
  -3   8   1 5932.08  186.39   1
  -3   8   1 5635.50  180.17   1
  -3   8   2  818.53   33.19   1
  -3   8   3  347.08   21.61   1
  -3   8   4  265.04   18.88   1
  -3   9 -10    5.90   19.29   1
  -3   9  -9  374.42   23.99   1
  -3   9  -8 1067.33   55.54   1
  -3   9  -8 1147.18   50.81   1
  -3   9  -7  889.83   37.59   1
  -3   9  -7  848.56   33.21   1
  -3   9  -6   49.84   12.57   1
  -3   9  -6   19.80    9.88   1
  -3   9  -5   16.56    8.95   1
  -3   9  -5   40.58    9.94   1
  -3   9  -4  708.62   23.43   1
  -3   9  -4  653.82   26.08   1
  -3   9  -4  620.51   25.91   1
  -3   9  -3  -17.31    8.49   1
  -3   9  -2   49.84    9.04   1
  -3   9  -2   53.73   13.34   1
  -3   9  -1   44.76   10.03   1
  -3   9  -1   40.20    9.13   1
  -3   9   0  861.42   32.87   1
  -3   9   1 1537.42   76.07   1
  -3   9   1 1638.63   70.44   1
  -3   9   2  488.41   27.40   1
  -3   9   3    3.39   17.66   1
  -3  10  -9   74.13   25.49   1
  -3  10  -9  157.50   16.06   1
  -3  10  -8  214.92   16.13   1
  -3  10  -8  152.03   23.18   1
  -3  10  -7  570.73   29.15   1
  -3  10  -7  498.18   32.59   1
  -3  10  -6  132.71   15.44   1
  -3  10  -6  138.06   12.69   1
  -3  10  -5   -8.01   13.19   1
  -3  10  -5   17.64   12.01   1
  -3  10  -4  347.45   23.49   1
  -3  10  -4  392.44   21.39   1
  -3  10  -3  846.23   45.38   1
  -3  10  -3  889.83   39.97   1
  -3  10  -2  252.49   17.80   1
  -3  10  -2  264.39   22.11   1
  -3  10  -1   50.55   18.63   1
  -3  10  -1   50.84   15.97   1
  -3  10   0 1126.27   55.71   1
  -3  10   0 1323.50   59.66   1
  -3  11  -5   48.58   21.89   1
  -3  11  -5   53.44   12.43   1
  -2 -10   4  865.54   46.48   1
  -2 -10   5 1067.33   51.62   1
  -2 -10   6  301.02   22.56   1
  -2  -9   0  426.84   27.27   1
  -2  -9   1 3058.09  130.51   1
  -2  -9   2 1009.97   47.03   1
  -2  -9   3   -6.30   13.30   1
  -2  -9   4 1016.97   47.20   1
  -2  -9   5 3705.16  155.83   1
  -2  -9   6 1907.94   82.99   1
  -2  -9   7   48.16   13.74   1
  -2  -9   8   78.85   20.07   1
  -2  -9   9 1019.52   51.09   1
  -2  -8  -1  759.55   40.24   1
  -2  -8   0  948.64   36.96   1
  -2  -8   1 1500.79   55.79   1
  -2  -8   1 1792.68   55.04   1
  -2  -8   2   61.94    7.24   1
  -2  -8   2   57.61   11.99   1
  -2  -8   3   -8.12   10.49   1
  -2  -8   4 3298.20  104.52   1
  -2  -8   5 7721.14  239.01   1
  -2  -8   6 2759.40   89.30   1
  -2  -8   7   -6.60   11.41   1
  -2  -8   8   44.89   16.48   1
  -2  -8   9 1920.19   85.01   1
  -2  -8  10 1720.59   76.32   1
  -2  -8  11  482.68   29.00   1
  -2  -7  -3  513.02   30.80   1
  -2  -7  -2   25.60   16.29   1
  -2  -7  -1  652.80   25.55   1
  -2  -7  -1  541.96   27.94   1
  -2  -7  -1  713.96   20.84   1
  -2  -7   0  621.50   27.42   1
  -2  -7   0  696.96   25.34   1
  -2  -7   1 4609.05  143.93   1
  -2  -7   2  812.82   31.93   1
  -2  -7   2  996.66   30.94   1
  -2  -7   3   20.34   12.18   1
  -2  -7   5   83.72    9.70   1
  -2  -7   6   97.81   10.09   1
  -2  -7   7  106.50   14.24   1
  -2  -7   8  228.61   14.21   1
  -2  -7   9 4902.80  155.44   1
  -2  -7  10 3259.27  137.02   1
  -2  -7  11  293.09   21.23   1
  -2  -7  12   -7.08   14.79   1
  -2  -6  -2  910.23   30.17   1
  -2  -6  -2  732.24   29.77   1
  -2  -6  -1  528.54   25.75   1
  -2  -6  -1  762.86   24.31   1
  -2  -6   0  331.60   15.30   1
  -2  -6   0  388.48   14.19   1
  -2  -6   0  336.72   11.74   1
  -2  -6   1 5643.01  192.31   1
  -2  -6   1 6091.80  188.88   1
  -2  -6   1 6982.27  192.19   1
  -2  -6   2 4446.22  126.69   1
  -2  -6   2 3565.28  123.00   1
  -2  -6   3   74.48    7.77   1
  -2  -6   4 1611.22   52.18   1
  -2  -6   5 9880.36  302.18   1
  -2  -6   6 2022.30   65.66   1
  -2  -6   7  854.39   29.81   1
  -2  -6   8  291.38   16.39   1
  -2  -6   9  122.10   15.03   1
  -2  -6  10  268.63   16.72   1
  -2  -6  11 1228.50   56.08   1
  -2  -6  12   46.24   15.37   1
  -2  -5  -7  469.59   33.81   1
  -2  -5  -3 7329.07  251.69   1
  -2  -5  -3 8979.46  255.85   1
  -2  -5  -213975.97  432.69   1
  -2  -5  -1   29.81    6.66   1
  -2  -5  -1   38.56    7.33   1
  -2  -5   0   50.27   10.35   1
  -2  -5   0   51.84    4.75   1
  -2  -5   0   31.92    6.55   1
  -2  -5   1 1584.04   50.94   1
  -2  -5   1 1805.40   53.54   1
  -2  -5   1 1791.83   54.18   1
  -2  -5   1 1358.66   50.87   1
  -2  -5   2  733.33   22.75   1
  -2  -5   2  587.58   23.27   1
  -2  -5   2  734.95   25.48   1
  -2  -5   3 2442.34   87.97   1
  -2  -5   3 3306.25   93.15   1
  -2  -5   4  364.05   14.12   1
  -2  -5   4  292.75   13.00   1
  -2  -5   5 1667.91   49.01   1
  -2  -5   5 1159.40   43.58   1
  -2  -5   6 3875.06  112.05   1
  -2  -5   6 3120.34  109.49   1
  -2  -5   7 1062.11   35.20   1
  -2  -5   8 1904.45   62.84   1
  -2  -5   9  235.93   12.90   1
  -2  -4  -8  160.53   23.31   1
  -2  -4  -7 1075.18   50.50   1
  -2  -4  -4 2193.05   72.12   1
  -2  -4  -3 7513.42  261.77   1
  -2  -4  -3 9716.04  266.14   1
  -2  -4  -216954.65  463.55   1
  -2  -4  -213391.12  458.25   1
  -2  -4  -1 5884.42  168.76   1
  -2  -4  -1 4615.84  168.49   1
  -2  -4  -1 5876.76  168.65   1
  -2  -4   0   20.52    4.89   1
  -2  -4   0   21.90    4.21   1
  -2  -4   0   53.44    6.14   1
  -2  -4   1  214.62    9.38   1
  -2  -4   1  211.12    7.85   1
  -2  -4   1  258.24   12.21   1
  -2  -4   210227.28  283.16   1
  -2  -4   2 9099.25  282.35   1
  -2  -4   2 8537.76  284.59   1
  -2  -4   3 9537.48  335.95   1
  -2  -4   312658.50  339.78   1
  -2  -4   4  801.46   30.01   1
  -2  -4   4 1038.13   32.22   1
  -2  -4   5 4155.09  110.87   1
  -2  -4   5 2964.80  108.90   1
  -2  -4   6 1740.56   62.58   1
  -2  -4   6 2252.45   64.55   1
  -2  -4   7 2928.97   82.26   1
  -2  -4   7 2140.91   78.66   1
  -2  -4   8   47.61    7.45   1
  -2  -4   9 1990.05   65.13   1
  -2  -4  10 1830.98   71.03   1
  -2  -4  10 2486.02   67.81   1
  -2  -4  11 1586.43   56.56   1
  -2  -4  12    6.71   16.63   1
  -2  -3  -9   31.25   20.57   1
  -2  -3  -8   85.93   17.98   1
  -2  -3  -7 1831.84   64.20   1
  -2  -3  -6 1700.74   63.51   1
  -2  -3  -4   78.85    6.75   1
  -2  -3  -4   67.24    8.04   1
  -2  -3  -3 4341.49  129.14   1
  -2  -3  -3 3597.60  128.36   1
  -2  -3  -3 4667.62  129.81   1
  -2  -3  -2 2434.44   88.81   1
  -2  -3  -2 3247.86   90.04   1
  -2  -3  -2 2994.28   88.65   1
  -2  -3  -1   29.70    4.03   1
  -2  -3  -1   18.06    5.78   1
  -2  -3  -1   18.92    4.61   1
  -2  -3   0 1991.84   55.34   1
  -2  -3   0 1554.72   54.41   1
  -2  -3   0 1756.45   54.48   1
  -2  -3   111079.67  294.73   1
  -2  -3   1 8609.98  291.36   1
  -2  -3   1 9171.89  291.14   1
  -2  -3   210807.68  365.94   1
  -2  -3   213987.79  369.00   1
  -2  -3   211655.36  369.22   1
  -2  -3   3 8062.24  217.29   1
  -2  -3   3 6239.42  216.43   1
  -2  -3   4 6491.52  175.64   1
  -2  -3   4 4980.12  173.60   1
  -2  -3   516741.77  582.26   1
  -2  -3   521844.84  585.29   1
  -2  -3   6 9998.00  271.97   1
  -2  -3   6 7628.27  267.26   1
  -2  -3   7 1283.07   46.57   1
  -2  -3   7 1702.39   50.34   1
  -2  -3   9 1143.12   33.13   1
  -2  -3   9  923.55   37.08   1
  -2  -3  10 1737.22   58.35   1
  -2  -3  11 1986.48   67.75   1
  -2  -3  12  169.52   19.01   1
  -2  -2 -10   94.67   17.51   1
  -2  -2  -9   83.54   14.08   1
  -2  -2  -8  -19.10    9.53   1
  -2  -2  -7  487.53   20.31   1
  -2  -2  -6  661.52   25.72   1
  -2  -2  -5  529.46   20.25   1
  -2  -2  -5  513.93   18.59   1
  -2  -2  -5  421.07   19.29   1
  -2  -2  -4   34.34    5.16   1
  -2  -2  -4   29.05    6.25   1
  -2  -2  -3 4686.77  151.98   1
  -2  -2  -3 5129.42  150.40   1
  -2  -2  -2  969.70   28.03   1
  -2  -2  -2  754.05   27.46   1
  -2  -2  -2  819.10   27.48   1
  -2  -2  -1 4367.89  148.04   1
  -2  -2  -1 5409.60  150.04   1
  -2  -2  -1 4883.21  148.15   1
  -2  -2   0 2035.81   57.75   1
  -2  -2   0 1702.39   56.94   1
  -2  -2   1 3439.82  105.57   1
  -2  -2   1 3149.45  105.51   1
  -2  -2   1 3800.72  110.97   1
  -2  -2   2 5838.49  158.93   1
  -2  -2   2 4813.58  156.80   1
  -2  -2   2 4826.08  157.00   1
  -2  -2   315582.53  471.86   1
  -2  -2   4 2085.75   73.07   1
  -2  -2   4 2698.80   74.81   1
  -2  -2   5  302.06   11.82   1
  -2  -2   5  240.87    9.93   1
  -2  -2   6 4460.90  121.56   1
  -2  -2   6 3352.41  119.27   1
  -2  -2   7 1203.40   37.47   1
  -2  -2   7  933.30   35.44   1
  -2  -2   7 1181.30   35.74   1
  -2  -2   8 2130.75   62.78   1
  -2  -2   8 2107.73   59.68   1
  -2  -2   8 1572.12   61.06   1
  -2  -2   9 4637.61  159.35   1
  -2  -2   9 5548.76  156.43   1
  -2  -2  10 1644.30   55.15   1
  -2  -2  11  424.36   20.19   1
  -2  -2  12   -5.38   15.59   1
  -2  -1 -10 1293.84   64.03   1
  -2  -1  -9  476.55   22.70   1
  -2  -1  -8  227.10   16.88   1
  -2  -1  -8  305.55   10.84   1
  -2  -1  -7  979.69   37.56   1
  -2  -1  -6 3958.93  143.46   1
  -2  -1  -6 5295.47  147.00   1
  -2  -1  -5 2156.67   79.88   1
  -2  -1  -5 2905.21   79.77   1
  -2  -1  -3 5162.42  165.25   1
  -2  -1  -2  204.20    8.57   1
  -2  -1  -2  173.45    7.11   1
  -2  -1  -1  540.56   16.74   1
  -2  -1  -1  444.79   15.61   1
  -2  -1   0 6842.60  225.00   1
  -2  -1   0 7965.56  224.91   1
  -2  -1   110697.76  318.56   1
  -2  -1   110265.74  316.12   1
  -2  -1   2 6403.20  208.05   1
  -2  -1   2 7864.14  211.06   1
  -2  -1   2 6689.60  207.75   1
  -2  -1   2 6462.55  207.41   1
  -2  -1   4 2252.45   63.60   1
  -2  -1   4 1839.55   62.62   1
  -2  -1   5 5251.90  153.64   1
  -2  -1   5 4217.20  150.66   1
  -2  -1   5 5389.03  151.22   1
  -2  -1   6 3485.72  127.53   1
  -2  -1   6 4614.48  129.07   1
  -2  -1   6 4448.89  130.73   1
  -2  -1   7 2885.84   87.03   1
  -2  -1   7 2892.29   82.82   1
  -2  -1   7 2246.76   82.48   1
  -2  -1   8   16.32    7.43   1
  -2  -1   8   24.21    8.17   1
  -2  -1   8   30.25    2.20   1
  -2  -1   9  170.30   13.31   1
  -2  -1  10 2270.52   76.24   1
  -2  -1  11 1541.35   54.96   1
  -2  -1  12  198.25   17.18   1
  -2   0 -11    3.69   13.29   1
  -2   0 -10  778.41   36.83   1
  -2   0  -9   69.72   14.03   1
  -2   0  -8    3.88    2.48   1
  -2   0  -8    4.49    7.50   1
  -2   0  -7 1197.16   44.29   1
  -2   0  -7 1495.37   42.54   1
  -2   0  -6 6040.40  164.77   1
  -2   0  -6 4737.57  166.57   1
  -2   0  -5  261.79   12.30   1
  -2   0  -5  360.24   11.01   1
  -2   0  -3 5846.13  160.57   1
  -2   0  -3 4434.23  157.15   1
  -2   0  -2 8637.84  262.09   1
  -2   0  -1 5590.55  158.51   1
  -2   0  -1 4805.26  158.05   1
  -2   0   0   70.06    3.01   1
  -2   0   0   55.35    2.53   1
  -2   0   0   65.77    3.24   1
  -2   0   1   15.60    1.19   1
  -2   0   1   13.69    2.07   1
  -2   0   1   22.18    1.98   1
  -2   0   1   17.64    1.76   1
  -2   0   1   15.29    1.41   1
  -2   0   2  740.93   25.59   1
  -2   0   2  755.15   24.73   1
  -2   0   2  840.42   26.09   1
  -2   0   2  860.25   25.81   1
  -2   0   4 4740.32  161.11   1
  -2   0   4 5622.00  161.96   1
  -2   0   4 5674.61  158.19   1
  -2   0   4 4579.23  156.99   1
  -2   0   5   98.80    5.77   1
  -2   0   5  127.46    5.42   1
  -2   0   5  148.35    7.31   1
  -2   0   6 4841.38  175.34   1
  -2   0   6 6371.23  180.39   1
  -2   0   6 6118.37  178.34   1
  -2   0   7 2522.05   90.40   1
  -2   0   7 3390.73   97.83   1
  -2   0   8 1927.21   63.22   1
  -2   0   9    5.11    6.92   1
  -2   0  10  284.26   15.85   1
  -2   0  11  272.25   22.11   1
  -2   0  12  149.82   17.14   1
  -2   1 -11  429.32   26.11   1
  -2   1 -10 1646.74   58.44   1
  -2   1  -9  794.11   31.00   1
  -2   1  -8  724.15   29.06   1
  -2   1  -7   64.96    6.93   1
  -2   1  -6  710.22   26.65   1
  -2   1  -6  855.56   25.16   1
  -2   1  -5 2700.88   94.59   1
  -2   1  -5 3176.45   91.30   1
  -2   1  -4   75.86    4.53   1
  -2   1  -4   84.27    3.49   1
  -2   1  -142300.15 1275.15   1
  -2   1   017643.81  552.57   1
  -2   1   019013.65  554.32   1
  -2   1   1 2530.09   78.47   1
  -2   1   1 2470.09   78.53   1
  -2   1   1 2663.59   78.45   1
  -2   1   2  209.09    7.81   1
  -2   1   2  221.12    7.73   1
  -2   1   336699.07 1111.11   1
  -2   1   4 2054.81   59.84   1
  -2   1   4 1781.68   59.09   1
  -2   1   5  595.85   20.02   1
  -2   1  10  612.56   26.23   1
  -2   1  11  380.25   23.40   1
  -2   2 -12   60.84   21.37   1
  -2   2 -11  297.22   21.72   1
  -2   2 -10 1235.52   49.21   1
  -2   2  -9  885.66   33.33   1
  -2   2  -8  303.80   14.99   1
  -2   2  -7  343.36   14.82   1
  -2   2  -6  573.12   20.11   1
  -2   2  -5 2974.61   91.63   1
  -2   2  -4 4722.44  136.07   1
  -2   2  -4 4120.36  138.65   1
  -2   2  -3  443.94   15.59   1
  -2   2  -3  504.45   15.27   1
  -2   2  -2 4696.36  156.25   1
  -2   2  -2 5250.45  156.51   1
  -2   2  -2 5511.58  157.39   1
  -2   2  -1 1137.71   33.73   1
  -2   2  -1 1100.25   33.17   1
  -2   2  -1  951.72   32.70   1
  -2   2   0 7272.68  240.49   1
  -2   2   0 8343.00  241.14   1
  -2   2   0 8192.06  240.76   1
  -2   2   0 7869.46  239.52   1
  -2   2   1  440.16   13.43   1
  -2   2   1  423.95   14.00   1
  -2   2   1  392.44   13.87   1
  -2   2   1  449.86   14.00   1
  -2   2   211813.52  339.11   1
  -2   2   210442.80  335.18   1
  -2   2   326958.36  820.95   1
  -2   2   4  671.33   24.87   1
  -2   2   4  879.72   26.10   1
  -2   2   5  416.16   15.91   1
  -2   2   5  491.51   16.85   1
  -2   2   6 3813.06  107.44   1
  -2   2   6 2983.34  104.87   1
  -2   3 -12  104.04   20.20   1
  -2   3 -11  149.08   13.92   1
  -2   3 -10  567.87   25.74   1
  -2   3  -9  203.63   12.56   1
  -2   3  -8   12.82    6.52   1
  -2   3  -7 1114.22   38.05   1
  -2   3  -519639.22  597.00   1
  -2   3  -4  111.72    6.55   1
  -2   3  -4  145.20    6.99   1
  -2   3  -3 3443.34  107.97   1
  -2   3  -2  147.38    7.04   1
  -2   3  -2  164.87    6.42   1
  -2   3  -1 5698.74  158.53   1
  -2   3  -1 4851.12  160.20   1
  -2   3  -1 4988.60  158.21   1
  -2   3   0 4640.33  129.43   1
  -2   3   0 4352.04  129.30   1
  -2   3   0 3875.06  129.48   1
  -2   3   0 4000.56  127.76   1
  -2   3   1 9250.59  269.30   1
  -2   3   1 8591.44  268.80   1
  -2   3   1 8734.77  269.16   1
  -2   3   218316.91  506.17   1
  -2   3   215133.92  504.38   1
  -2   3   3 8862.34  242.88   1
  -2   3   3 7131.80  243.22   1
  -2   3   4 2223.12   77.33   1
  -2   3   4 2791.01   78.19   1
  -2   3   5   14.82    6.24   1
  -2   3   5    0.10    5.57   1
  -2   3   6 5069.44  179.42   1
  -2   3   6 6635.73  190.62   1
  -2   4 -12   26.11   14.10   1
  -2   4 -11   21.16   11.96   1
  -2   4 -10  412.90   21.54   1
  -2   4  -9  491.95   21.29   1
  -2   4  -7  429.73   17.00   1
  -2   4  -6    0.71    5.12   1
  -2   4  -6   39.44    5.28   1
  -2   4  -516202.74  493.89   1
  -2   4  -4 1753.10   50.24   1
  -2   4  -4 1441.72   49.36   1
  -2   4  -3  390.06   13.43   1
  -2   4  -3  280.23   12.05   1
  -2   4  -2  106.50    6.19   1
  -2   4  -2   99.80    5.59   1
  -2   4  -1 3147.21   87.52   1
  -2   4  -1 2594.88   86.60   1
  -2   4  -1 2658.43   85.59   1
  -2   4   0  600.25   18.62   1
  -2   4   0  524.87   19.24   1
  -2   4   1 2664.62   88.79   1
  -2   4   1 3278.71   90.47   1
  -2   4   1 2705.04   88.42   1
  -2   4   2 2419.66   67.88   1
  -2   4   2 1932.48   66.82   1
  -2   4   3 2584.71   80.33   1
  -2   4   4 1640.25   52.65   1
  -2   4   5 1760.64   53.71   1
  -2   4   5 1332.98   50.38   1
  -2   4   7  444.37   19.39   1
  -2   5 -12   32.26   18.29   1
  -2   5 -11  169.00   18.20   1
  -2   5 -10 2034.01   69.45   1
  -2   5  -9 4265.40  134.54   1
  -2   5  -8  350.81   16.86   1
  -2   5  -7  122.32    8.85   1
  -2   5  -7  223.50   11.06   1
  -2   5  -6  681.21   26.62   1
  -2   5  -6  839.26   26.65   1
  -2   5  -520408.98  622.87   1
  -2   5  -4 1759.80   62.93   1
  -2   5  -4 2265.76   62.83   1
  -2   5  -3 1863.65   51.80   1
  -2   5  -3 1518.66   53.78   1
  -2   5  -3 1502.34   50.39   1
  -2   5  -2   46.24    5.98   1
  -2   5  -2    9.61    3.78   1
  -2   5  -2   19.98    4.20   1
  -2   5  -1 8851.05  287.88   1
  -2   5  -1 9547.24  287.27   1
  -2   5  -111016.60  291.79   1
  -2   5  -1 8467.68  288.94   1
  -2   5   0  353.82   14.30   1
  -2   5   0  368.64   14.59   1
  -2   5   0  458.39   14.56   1
  -2   5   1  106.92    6.82   1
  -2   5   1  103.02    6.70   1
  -2   5   1  117.72    8.90   1
  -2   5   2 3359.36  117.08   1
  -2   5   2 4287.63  119.17   1
  -2   5   3 5811.01  201.25   1
  -2   5   3 7269.27  201.21   1
  -2   5   4  292.75   15.06   1
  -2   5   5 1021.44   37.07   1
  -2   5   7 1090.98   39.64   1
  -2   6 -11  179.02   16.59   1
  -2   6 -10  408.44   21.83   1
  -2   6  -9  988.47   40.24   1
  -2   6  -8   68.72    8.12   1
  -2   6  -7  554.60   22.61   1
  -2   6  -7  717.17   25.17   1
  -2   6  -6 1243.27   37.38   1
  -2   6  -6  970.32   39.25   1
  -2   6  -5 3820.48  134.75   1
  -2   6  -5 4981.54  136.93   1
  -2   6  -4 1760.64   63.78   1
  -2   6  -4 1819.88   60.58   1
  -2   6  -4 2196.80   62.81   1
  -2   6  -3 1141.76   39.20   1
  -2   6  -3 1126.94   42.30   1
  -2   6  -3 1383.84   40.18   1
  -2   6  -2 6569.10  176.69   1
  -2   6  -2 5953.67  175.92   1
  -2   6  -2 5153.80  175.17   1
  -2   6  -2 5272.21  175.72   1
  -2   6  -114493.75  474.34   1
  -2   6  -114108.69  484.62   1
  -2   6  -118360.25  474.25   1
  -2   6  -115592.52  474.51   1
  -2   6   0 1850.72   49.90   1
  -2   6   0 1380.87   48.31   1
  -2   6   0 1363.09   49.47   1
  -2   6   1  522.58   20.57   1
  -2   6   1  541.49   20.94   1
  -2   6   1  643.13   23.33   1
  -2   6   2  474.80   19.61   1
  -2   6   2  607.62   24.65   1
  -2   6   3 4213.31  132.42   1
  -2   6   4 1973.14   70.18   1
  -2   6   4 1958.95   64.62   1
  -2   6   5  569.30   25.29   1
  -2   6   6  974.69   44.96   1
  -2   6   7  618.52   32.33   1
  -2   7 -12   35.76   14.83   1
  -2   7 -11   77.44   13.38   1
  -2   7 -10  504.90   22.92   1
  -2   7  -9  382.59   20.73   1
  -2   7  -8   -7.29    7.67   1
  -2   7  -7   12.18   10.89   1
  -2   7  -6   22.37    7.19   1
  -2   7  -6  -14.82    8.39   1
  -2   7  -5 4304.67  153.53   1
  -2   7  -5 5456.78  150.69   1
  -2   7  -5 4362.60  146.63   1
  -2   7  -4 2238.24   75.70   1
  -2   7  -4 2160.39   74.37   1
  -2   7  -4 2773.08   76.88   1
  -2   7  -3  886.85   27.40   1
  -2   7  -3  725.22   26.39   1
  -2   7  -3  696.43   26.39   1
  -2   7  -2 4814.97  167.92   1
  -2   7  -2 6323.43  166.99   1
  -2   7  -2 4947.71  164.60   1
  -2   7  -110962.09  370.64   1
  -2   7  -111562.70  372.05   1
  -2   7  -113865.06  374.45   1
  -2   7   0 2246.76   77.74   1
  -2   7   0 2746.81   80.71   1
  -2   7   1 1281.64   43.68   1
  -2   7   1 1311.89   43.46   1
  -2   7   2  767.84   31.04   1
  -2   7   3  743.65   28.36   1
  -2   7   4  561.69   23.70   1
  -2   7   5  226.50   17.16   1
  -2   7   6   21.44   18.71   1
  -2   7   6   54.32   17.54   1
  -2   8 -11   57.76   14.90   1
  -2   8 -10  181.98   20.50   1
  -2   8  -9 3509.38  117.30   1
  -2   8  -8  519.84   22.34   1
  -2   8  -7   39.44   13.06   1
  -2   8  -7   50.27    8.51   1
  -2   8  -6 1028.48   39.77   1
  -2   8  -6 1060.15   36.47   1
  -2   8  -5 5256.25  165.30   1
  -2   8  -5 5244.66  165.12   1
  -2   8  -4 2508.01   85.14   1
  -2   8  -4 2587.76   82.41   1
  -2   8  -3    8.53    7.71   1
  -2   8  -3    9.12    7.19   1
  -2   8  -2   48.30   11.40   1
  -2   8  -1  259.21   12.88   1
  -2   8  -1  220.82   12.78   1
  -2   8   0 3638.50  120.64   1
  -2   8   0 3301.65  116.07   1
  -2   8   1 1131.65   41.04   1
  -2   8   1 1156.68   40.81   1
  -2   8   2   79.39   15.50   1
  -2   8   2  559.80   17.98   1
  -2   8   3 1855.89   84.44   1
  -2   8   3 1968.70   84.30   1
  -2   8   4  817.39   40.03   1
  -2   9 -10  186.87   18.59   1
  -2   9  -9   15.13    9.41   1
  -2   9  -9   21.62   17.02   1
  -2   9  -8   25.20   12.25   1
  -2   9  -7   59.75   11.75   1
  -2   9  -7   72.59    9.37   1
  -2   9  -6  280.56   18.76   1
  -2   9  -6  234.70   13.18   1
  -2   9  -5 3312.00  103.59   1
  -2   9  -5 3112.52  109.35   1
  -2   9  -4 1319.14   47.22   1
  -2   9  -4 1407.75   48.78   1
  -2   9  -3 1894.86   71.39   1
  -2   9  -3 1828.42   63.28   1
  -2   9  -2  833.48   34.64   1
  -2   9  -2  918.09   32.72   1
  -2   9  -1  948.64   33.26   1
  -2   9  -1  781.20   38.01   1
  -2   9   0 1260.96   46.16   1
  -2   9   0 1213.13   43.89   1
  -2   9   1   18.84   13.28   1
  -2   9   1   57.15   10.13   1
  -2   9   2  234.70   20.84   1
  -2   9   3  373.26   23.18   1
  -2  10  -9 1597.60   73.54   1
  -2  10  -9 1607.21   80.98   1
  -2  10  -8 1431.11   65.07   1
  -2  10  -8 1442.48   65.33   1
  -2  10  -7   24.21   13.68   1
  -2  10  -7   10.50    9.91   1
  -2  10  -6    5.90   17.30   1
  -2  10  -6   11.83    9.49   1
  -2  10  -5  961.62   45.27   1
  -2  10  -5  990.99   45.96   1
  -2  10  -4 1478.40   61.52   1
  -2  10  -4 1213.83   65.50   1
  -2  10  -3  501.76   24.19   1
  -2  10  -3  429.32   25.69   1
  -2  10  -2  642.12   34.97   1
  -2  10  -2  633.03   31.20   1
  -2  10  -1 1273.06   57.09   1
  -2  10  -1 1311.89   64.47   1
  -2  10   0 1529.59   68.83   1
  -2  10   0 1594.40   73.47   1
  -2  11  -5 1284.51   68.81   1
  -2  11  -5 1337.36   59.24   1
  -2  11  -4  563.59   33.24   1
  -2  11  -4  556.96   32.10   1
  -1 -10   2   11.63   16.30   1
  -1 -10   3 1042.64   49.73   1
  -1 -10   4 1083.07   50.68   1
  -1 -10   5  297.91   21.75   1
  -1 -10   6  246.80   19.79   1
  -1 -10   7  677.04   38.51   1
  -1 -10   8 1088.34   51.46   1
  -1  -9  -1  828.86   43.76   1
  -1  -9   0 1632.16   71.91   1
  -1  -9   1  409.66   24.29   1
  -1  -9   2  348.20   19.41   1
  -1  -9   3 2469.10   81.49   1
  -1  -9   4 3514.12  115.00   1
  -1  -9   6 1114.22   41.39   1
  -1  -9   7  393.63   25.79   1
  -1  -9  10  110.88   21.06   1
  -1  -8  -3  406.83   25.82   1
  -1  -8  -2  115.99   15.51   1
  -1  -8  -1  565.49   25.68   1
  -1  -8   0  811.68   31.34   1
  -1  -8   1  659.46   24.65   1
  -1  -8   1  529.46   23.47   1
  -1  -8   2   79.57   10.88   1
  -1  -8   3 1341.76   45.42   1
  -1  -8   4 2607.12   83.74   1
  -1  -8   5   54.46   10.48   1
  -1  -8   6  788.49   29.76   1
  -1  -8   7  299.64   19.73   1
  -1  -8   8 2991.00   96.25   1
  -1  -8   9 1192.32   43.51   1
  -1  -8  10  762.31   40.31   1
  -1  -8  11  243.05   19.64   1
  -1  -7  -3  253.13   16.86   1
  -1  -7  -2  143.76   15.59   1
  -1  -7  -1  290.02   15.67   1
  -1  -7  -1  321.84   17.22   1
  -1  -7   0  894.61   29.31   1
  -1  -7   0  725.22   28.55   1
  -1  -7   1  743.11   25.08   1
  -1  -7   1  622.00   26.94   1
  -1  -7   2   70.22    8.72   1
  -1  -7   2   89.87    7.96   1
  -1  -7   3 2357.10   77.68   1
  -1  -7   4 6325.02  195.64   1
  -1  -7   5 5112.25  157.30   1
  -1  -7   7 3430.44  108.94   1
  -1  -7   8  415.34   21.20   1
  -1  -7   9 4809.42  152.57   1
  -1  -7  10 1018.89   38.30   1
  -1  -7  11   94.87   19.09   1
  -1  -7  12  534.07   34.20   1
  -1  -6  -3   53.73    9.97   1
  -1  -6  -2   31.47   10.66   1
  -1  -6  -1 3652.99  101.54   1
  -1  -6  -1 2819.61  101.95   1
  -1  -6   0 9510.15  331.57   1
  -1  -6   012385.46  338.32   1
  -1  -6   1 2055.72   72.54   1
  -1  -6   1 2589.79   73.28   1
  -1  -6   2  429.73   17.41   1
  -1  -6   2  498.63   17.42   1
  -1  -6   2  529.46   19.79   1
  -1  -6   3  358.72   15.15   1
  -1  -6   3  465.26   17.69   1
  -1  -6   4 3708.81  104.75   1
  -1  -6   4 2794.18   99.38   1
  -1  -6   5 2614.28   92.03   1
  -1  -6   5 3366.32   98.63   1
  -1  -6   6  701.19   24.89   1
  -1  -6   7  722.00   25.80   1
  -1  -6   9 1456.19   49.61   1
  -1  -6  10  264.06   15.60   1
  -1  -6  11  362.52   19.80   1
  -1  -5  -7  148.35   21.19   1
  -1  -5  -3 3442.17  122.03   1
  -1  -5  -3 4442.22  125.30   1
  -1  -5  -2 6234.68  222.67   1
  -1  -5  -2 8231.93  225.01   1
  -1  -5  -1 2287.71   65.05   1
  -1  -5  -1 1703.21   62.73   1
  -1  -5   0 8074.82  226.45   1
  -1  -5   0 6374.42  223.55   1
  -1  -5   0 7869.46  227.10   1
  -1  -5   0 7025.79  221.28   1
  -1  -5   1 2064.79   74.52   1
  -1  -5   1 2550.25   75.75   1
  -1  -5   1 2578.61   74.14   1
  -1  -5   2 1270.92   45.63   1
  -1  -5   2 1654.05   47.99   1
  -1  -5   3 2496.00   69.94   1
  -1  -5   3 1851.58   67.13   1
  -1  -5   4 1576.88   55.59   1
  -1  -5   4 2027.70   57.64   1
  -1  -5   5 3680.85  103.14   1
  -1  -5   5 2794.18   98.32   1
  -1  -5   6  547.09   22.92   1
  -1  -5   6  746.93   24.05   1
  -1  -5   7  281.57   12.42   1
  -1  -5   8 1415.26   48.15   1
  -1  -5   9  556.49   22.17   1
  -1  -5  10   46.38   12.53   1
  -1  -5  11   20.07    9.77   1
  -1  -5  11    1.80    3.11   1
  -1  -5  12   37.09   12.67   1
  -1  -5  13  826.56   42.55   1
  -1  -4  -8  563.59   34.19   1
  -1  -4  -7  627.00   30.55   1
  -1  -4  -4 3711.25  116.97   1
  -1  -4  -3 3534.30  128.41   1
  -1  -4  -3 4398.34  129.99   1
  -1  -4  -3 4442.22  129.30   1
  -1  -4  -2   56.85    5.58   1
  -1  -4  -2   19.98    9.03   1
  -1  -4  -2   72.42    7.83   1
  -1  -4  -1 1251.74   36.80   1
  -1  -4  -1 1005.52   35.52   1
  -1  -4   013672.62  371.84   1
  -1  -4   010670.89  367.75   1
  -1  -4   1 7247.12  206.01   1
  -1  -4   1 7596.87  205.70   1
  -1  -4   1 6329.79  205.26   1
  -1  -4   1 5876.76  205.45   1
  -1  -4   225692.88  686.04   1
  -1  -4   219577.61  682.81   1
  -1  -4   3 7414.93  201.50   1
  -1  -4   3 5713.85  198.05   1
  -1  -4   410469.38  284.45   1
  -1  -4   4 8211.99  282.73   1
  -1  -4   5 9878.37  351.84   1
  -1  -4   513407.32  354.32   1
  -1  -4   6 2716.49   85.48   1
  -1  -4   7   35.05    5.80   1
  -1  -4   7   45.70   10.14   1
  -1  -4   8 6176.39  190.19   1
  -1  -4  10  190.44   12.14   1
  -1  -4  11  624.00   25.98   1
  -1  -4  12  172.92   16.31   1
  -1  -4  13  565.49   31.87   1
  -1  -3  -9   55.50   13.86   1
  -1  -3  -8  498.18   24.11   1
  -1  -3  -7  509.86   21.68   1
  -1  -3  -6  404.01   19.30   1
  -1  -3  -5   19.27    6.06   1
  -1  -3  -4 1804.55   58.62   1
  -1  -3  -4 1748.08   56.86   1
  -1  -3  -3 5584.57  198.78   1
  -1  -3  -3 7172.40  201.56   1
  -1  -3  -3 6902.29  199.39   1
  -1  -3  -2 2940.89   88.94   1
  -1  -3  -2 2765.71   88.35   1
  -1  -3  -1  187.42    7.67   1
  -1  -3  -1  152.03    7.40   1
  -1  -3  -1  163.58    7.42   1
  -1  -3   0  987.22   30.79   1
  -1  -3   0  799.19   29.40   1
  -1  -3   0 1037.48   30.28   1
  -1  -3   1 3328.14  103.84   1
  -1  -3   1 3048.14  104.90   1
  -1  -3   1 3777.33  105.71   1
  -1  -3   1 3586.81  105.41   1
  -1  -3   235509.63  961.04   1
  -1  -3   227492.96  945.12   1
  -1  -3   3 1653.24   51.23   1
  -1  -3   4   52.56    5.95   1
  -1  -3   4   40.07    4.05   1
  -1  -3   5 2180.89   76.59   1
  -1  -3   5 2794.18   77.18   1
  -1  -3   6 5674.61  198.87   1
  -1  -3   6 7520.36  208.13   1
  -1  -3   7   15.60    7.27   1
  -1  -3   7   32.72    6.41   1
  -1  -3   8 2690.50   84.03   1
  -1  -3   9 6475.42  220.49   1
  -1  -3   9 7818.10  217.51   1
  -1  -3  10  433.06   18.73   1
  -1  -3  11   24.01    9.90   1
  -1  -3  12   63.84   12.62   1
  -1  -3  13  400.80   26.43   1
  -1  -2 -10   31.36   14.34   1
  -1  -2  -9   44.76   17.26   1
  -1  -2  -8 2195.86   79.66   1
  -1  -2  -7 1143.12   39.90   1
  -1  -2  -6  272.58   14.86   1
  -1  -2  -5  707.03   22.87   1
  -1  -2  -5  552.25   23.03   1
  -1  -2  -414879.12  470.84   1
  -1  -2  -416149.33  477.82   1
  -1  -2  -310152.58  320.42   1
  -1  -2  -310978.85  322.72   1
  -1  -2  -2  196.28    8.41   1
  -1  -2  -2  237.47    8.94   1
  -1  -2  -2  223.20    8.07   1
  -1  -2  -1  838.10   26.06   1
  -1  -2  -1  743.65   26.18   1
  -1  -2  -1  896.40   26.95   1
  -1  -2   0 5673.10  171.73   1
  -1  -2   0 5109.39  171.55   1
  -1  -2   0 6203.14  171.70   1
  -1  -2   117453.05  576.00   1
  -1  -2   118523.21  574.34   1
  -1  -2   120620.96  583.02   1
  -1  -2   119507.71  575.44   1
  -1  -2   2 7349.63  224.61   1
  -1  -2   3  627.50   19.04   1
  -1  -2   3  518.47   18.67   1
  -1  -2   4 2872.96   98.62   1
  -1  -2   4 3627.65  103.60   1
  -1  -2   530296.88  821.56   1
  -1  -2   523947.56  817.08   1
  -1  -2   6  342.25   14.06   1
  -1  -2   6  276.56   12.64   1
  -1  -2   7 4697.73  167.24   1
  -1  -2   7 6385.61  172.61   1
  -1  -2   8 1521.00   46.02   1
  -1  -2   8 1184.74   43.37   1
  -1  -2   9 2104.06   67.89   1
  -1  -2  10 1621.67   54.77   1
  -1  -2  11 2639.90   88.37   1
  -1  -2  12  107.54   14.10   1
  -1  -1 -11  761.76   48.02   1
  -1  -1 -10  404.81   25.35   1
  -1  -1  -9   15.21   14.12   1
  -1  -1  -8 1220.80   44.72   1
  -1  -1  -7  380.64   16.39   1
  -1  -1  -6 9684.53  328.69   1
  -1  -1  -611657.52  328.23   1
  -1  -1  -5 3613.21  127.43   1
  -1  -1  -5 4584.64  125.94   1
  -1  -1  -4 3668.72  104.18   1
  -1  -1  -4 3032.70  104.63   1
  -1  -1  -3  553.19   18.35   1
  -1  -1  -2  586.12   16.95   1
  -1  -1  -2  445.21   17.72   1
  -1  -1  -138765.67 1244.34   1
  -1  -1  -140445.23 1250.90   1
  -1  -1  -144596.99 1245.96   1
  -1  -1   012441.17  388.16   1
  -1  -1   013825.06  390.37   1
  -1  -1   012365.44  389.20   1
  -1  -1   2 1279.49   37.20   1
  -1  -1   2 1110.89   36.66   1
  -1  -1   3  326.16   11.92   1
  -1  -1   3  389.67   12.63   1
  -1  -1   411560.55  313.96   1
  -1  -1   4 9103.07  312.94   1
  -1  -1   5 8624.84  299.04   1
  -1  -1   511075.46  298.88   1
  -1  -1   6 3953.89  110.67   1
  -1  -1   6 3021.70  107.74   1
  -1  -1   6 3564.09  107.46   1
  -1  -1   7    6.20    4.58   1
  -1  -1   7    4.00    5.52   1
  -1  -1   8  224.40   10.79   1
  -1  -1   9 2896.59   93.65   1
  -1  -1  10   25.50    8.59   1
  -1  -1  11   93.32   15.26   1
  -1  -1  12    2.89   12.27   1
  -1   0 -11   33.41   18.15   1
  -1   0 -10   45.70   10.95   1
  -1   0  -9   44.76    9.23   1
  -1   0  -8 1437.93   50.05   1
  -1   0  -7   16.56    5.62   1
  -1   0  -7   15.60    6.64   1
  -1   0  -6 1177.18   39.11   1
  -1   0  -5  254.08    9.56   1
  -1   0  -5  207.07    9.21   1
  -1   0  -413940.52  427.41   1
  -1   0  -310318.50  343.34   1
  -1   0  -312407.73  345.31   1
  -1   0  -246664.64 1317.72   1
  -1   0  -240703.06 1323.48   1
  -1   0  -1  830.59   25.94   1
  -1   0   123000.76  731.00   1
  -1   0   125500.90  731.38   1
  -1   0   2 6331.38  203.70   1
  -1   0   2 7029.15  202.89   1
  -1   0   3 1193.70   37.31   1
  -1   0   3 1080.44   36.16   1
  -1   0   3 1222.20   36.36   1
  -1   0   4 8035.33  252.78   1
  -1   0   4 8686.24  255.37   1
  -1   0   9 2359.04   76.74   1
  -1   0  11   22.00   11.63   1
  -1   0  12   -6.60   13.31   1
  -1   1 -12   35.64   13.97   1
  -1   1 -11  857.32   42.75   1
  -1   1 -10 1214.52   43.91   1
  -1   1  -9  146.89   11.15   1
  -1   1  -8 2623.49   85.03   1
  -1   1  -7 2274.34   73.44   1
  -1   1  -6 2379.49   77.07   1
  -1   1  -5  192.93    8.89   1
  -1   1  -4 1433.38   42.40   1
  -1   1  -4 1316.24   44.26   1
  -1   1  -3 3901.25  113.68   1
  -1   1  -3 3567.67  115.88   1
  -1   1  -237542.93 1135.43   1
  -1   1  -1  675.48   20.27   1
  -1   1  -1  605.65   20.18   1
  -1   1  -1  662.03   20.07   1
  -1   1   141734.40 1258.43   1
  -1   1   221544.37  648.77   1
  -1   1   3 1797.76   55.97   1
  -1   1   4 5896.70  179.69   1
  -1   2 -12  133.40   16.86   1
  -1   2 -11  801.46   37.94   1
  -1   2 -10  224.40   14.98   1
  -1   2  -9  157.50   11.55   1
  -1   2  -8  908.42   33.15   1
  -1   2  -7  665.64   23.74   1
  -1   2  -6 1423.55   46.03   1
  -1   2  -5 1029.13   34.00   1
  -1   2  -4 5565.16  171.58   1
  -1   2  -317158.38  482.04   1
  -1   2  -314527.48  479.71   1
  -1   2  -224649.00  700.22   1
  -1   2  -221732.66  701.72   1
  -1   2  -142915.27 1363.11   1
  -1   2  -148567.35 1366.36   1
  -1   2  -144058.01 1360.15   1
  -1   2   0  707.56   22.34   1
  -1   2   0  777.29   22.86   1
  -1   2   0  684.35   22.50   1
  -1   2   0  713.96   22.44   1
  -1   2   112699.04  351.59   1
  -1   2   111346.51  351.52   1
  -1   2   110863.89  352.30   1
  -1   2   2 2620.42   75.76   1
  -1   2   2 2127.98   71.96   1
  -1   2   3 8637.84  295.55   1
  -1   2   310857.64  298.01   1
  -1   2   4 7717.62  210.84   1
  -1   2   4 6107.42  209.44   1
  -1   2   5 4644.42  126.76   1
  -1   2   5 3525.98  127.07   1
  -1   2   6 4727.94  148.52   1
  -1   3 -12 1132.32   53.84   1
  -1   3 -11  246.80   16.65   1
  -1   3 -10  456.25   20.51   1
  -1   3  -9 2273.38   73.43   1
  -1   3  -8  231.65   11.57   1
  -1   3  -7 5972.20  182.38   1
  -1   3  -611511.14  351.91   1
  -1   3  -5 5408.13  148.55   1
  -1   3  -5 4256.26  148.75   1
  -1   3  -4 3547.39   97.68   1
  -1   3  -4 2795.24   97.28   1
  -1   3  -3 6642.25  223.31   1
  -1   3  -3 8017.41  223.85   1
  -1   3  -211212.69  311.32   1
  -1   3  -2 9237.13  311.40   1
  -1   3  -1  181.71    7.01   1
  -1   3  -1  163.33    7.67   1
  -1   3  -1  201.92    6.82   1
  -1   3   0  650.25   22.44   1
  -1   3   0  648.21   22.40   1
  -1   3   0  728.46   22.13   1
  -1   3   0  772.28   22.23   1
  -1   3   130425.82  910.52   1
  -1   3   129967.07  914.02   1
  -1   3   215445.52  425.04   1
  -1   3   212530.56  423.13   1
  -1   3   3  422.71   15.63   1
  -1   3   3  481.80   15.80   1
  -1   3   4    0.90    5.91   1
  -1   3   5 4410.29  126.18   1
  -1   3   5 3524.80  122.30   1
  -1   4 -13   73.62   17.33   1
  -1   4 -12  419.43   27.03   1
  -1   4 -11 1147.18   47.42   1
  -1   4 -10 1423.55   52.82   1
  -1   4  -9   29.27    8.01   1
  -1   4  -8 1296.72   43.93   1
  -1   4  -7  600.74   24.02   1
  -1   4  -7  783.44   25.75   1
  -1   4  -6 2429.50   86.75   1
  -1   4  -6 3056.98   87.36   1
  -1   4  -5 8597.00  235.51   1
  -1   4  -5 6768.35  238.58   1
  -1   4  -4   19.62    4.34   1
  -1   4  -3 2347.40   80.43   1
  -1   4  -3 2923.56   81.10   1
  -1   4  -2   94.87    6.43   1
  -1   4  -2   95.65    4.69   1
  -1   4  -1  693.80   25.81   1
  -1   4  -1  832.90   25.97   1
  -1   4  -1  684.87   24.08   1
  -1   4  -1  741.47   22.87   1
  -1   4   0 1046.52   30.41   1
  -1   4   0  846.23   29.67   1
  -1   4   119974.17  678.38   1
  -1   4   125068.39  683.99   1
  -1   4   2   23.62    6.12   1
  -1   4   2   33.99    5.25   1
  -1   4   3  222.31   11.63   1
  -1   4   3  167.44    8.80   1
  -1   4   4  937.58   34.29   1
  -1   4   4  813.96   31.38   1
  -1   4   4 1118.90   34.79   1
  -1   4   5  851.47   29.76   1
  -1   4   6 2573.53   83.20   1
  -1   5 -12  280.56   20.10   1
  -1   5 -11  879.72   36.78   1
  -1   5 -10 2699.84   88.33   1
  -1   5  -9   10.63    8.22   1
  -1   5  -8  348.57   16.80   1
  -1   5  -7 6401.60  176.02   1
  -1   5  -7 4837.20  176.66   1
  -1   5  -610644.05  377.60   1
  -1   5  -614325.70  383.01   1
  -1   5  -5 8337.52  299.50   1
  -1   5  -510857.64  295.93   1
  -1   5  -4   46.10    6.11   1
  -1   5  -4   54.17    6.92   1
  -1   5  -3 6269.47  204.28   1
  -1   5  -3 6041.95  205.21   1
  -1   5  -3 7694.80  205.26   1
  -1   5  -213146.92  447.17   1
  -1   5  -213700.70  442.45   1
  -1   5  -216996.34  445.87   1
  -1   5  -1   76.74    7.36   1
  -1   5  -1   79.92    6.79   1
  -1   5  -1   74.82    5.36   1
  -1   5   0  940.04   33.11   1
  -1   5   0  925.38   32.85   1
  -1   5   0 1229.90   33.67   1
  -1   5   1 9670.75  324.52   1
  -1   5   112365.44  324.70   1
  -1   5   1 9680.59  326.65   1
  -1   5   2  605.65   19.20   1
  -1   5   2  423.12   18.51   1
  -1   5   2  455.40   17.50   1
  -1   5   3 2208.06   64.85   1
  -1   5   3 1710.65   63.69   1
  -1   5   4  106.92   11.79   1
  -1   5   4   94.09    8.15   1
  -1   5   5  919.30   32.75   1
  -1   5   6 1616.04   54.67   1
  -1   6 -12   -0.10   18.11   1
  -1   6 -11    9.49   10.90   1
  -1   6 -10  763.97   34.27   1
  -1   6  -9  114.49   13.27   1
  -1   6  -8   27.25    7.52   1
  -1   6  -7 2802.64   82.59   1
  -1   6  -7 2179.02   81.22   1
  -1   6  -6 3881.29  109.65   1
  -1   6  -6 3019.50  108.80   1
  -1   6  -5  214.62   12.31   1
  -1   6  -5  267.32   13.73   1
  -1   6  -4 1712.30   62.07   1
  -1   6  -4 1841.27   60.93   1
  -1   6  -4 2214.64   61.18   1
  -1   6  -3 3241.02   85.40   1
  -1   6  -3 2509.01   85.15   1
  -1   6  -3 2421.62   86.61   1
  -1   6  -211299.69  365.67   1
  -1   6  -214020.93  364.70   1
  -1   6  -210712.25  364.32   1
  -1   6  -1 6115.24  209.58   1
  -1   6  -1 6245.74  214.96   1
  -1   6  -1 8222.86  214.00   1
  -1   6   0 5304.21  139.83   1
  -1   6   0 4103.68  139.65   1
  -1   6   0 3977.82  137.49   1
  -1   6   1 7024.12  187.73   1
  -1   6   1 5291.11  180.40   1
  -1   6   1 5374.36  180.34   1
  -1   6   2 1587.23   54.18   1
  -1   6   2 1535.07   50.15   1
  -1   6   3  529.00   20.24   1
  -1   6   4  720.92   27.39   1
  -1   6   5  329.42   16.33   1
  -1   6   6 1434.89   62.88   1
  -1   7 -12  142.32   17.66   1
  -1   7 -11  158.76   15.37   1
  -1   7 -10 2180.89   75.65   1
  -1   7  -9  834.63   34.67   1
  -1   7  -8    8.88    8.70   1
  -1   7  -7 2057.53   68.95   1
  -1   7  -6 2971.34  101.39   1
  -1   7  -6 3132.64   97.39   1
  -1   7  -5  739.30   28.82   1
  -1   7  -5  889.83   30.43   1
  -1   7  -5  746.38   26.77   1
  -1   7  -4  476.11   19.64   1
  -1   7  -4  454.97   17.92   1
  -1   7  -4  639.58   22.26   1
  -1   7  -3 1514.77   52.93   1
  -1   7  -3 1465.36   52.83   1
  -1   7  -3 2003.46   56.40   1
  -1   7  -218479.68  492.10   1
  -1   7  -213628.23  485.64   1
  -1   7  -1 5527.92  187.36   1
  -1   7  -1 7250.52  194.14   1
  -1   7  -1 5677.62  189.88   1
  -1   7   0    2.59    5.70   1
  -1   7   1   21.72    8.02   1
  -1   7   1   39.31    8.90   1
  -1   7   2 4564.35  144.58   1
  -1   7   3 3844.00  122.76   1
  -1   7   4  694.85   29.52   1
  -1   7   5  618.02   34.80   1
  -1   7   5  551.78   29.13   1
  -1   8 -11  799.76   42.42   1
  -1   8 -10   50.55   18.06   1
  -1   8  -9  690.64   28.38   1
  -1   8  -8   88.74   12.06   1
  -1   8  -7 3935.05  144.28   1
  -1   8  -7 4544.11  136.17   1
  -1   8  -6 4926.64  151.61   1
  -1   8  -6 4732.06  154.09   1
  -1   8  -5 1588.82   56.60   1
  -1   8  -5 1676.08   54.04   1
  -1   8  -4  310.46   14.10   1
  -1   8  -4  284.93   15.53   1
  -1   8  -3  266.02   16.64   1
  -1   8  -3  262.76   11.67   1
  -1   8  -2 1179.92   42.59   1
  -1   8  -2 1204.78   39.57   1
  -1   8  -1   64.16    7.37   1
  -1   8  -1   41.99   12.31   1
  -1   8   0   28.94    7.53   1
  -1   8   0   28.52   12.82   1
  -1   8   1  236.85   12.93   1
  -1   8   1  245.55   15.04   1
  -1   8   2  662.03   26.76   1
  -1   8   3  861.42   39.92   1
  -1   8   4  445.21   27.01   1
  -1   9 -11   57.91   22.07   1
  -1   9 -10  886.25   44.65   1
  -1   9  -9  553.66   27.29   1
  -1   9  -9  504.00   32.78   1
  -1   9  -8  815.67   37.13   1
  -1   9  -8  744.20   28.92   1
  -1   9  -7    2.31   12.04   1
  -1   9  -7    7.67    7.59   1
  -1   9  -6 1613.63   51.42   1
  -1   9  -6 1467.66   57.47   1
  -1   9  -5  810.54   32.46   1
  -1   9  -4   -1.49    6.78   1
  -1   9  -4    8.12   10.03   1
  -1   9  -3  382.20   19.94   1
  -1   9  -3  374.42   17.41   1
  -1   9  -2  936.97   33.67   1
  -1   9  -2  860.84   33.45   1
  -1   9  -1  992.88   44.11   1
  -1   9  -1 1145.82   39.27   1
  -1   9   0  351.19   21.36   1
  -1   9   0  338.93   19.51   1
  -1   9   1  234.09   18.67   1
  -1   9   2 1138.39   51.96   1
  -1  10  -9  637.56   32.32   1
  -1  10  -9  650.25   36.21   1
  -1  10  -8  516.20   34.53   1
  -1  10  -8  645.67   44.21   1
  -1  10  -7 1480.71   60.80   1
  -1  10  -7 1182.67   64.65   1
  -1  10  -6 1966.04   80.70   1
  -1  10  -6 1793.52   83.85   1
  -1  10  -5 1496.92   70.42   1
  -1  10  -5 1629.74   67.82   1
  -1  10  -4  191.55   20.76   1
  -1  10  -4  159.01   14.88   1
  -1  10  -3  319.34   17.87   1
  -1  10  -3  297.56   20.70   1
  -1  10  -2 1676.90   72.89   1
  -1  10  -2 1667.91   77.60   1
  -1  10  -1 1229.20   63.11   1
  -1  10  -1 1289.53   57.46   1
  -1  10   0  155.50   14.22   1
  -1  10   0  177.16   23.69   1
   0 -10   1   42.64   15.15   1
   0 -10   2  853.81   44.41   1
   0 -10   3 3020.60  126.41   1
   0 -10   4  869.07   41.27   1
   0 -10   5   48.30   18.76   1
   0 -10   6  400.40   24.81   1
   0 -10   7 2025.90   87.32   1
   0 -10   8 1265.94   62.62   1
   0 -10   9   64.32   22.46   1
   0  -9  -2 1201.32   58.23   1
   0  -9  -1 1215.22   55.78   1
   0  -9   0  745.84   39.33   1
   0  -9   1 1084.38   42.15   1
   0  -9   2 1796.91   61.04   1
   0  -9   3 1790.98   60.94   1
   0  -9   4   40.70   10.59   1
   0  -9   5  -18.84   10.85   1
   0  -9   6 1479.94   51.55   1
   0  -9   7 4773.43  150.62   1
   0  -9   8 1984.70   86.43   1
   0  -9  10  148.60   20.48   1
   0  -8  -3   35.40   15.11   1
   0  -8  -2  465.70   22.87   1
   0  -8  -1  478.73   21.44   1
   0  -8   0  815.67   30.84   1
   0  -8   1  657.92   28.22   1
   0  -8   1  856.15   30.43   1
   0  -8   2 1676.90   55.69   1
   0  -8   3 5647.52  175.85   1
   0  -8   4  612.56   24.75   1
   0  -8   5   64.64    9.97   1
   0  -8   6  114.06   10.89   1
   0  -8   8  189.06   14.30   1
   0  -8   9   79.74   11.79   1
   0  -8  10  330.88   21.46   1
   0  -8  11 2178.09   97.07   1
   0  -7  -3  535.46   26.38   1
   0  -7  -2 1994.52   72.35   1
   0  -7  -2 2316.50   66.42   1
   0  -7  -1   19.71    8.97   1
   0  -7   0  122.10   10.17   1
   0  -7   0  132.48   11.28   1
   0  -7   1 1054.95   33.13   1
   0  -7   1  812.82   31.36   1
   0  -7   2 2235.40   72.81   1
   0  -7   3 6907.27  211.10   1
   0  -7   4 3489.26  107.51   1
   0  -7   5  298.94   15.22   1
   0  -7   6  310.46   16.56   1
   0  -7   8 3116.99   99.38   1
   0  -7   9  -12.11    9.60   1
   0  -7  11   46.92   17.54   1
   0  -7  11   33.41    5.66   1
   0  -7  12   16.89   20.63   1
   0  -6  -7   28.09   16.22   1
   0  -6  -3  613.55   27.25   1
   0  -6  -3  797.50   23.72   1
   0  -6  -2 1422.80   43.00   1
   0  -6  -2 1024.64   40.33   1
   0  -6  -110598.70  294.44   1
   0  -6  -1 8277.36  289.32   1
   0  -6   011633.78  416.34   1
   0  -6   015585.02  416.97   1
   0  -6   1   19.18    8.41   1
   0  -6   1   10.18    5.10   1
   0  -6   1    1.49    6.78   1
   0  -6   2 1313.34   39.86   1
   0  -6   2 1103.57   38.54   1
   0  -6   3 2343.53   83.27   1
   0  -6   3 3074.70   86.50   1
   0  -6   4  948.64   35.73   1
   0  -6   4 1145.82   36.56   1
   0  -6   5   -5.29    9.98   1
   0  -6   5    2.59    5.70   1
   0  -6   6    4.28    6.00   1
   0  -6   7 1210.34   41.75   1
   0  -6   8 6193.69  193.60   1
   0  -6   9    7.90    8.37   1
   0  -6  10  300.33   15.94   1
   0  -6  11   52.71   10.45   1
   0  -6  11   31.36    4.93   1
   0  -6  12  113.42   14.91   1
   0  -5  -8  393.23   19.83   1
   0  -5  -8  367.49   24.92   1
   0  -5  -7  329.06   22.86   1
   0  -5  -3  618.52   21.89   1
   0  -5  -3  548.50   22.48   1
   0  -5  -2  672.36   25.93   1
   0  -5  -2  835.79   26.60   1
   0  -5  -2  812.82   27.94   1
   0  -5  -1 9306.46  329.93   1
   0  -5  -112285.50  332.52   1
   0  -5  -110951.62  328.60   1
   0  -5   023796.15  669.49   1
   0  -5   024273.64  669.94   1
   0  -5   017993.54  662.65   1
   0  -5   1 9938.10  277.14   1
   0  -5   1 9543.34  275.49   1
   0  -5   1 7382.25  269.79   1
   0  -5   2 1743.06   49.26   1
   0  -5   2 1318.42   47.93   1
   0  -5   3   12.18    7.26   1
   0  -5   3   16.48    4.47   1
   0  -5   412003.39  326.49   1
   0  -5   4 9168.06  319.80   1
   0  -5   5  454.54   17.91   1
   0  -5   5  596.34   19.54   1
   0  -5   6  751.86   25.23   1
   0  -5   6  563.11   23.26   1
   0  -5   7 3112.52   88.15   1
   0  -5   7 2347.40   84.30   1
   0  -5   8 5969.11  183.88   1
   0  -5   9   16.97    8.32   1
   0  -5  10  256.00   14.72   1
   0  -5  10  304.85   11.52   1
   0  -5  11  605.65   25.10   1
   0  -5  12  763.42   38.68   1
   0  -5  13  371.72   28.53   1
   0  -4  -9  662.03   40.65   1
   0  -4  -8   71.57   13.03   1
   0  -4  -8   70.56    8.06   1
   0  -4  -7  206.78   13.80   1
   0  -4  -4 3201.30  104.11   1
   0  -4  -4 3230.79  101.18   1
   0  -4  -3  520.30   17.34   1
   0  -4  -3  525.33   19.25   1
   0  -4  -3  392.44   16.64   1
   0  -4  -2 2930.06  109.34   1
   0  -4  -2 3815.53  111.19   1
   0  -4  -2 3990.45  109.92   1
   0  -4  -1 4329.64  125.02   1
   0  -4  -1 3414.06  122.70   1
   0  -4  -1 4122.92  122.00   1
   0  -4   0 6099.61  217.12   1
   0  -4   0 7610.82  219.84   1
   0  -4   0 7779.24  218.74   1
   0  -4   1   65.45    4.85   1
   0  -4   1   81.54    5.06   1
   0  -4   1   69.22    6.82   1
   0  -4   2 3871.33  108.26   1
   0  -4   2 3194.51  107.39   1
   0  -4   311010.30  373.55   1
   0  -4   313745.22  375.17   1
   0  -4   413926.36  377.63   1
   0  -4   410807.68  372.18   1
   0  -4   5  161.80    8.65   1
   0  -4   5  180.36    8.60   1
   0  -4   6 4291.56  149.36   1
   0  -4   6 5563.67  152.16   1
   0  -4   710146.53  362.63   1
   0  -4   713964.15  371.05   1
   0  -4   812895.87  392.92   1
   0  -4   9  164.61    5.90   1
   0  -4   9  109.20    9.82   1
   0  -4  10   42.25    8.71   1
   0  -4  11  227.71   14.79   1
   0  -4  12  726.30   39.35   1
   0  -4  13  348.57   28.01   1
   0  -3 -10  138.77   17.43   1
   0  -3  -9  109.41   14.64   1
   0  -3  -8   82.63   14.00   1
   0  -3  -8   69.06    5.15   1
   0  -3  -7   77.26    9.49   1
   0  -3  -7   70.39    4.87   1
   0  -3  -6  725.22   27.47   1
   0  -3  -5 2310.72   79.80   1
   0  -3  -5 2358.07   73.81   1
   0  -3  -4 1649.98   52.81   1
   0  -3  -4 1703.21   54.48   1
   0  -3  -3 5387.56  164.42   1
   0  -3  -2 1386.82   49.90   1
   0  -3  -2 1748.08   51.84   1
   0  -3  -2 1706.52   50.40   1
   0  -3  -1  329.42   11.25   1
   0  -3  -1  245.86   10.66   1
   0  -3  -1  359.10   11.75   1
   0  -3   012241.21  416.01   1
   0  -3   015346.25  416.24   1
   0  -3   1 3284.44   96.28   1
   0  -3   1 3314.30   97.87   1
   0  -3   1 2805.82   97.46   1
   0  -3   2 2918.16   98.32   1
   0  -3   2 3592.80  100.70   1
   0  -3   3 7262.45  197.71   1
   0  -3   3 5760.81  198.86   1
   0  -3   4 5803.39  161.50   1
   0  -3   4 4718.32  159.36   1
   0  -3   5   68.06    4.95   1
   0  -3   5   95.06    7.41   1
   0  -3   6   23.33    5.31   1
   0  -3   6   11.22    4.29   1
   0  -3   7  185.78    9.54   1
   0  -3   7  255.68   11.19   1
   0  -3   8 5221.51  174.87   1
   0  -3   8 6196.84  174.76   1
   0  -3   9  301.37   15.62   1
   0  -3  10  385.34   17.27   1
   0  -3  11 1690.85   60.04   1
   0  -3  12  966.59   47.26   1
   0  -3  13   93.32   16.04   1
   0  -2 -10  615.04   33.23   1
   0  -2  -9 1865.38   64.78   1
   0  -2  -8 2402.96   68.63   1
   0  -2  -8 1982.92   74.81   1
   0  -2  -7  294.47   15.44   1
   0  -2  -7  301.37   10.76   1
   0  -2  -6 3668.72  109.03   1
   0  -2  -6 3042.63  103.70   1
   0  -2  -5 2378.51   85.84   1
   0  -2  -5 3056.98   86.25   1
   0  -2  -415530.15  468.57   1
   0  -2  -3 9658.96  290.91   1
   0  -2  -3 9471.18  290.01   1
   0  -2  -2   17.64    2.69   1
   0  -2  -2   16.73    3.27   1
   0  -2  -2    7.67    2.77   1
   0  -2  -1  420.66   14.77   1
   0  -2  -1  474.80   14.82   1
   0  -2  -1  455.40   14.51   1
   0  -2   030331.71  985.75   1
   0  -2   034343.50  985.90   1
   0  -2   033091.25  982.31   1
   0  -2   1 5875.22  188.56   1
   0  -2   1 6603.19  190.15   1
   0  -2   2 1972.25   63.95   1
   0  -2   2 2188.37   64.56   1
   0  -2   313135.45  428.64   1
   0  -2   315254.72  432.29   1
   0  -2   4 5972.20  197.84   1
   0  -2   4 7136.87  201.06   1
   0  -2   5 4018.29  138.19   1
   0  -2   5 5083.69  139.75   1
   0  -2   6  292.07   11.28   1
   0  -2   6  285.95    8.45   1
   0  -2   6  216.09   10.29   1
   0  -2   7   39.19    8.14   1
   0  -2   7   41.34    5.14   1
   0  -2   8 3553.35  113.26   1
   0  -2   9   87.98   10.88   1
   0  -2  10  148.11   11.44   1
   0  -2  11  166.93   13.18   1
   0  -2  12 1160.08   57.22   1
   0  -1 -11  225.90   20.44   1
   0  -1 -10   17.31   11.40   1
   0  -1  -9  179.29   12.59   1
   0  -1  -8 1221.50   41.94   1
   0  -1  -7    9.49    1.60   1
   0  -1  -7    5.02    8.20   1
   0  -1  -6  657.41   22.56   1
   0  -1  -6  532.69   18.46   1
   0  -1  -6  504.00   21.10   1
   0  -1  -6  622.50   21.46   1
   0  -1  -5 6328.20  176.60   1
   0  -1  -5 5152.37  175.14   1
   0  -1  -418490.56  516.72   1
   0  -1  -417646.46  512.76   1
   0  -1  -414857.17  516.81   1
   0  -1  -3   50.55    3.56   1
   0  -1  -3   44.76    4.55   1
   0  -1  -1 2270.52   73.38   1
   0  -1  -1 2522.05   74.33   1
   0  -1  -1 2408.85   73.62   1
   0  -1   016478.86  436.46   1
   0  -1   011500.42  437.54   1
   0  -1   015217.69  434.23   1
   0  -1   1 1231.31   37.20   1
   0  -1   1 1163.49   36.84   1
   0  -1   2 2047.56   60.64   1
   0  -1   2 1813.91   58.77   1
   0  -1   3  195.72    7.55   1
   0  -1   3  235.01    7.97   1
   0  -1   4 4116.51  141.15   1
   0  -1   4 5132.29  141.85   1
   0  -1   5 4795.56  134.35   1
   0  -1   5 3925.02  132.82   1
   0  -1   6   40.45    5.34   1
   0  -1   6   28.62    4.39   1
   0  -1   7 1480.71   53.87   1
   0  -1   7 1950.11   57.41   1
   0  -1   8 2904.13   92.69   1
   0  -1  10  347.82   19.02   1
   0  -1  11    7.62    9.83   1
   0  -1  12  126.34   15.96   1
   0   0 -12  263.74   26.63   1
   0   0 -11   24.21   11.91   1
   0   0 -10  261.47   15.20   1
   0   0  -9 1730.56   62.40   1
   0   0  -8 2657.40   87.64   1
   0   0  -7 1486.10   55.51   1
   0   0  -7 1982.03   56.99   1
   0   0  -6 5356.78  187.37   1
   0   0  -6 6923.90  189.72   1
   0   0  -5 3048.14   87.23   1
   0   0  -5 2421.62   83.66   1
   0   0  -4 2476.06   73.64   1
   0   0  -4 2280.06   69.72   1
   0   0  -4 2112.32   70.78   1
   0   0  -3  562.16   18.49   1
   0   0  -210604.88  321.30   1
   0   0  -1 4359.96  138.66   1
   0   0   1 7334.21  227.80   1
   0   0   211562.70  350.55   1
   0   0   3  682.78   21.95   1
   0   0   4 2562.38   79.98   1
   0   0   5 3011.81   94.39   1
   0   0  12  268.96   20.99   1
   0   1 -12  101.20   19.72   1
   0   1 -11   19.54   11.05   1
   0   1 -10  335.99   17.23   1
   0   1  -9  624.00   24.98   1
   0   1  -8 3797.02  109.68   1
   0   1  -8 3010.72  105.35   1
   0   1  -7 1595.20   55.92   1
   0   1  -7 1857.61   56.89   1
   0   1  -6   29.38    5.75   1
   0   1  -5 3781.02  119.29   1
   0   1  -4 4195.15  129.54   1
   0   1  -3  189.61    7.16   1
   0   1  -2 1861.06   57.81   1
   0   1  -1  997.93   31.59   1
   0   1   013128.58  417.07   1
   0   1   012367.66  418.15   1
   0   1   015690.07  415.86   1
   0   1   1 2205.24   72.32   1
   0   1   1 2476.06   71.65   1
   0   1   2 3826.66  103.92   1
   0   1   2 3157.32  103.39   1
   0   1   2 3164.06  102.38   1
   0   2 -12 1229.20   60.30   1
   0   2 -11  132.02   13.56   1
   0   2 -10  153.02   14.60   1
   0   2  -9   59.14    8.46   1
   0   2  -8 3298.20  107.97   1
   0   2  -7   41.86    7.38   1
   0   2  -6  244.92   10.64   1
   0   2  -5 3981.61  122.41   1
   0   2  -4 5990.76  201.24   1
   0   2  -4 7272.68  204.67   1
   0   2  -314854.73  416.83   1
   0   2  -312674.26  416.55   1
   0   2  -2 2212.76   63.97   1
   0   2  -2 1962.49   63.79   1
   0   2  -1 5774.48  191.49   1
   0   2  -1 6041.95  188.11   1
   0   2  -1 6761.77  189.13   1
   0   2   033892.81  942.59   1
   0   2   029604.64  939.45   1
   0   2   029908.24  940.79   1
   0   2   1  398.40   13.97   1
   0   2   1  403.61   14.06   1
   0   2   1  490.18   14.17   1
   0   2   2   15.60    3.24   1
   0   2   2   15.52    2.60   1
   0   2   3 9789.12  261.20   1
   0   2   3 7402.88  259.84   1
   0   2   412374.34  427.16   1
   0   2   415820.61  427.65   1
   0   2   5 3032.70   94.72   1
   0   2   6 3777.33  120.46   1
   0   3 -13  104.45   23.30   1
   0   3 -12  827.14   41.41   1
   0   3 -11 1736.39   60.00   1
   0   3 -10  376.36   17.85   1
   0   3  -9  300.68   14.57   1
   0   3  -8 5231.63  163.47   1
   0   3  -7  167.44    8.54   1
   0   3  -6   17.64    4.79   1
   0   3  -6   16.16    7.08   1
   0   3  -5   80.28    5.73   1
   0   3  -5   70.22    6.37   1
   0   3  -4 5930.54  161.72   1
   0   3  -4 4641.70  162.15   1
   0   3  -3 7069.45  195.07   1
   0   3  -3 5786.65  196.26   1
   0   3  -2 2961.54   94.69   1
   0   3  -2 3510.56   94.80   1
   0   3  -2 2805.82   95.35   1
   0   3  -1 2825.99   90.37   1
   0   3  -1 2667.72   90.90   1
   0   3  -1 3352.41   92.64   1
   0   3   014827.93  414.02   1
   0   3   012526.09  414.10   1
   0   3   1  275.89    9.97   1
   0   3   1  324.00   10.80   1
   0   3   1  273.57   10.92   1
   0   3   2 1800.30   48.37   1
   0   3   2 1391.29   49.24   1
   0   3   2 1395.02   50.05   1
   0   3   3 4084.49  143.16   1
   0   3   3 5336.30  144.64   1
   0   3   4 1356.45   49.35   1
   0   3   4 1688.39   50.13   1
   0   3   5 2337.72   77.36   1
   0   4 -13  329.79   26.51   1
   0   4 -12  678.60   37.51   1
   0   4 -11  234.09   18.05   1
   0   4 -10   19.89    8.92   1
   0   4  -9  134.10   12.97   1
   0   4  -813011.96  396.96   1
   0   4  -710318.50  367.72   1
   0   4  -713876.84  372.25   1
   0   4  -6 4268.01  155.49   1
   0   4  -6 5557.70  150.59   1
   0   4  -5  201.07    8.51   1
   0   4  -5  148.84    7.81   1
   0   4  -414304.16  387.50   1
   0   4  -410924.43  382.54   1
   0   4  -310670.89  365.68   1
   0   4  -313853.29  367.22   1
   0   4  -311661.84  371.49   1
   0   4  -2 3971.52  107.13   1
   0   4  -2 3200.16  108.61   1
   0   4  -2 3332.75  106.22   1
   0   4  -1   65.12    4.84   1
   0   4  -1   75.52    4.00   1
   0   4  -1   92.16    6.91   1
   0   4   0 6115.24  203.32   1
   0   4   0 7823.40  203.43   1
   0   4   0 6102.73  203.11   1
   0   4   1 3372.12  112.66   1
   0   4   1 4308.61  114.21   1
   0   4   1 3222.83  111.27   1
   0   4   2 2900.90   99.10   1
   0   4   2 2961.54  101.22   1
   0   4   2 3901.25  101.19   1
   0   4   3  513.93   19.50   1
   0   4   3  451.99   18.28   1
   0   4   3  384.16   15.68   1
   0   4   4 3161.81   89.97   1
   0   4   4 2414.74   86.49   1
   0   4   6    7.40   11.59   1
   0   5 -13  333.06   24.82   1
   0   5 -12  730.08   38.37   1
   0   5 -11  616.03   26.81   1
   0   5 -10  231.95   16.45   1
   0   5  -9   55.06    9.35   1
   0   5  -8 6012.45  195.40   1
   0   5  -7 2315.53   82.77   1
   0   5  -7 3026.10   84.72   1
   0   5  -6  587.58   22.79   1
   0   5  -6  730.62   23.79   1
   0   5  -5  576.00   19.20   1
   0   5  -5  465.70   18.99   1
   0   5  -4 9168.06  314.06   1
   0   5  -4 9826.76  311.27   1
   0   5  -411787.45  312.68   1
   0   5  -3    8.88    5.07   1
   0   5  -3   14.82    4.62   1
   0   5  -3   17.31    1.91   1
   0   5  -3    7.51    3.89   1
   0   5  -2 1743.06   48.43   1
   0   5  -2 1350.56   45.57   1
   0   5  -2 1290.25   45.98   1
   0   5  -1 7425.27  224.04   1
   0   5  -1 7270.97  228.52   1
   0   5   017774.22  626.60   1
   0   5   023565.32  626.32   1
   0   5   112100.00  310.20   1
   0   5   1 9059.23  306.48   1
   0   5   1 9210.24  307.10   1
   0   5   2  833.48   25.98   1
   0   5   2  605.65   25.10   1
   0   5   2  621.01   22.93   1
   0   5   3  480.92   19.30   1
   0   5   4  159.01   11.60   1
   0   5   6  794.68   33.83   1
   0   6 -12   94.09   15.13   1
   0   6 -11   41.86   15.40   1
   0   6 -10  306.25   19.25   1
   0   6  -9   42.77    9.16   1
   0   6  -8 6107.42  192.25   1
   0   6  -7 1132.32   41.05   1
   0   6  -6    1.69    6.08   1
   0   6  -6   11.09    6.99   1
   0   6  -5  -11.70    6.98   1
   0   6  -5    5.90    4.91   1
   0   6  -5    8.70    5.72   1
   0   6  -4  898.20   32.37   1
   0   6  -4 1087.02   31.65   1
   0   6  -4  883.87   33.89   1
   0   6  -4 1135.69   34.37   1
   0   6  -3 2972.43   83.96   1
   0   6  -3 2389.25   87.01   1
   0   6  -3 2788.90   81.33   1
   0   6  -3 2489.01   82.82   1
   0   6  -2 1072.56   37.33   1
   0   6  -2 1065.37   38.52   1
   0   6  -2 1409.25   39.79   1
   0   6  -1    9.12    5.19   1
   0   6  -1    1.90    8.42   1
   0   6  -1    8.01    6.79   1
   0   6   011865.75  398.68   1
   0   6   015161.00  396.48   1
   0   6   011575.61  393.78   1
   0   6   1 8060.45  251.38   1
   0   6   1 8333.86  253.79   1
   0   6   2 1064.06   35.23   1
   0   6   2 1049.11   38.87   1
   0   6   3  656.90   25.12   1
   0   6   4 1378.64   46.04   1
   0   6   5 1124.93   46.29   1
   0   7 -12   33.76   13.48   1
   0   7 -11   26.63   12.69   1
   0   7 -10  431.39   21.60   1
   0   7  -9    4.88    9.77   1
   0   7  -8 3176.45  102.58   1
   0   7  -7 8911.36  277.54   1
   0   7  -6  371.33   14.26   1
   0   7  -6  298.60   16.24   1
   0   7  -5  248.38   11.35   1
   0   7  -5  242.42   12.77   1
   0   7  -5  291.04   10.24   1
   0   7  -4 3167.44  117.06   1
   0   7  -4 3470.39  113.11   1
   0   7  -4 4157.67  110.91   1
   0   7  -3 6880.70  210.69   1
   0   7  -2 1998.09   65.26   1
   0   7  -2 2173.42   71.79   1
   0   7  -1  842.16   28.44   1
   0   7  -1  846.81   29.68   1
   0   7   0  112.15   10.59   1
   0   7   0  108.78    7.51   1
   0   7   1   27.88    8.87   1
   0   7   1   33.87    7.57   1
   0   7   2 1820.73   58.88   1
   0   7   3  486.20   19.84   1
   0   7   4  849.14   39.63   1
   0   8 -11 2127.05  100.54   1
   0   8 -10  346.33   25.31   1
   0   8  -9   65.45   12.14   1
   0   8  -8  216.68   12.95   1
   0   8  -7   22.28    4.91   1
   0   8  -7    6.20    6.18   1
   0   8  -7    3.88   13.95   1
   0   8  -6  132.48    7.83   1
   0   8  -6  137.36    7.50   1
   0   8  -6  115.56   11.61   1
   0   8  -5   24.11    3.44   1
   0   8  -5   23.04    9.02   1
   0   8  -5   23.23    5.49   1
   0   8  -4  624.00   24.98   1
   0   8  -3 5574.12  182.17   1
   0   8  -3 5629.50  172.57   1
   0   8  -2 1813.91   61.33   1
   0   8  -1  662.03   27.79   1
   0   8  -1  659.46   24.14   1
   0   8   0  747.48   28.43   1
   0   8   0  815.10   30.26   1
   0   8   1  455.82   22.20   1
   0   8   2   72.59   15.17   1
   0   8   2  512.12   16.75   1
   0   8   3   15.37    9.72   1
   0   8   4  337.09   20.93   1
   0   9 -10  100.00   15.80   1
   0   9 -10   88.55   10.73   1
   0   9  -9   15.68   18.45   1
   0   9  -9   33.76   10.57   1
   0   9  -8 1915.81   88.42   1
   0   9  -8 1916.69   80.56   1
   0   9  -7 4975.89  160.83   1
   0   9  -7 5082.26  158.26   1
   0   9  -6 1409.25   57.81   1
   0   9  -6 1560.25   49.77   1
   0   9  -5    4.00   10.68   1
   0   9  -5    5.38    8.17   1
   0   9  -4   34.69    6.48   1
   0   9  -4   39.06   11.62   1
   0   9  -3 1853.30   68.88   1
   0   9  -3 1861.06   60.40   1
   0   9  -2 1797.76   60.21   1
   0   9  -2 1828.42   64.14   1
   0   9  -1 1069.29   37.93   1
   0   9  -1 1151.92   48.19   1
   0   9   0  738.75   36.42   1
   0   9   0  765.63   39.29   1
   0   9   1 1262.38   58.98   1
   0   9   1 1138.39   52.63   1
   0   9   2 1179.24   52.88   1
   0  10  -9   55.95   17.95   1
   0  10  -8 1203.40   53.42   1
   0  10  -8 1209.65   60.52   1
   0  10  -7 2061.16  100.79   1
   0  10  -7 2065.70   87.26   1
   0  10  -6  286.96   23.38   1
   0  10  -6  419.84   18.85   1
   0  10  -5   35.64   18.03   1
   0  10  -5   32.15    7.26   1
   0  10  -4  837.52   39.36   1
   0  10  -4  913.85   45.35   1
   0  10  -3 2876.18  125.49   1
   0  10  -3 3044.83  124.71   1
   0  10  -2  904.20   40.29   1
   0  10  -2  749.66   48.19   1
   0  10  -1   10.82    9.80   1
   0  10  -1  -11.70   15.12   1
   1 -10   0  163.58   18.42   1
   1 -10   1 1203.40   56.89   1
   1 -10   2 1863.65   84.61   1
   1 -10   3  361.76   22.44   1
   1 -10   4  131.10   15.11   1
   1 -10   5 1506.99   66.77   1
   1 -10   6 1855.89   81.85   1
   1 -10   7 1213.13   55.03   1
   1 -10   8  541.49   29.79   1
   1 -10   9  718.78   37.53   1
   1  -9  -1  206.21   21.54   1
   1  -9   0  295.50   19.25   1
   1  -9   1 1066.02   39.18   1
   1  -9   2  876.16   33.74   1
   1  -9   3  415.75   22.02   1
   1  -9   4  -19.01   13.69   1
   1  -9   5  860.84   34.03   1
   1  -9   6 1579.27   55.64   1
   1  -9   7   20.52   11.14   1
   1  -9   8  728.46   30.77   1
   1  -9   9  504.90   29.66   1
   1  -9  10  963.48   49.66   1
   1  -9  10 1077.81   46.62   1
   1  -9  11   78.85   15.98   1
   1  -8  -3  935.14   45.87   1
   1  -8  -2  717.70   31.61   1
   1  -8  -1  230.74   17.32   1
   1  -8   0   -1.39   12.56   1
   1  -8   1   56.10    9.89   1
   1  -8   2 1339.56   45.38   1
   1  -8   3  222.61   12.53   1
   1  -8   4  278.89   16.37   1
   1  -8   5 1623.28   53.18   1
   1  -8   6 4325.69  140.75   1
   1  -8   7 4140.92  135.13   1
   1  -8   8   70.06   11.05   1
   1  -8   9  666.16   27.36   1
   1  -8  10  112.78   11.68   1
   1  -8  10   93.12   13.32   1
   1  -8  11  877.34   38.51   1
   1  -8  11  811.68   41.03   1
   1  -7  -6  424.36   24.31   1
   1  -7  -3 3960.19  124.60   1
   1  -7  -2 4487.66  142.02   1
   1  -7  -1   30.91    7.90   1
   1  -7   0    7.90   10.12   1
   1  -7   0   12.39    7.18   1
   1  -7   1 5486.36  192.58   1
   1  -7   1 7153.78  199.61   1
   1  -7   213696.02  414.29   1
   1  -7   3 1407.75   45.02   1
   1  -7   4  461.39   19.33   1
   1  -7   5  696.96   24.82   1
   1  -7   6 3052.56   97.24   1
   1  -7   7 2025.00   65.70   1
   1  -7   8   -9.18    8.12   1
   1  -7   9  961.62   31.01   1
   1  -7   9  815.10   33.69   1
   1  -7  10 2462.14   75.42   1
   1  -7  10 2254.35   79.77   1
   1  -7  11  141.61   10.23   1
   1  -7  12  151.78   22.67   1
   1  -6  -7  806.56   46.58   1
   1  -6  -7  886.25   39.89   1
   1  -6  -6 1529.59   66.49   1
   1  -6  -4  945.56   31.36   1
   1  -6  -3  518.47   23.23   1
   1  -6  -3  712.36   21.35   1
   1  -6  -2 1528.03   50.04   1
   1  -6  -1 7114.92  207.50   1
   1  -6  -1 5465.65  201.09   1
   1  -6  -1 7140.25  206.18   1
   1  -6   0 5477.48  153.94   1
   1  -6   0 5196.97  154.27   1
   1  -6   0 4092.16  149.69   1
   1  -6   1 8038.92  225.94   1
   1  -6   1 6211.02  223.82   1
   1  -6   1 7811.02  228.02   1
   1  -6   210602.82  321.27   1
   1  -6   3 2371.69   85.71   1
   1  -6   3 3226.24   92.02   1
   1  -6   4 1709.00   61.18   1
   1  -6   4 2145.54   62.07   1
   1  -6   5  217.86   12.10   1
   1  -6   5  269.94   12.49   1
   1  -6   6 3776.10  106.92   1
   1  -6   6 2932.22  102.89   1
   1  -6   7 2227.84   70.80   1
   1  -6   8    3.88    6.89   1
   1  -6   8   16.32    4.04   1
   1  -6   9   64.32    9.62   1
   1  -6   9   77.79    5.47   1
   1  -6  10  807.70   31.83   1
   1  -6  10  860.25   31.09   1
   1  -6  11   23.81   10.64   1
   1  -6  11   26.21    4.81   1
   1  -6  12  -11.22   11.72   1
   1  -5  -8  189.89   22.87   1
   1  -5  -8  201.07   13.90   1
   1  -5  -7 1603.20   61.66   1
   1  -5  -7 1865.38   59.60   1
   1  -5  -6 1631.35   58.16   1
   1  -5  -6 1902.70   59.32   1
   1  -5  -5 1171.69   39.02   1
   1  -5  -4  144.72    7.46   1
   1  -5  -3 2361.96   68.04   1
   1  -5  -3 2139.99   66.61   1
   1  -5  -3 1734.72   66.64   1
   1  -5  -3 2234.45   69.96   1
   1  -5  -2  563.59   17.09   1
   1  -5  -2  569.30   20.52   1
   1  -5  -2  408.44   18.19   1
   1  -5  -2  546.16   20.10   1
   1  -5  -112753.18  356.86   1
   1  -5  -112106.60  356.50   1
   1  -5  -1 9698.31  356.50   1
   1  -5  -111887.54  353.26   1
   1  -5   0  929.64   34.15   1
   1  -5   0 1183.36   34.40   1
   1  -5   1   60.53    6.38   1
   1  -5   1   78.32    5.66   1
   1  -5   1   84.09    6.42   1
   1  -5   216700.39  460.06   1
   1  -5   213583.90  459.21   1
   1  -5   3 6151.27  207.06   1
   1  -5   3 7489.17  207.70   1
   1  -5   4   79.74    8.04   1
   1  -5   4   62.09    5.04   1
   1  -5   510993.52  304.07   1
   1  -5   5 8676.92  299.94   1
   1  -5   610687.42  372.17   1
   1  -5   613841.52  376.48   1
   1  -5   7 4859.48  174.27   1
   1  -5   7 6554.52  178.11   1
   1  -5   8  344.47   14.48   1
   1  -5   9   18.40    7.81   1
   1  -5  10 3375.61   95.28   1
   1  -5  10 2755.20   99.73   1
   1  -5  11  842.74   33.67   1
   1  -5  12  246.80   18.85   1
   1  -4  -9   10.82   19.02   1
   1  -4  -7   56.10   13.03   1
   1  -4  -7   10.63    6.52   1
   1  -4  -6 2611.21   90.96   1
   1  -4  -6 2717.54   85.49   1
   1  -4  -4 1034.27   36.02   1
   1  -4  -3  192.93    7.78   1
   1  -4  -3  199.37    9.88   1
   1  -4  -3  204.20    9.72   1
   1  -4  -2   24.30    2.86   1
   1  -4  -2   15.37    5.17   1
   1  -4  -2   35.52    6.56   1
   1  -4  -119723.39  702.20   1
   1  -4  -124289.22  704.44   1
   1  -4  -124133.62  705.29   1
   1  -4  -124964.00  704.68   1
   1  -4   0 1015.06   30.59   1
   1  -4   0 1006.16   31.09   1
   1  -4   0  863.18   32.32   1
   1  -4   1  817.96   25.17   1
   1  -4   1  702.78   24.39   1
   1  -4   1  793.55   25.35   1
   1  -4   2  115.78    5.81   1
   1  -4   3 2460.16   83.33   1
   1  -4   3 2875.10   82.57   1
   1  -4   4   18.40    3.69   1
   1  -4   4   20.79    4.38   1
   1  -4   5 8427.24  257.04   1
   1  -4   6 2474.07   79.58   1
   1  -4   6 2333.86   80.19   1
   1  -4   6 2947.40   82.52   1
   1  -4   7  654.34   22.00   1
   1  -4   7  617.03   23.35   1
   1  -4   7  764.52   25.99   1
   1  -4   8 1337.36   46.08   1
   1  -4   8 1453.13   44.98   1
   1  -4   9   20.61    9.90   1
   1  -4   9   22.18    3.11   1
   1  -4  10 1371.22   48.14   1
   1  -4  11 1208.26   45.19   1
   1  -4  12  531.76   31.36   1
   1  -4  13   97.61   20.95   1
   1  -3 -10 1283.79   61.63   1
   1  -3  -9  472.63   26.52   1
   1  -3  -8   22.56    9.22   1
   1  -3  -8   48.44    5.57   1
   1  -3  -7  184.42    7.88   1
   1  -3  -7  157.50   11.30   1
   1  -3  -6 6761.77  212.15   1
   1  -3  -5 4628.08  133.34   1
   1  -3  -5 3604.80  129.69   1
   1  -3  -5 4553.55  136.31   1
   1  -3  -4    8.01    5.21   1
   1  -3  -4   -0.79    5.18   1
   1  -3  -3  499.97   16.99   1
   1  -3  -3  490.62   17.28   1
   1  -3  -214871.80  448.78   1
   1  -3  -212845.96  446.56   1
   1  -3  -215420.67  447.05   1
   1  -3  -215740.21  449.15   1
   1  -3  -130199.49 1035.73   1
   1  -3  -135498.33 1040.02   1
   1  -3  -137713.64 1044.80   1
   1  -3   0  670.81   24.35   1
   1  -3   0  776.74   23.41   1
   1  -3   0  771.73   23.89   1
   1  -3   1  207.07    7.20   1
   1  -3   1  173.45    7.11   1
   1  -3   1  199.94    7.35   1
   1  -3   210957.90  332.88   1
   1  -3   3 8266.45  232.76   1
   1  -3   3 6692.88  225.80   1
   1  -3   4 3398.89   95.61   1
   1  -3   4 2837.69   94.82   1
   1  -3   5 5550.25  144.53   1
   1  -3   5 4349.40  143.77   1
   1  -3   5 4201.63  143.90   1
   1  -3   611331.60  389.61   1
   1  -3   612301.03  392.62   1
   1  -3   615188.10  399.30   1
   1  -3   7 7640.51  216.78   1
   1  -3   7 6642.25  210.27   1
   1  -3   7 6066.85  207.19   1
   1  -3   8  242.11   12.45   1
   1  -3   9 2322.28   75.18   1
   1  -3  10  427.66   18.61   1
   1  -3  11  263.09   15.90   1
   1  -3  12 1120.91   53.57   1
   1  -2 -11  290.70   25.23   1
   1  -2 -10  548.96   34.21   1
   1  -2  -9 3047.04   87.22   1
   1  -2  -9 2548.23   92.88   1
   1  -2  -8  113.85   15.58   1
   1  -2  -7  226.50   14.15   1
   1  -2  -7  266.02    9.46   1
   1  -2  -6 4712.82  137.30   1
   1  -2  -6 3982.87  133.79   1
   1  -2  -5 3858.89  129.21   1
   1  -2  -5 4594.13  124.72   1
   1  -2  -5 3696.64  124.03   1
   1  -2  -4 5899.78  212.00   1
   1  -2  -4 7708.84  207.21   1
   1  -2  -310989.33  331.26   1
   1  -2  -2 2588.77   78.36   1
   1  -2  -2 2434.44   76.97   1
   1  -2  -113048.49  372.39   1
   1  -2  -112501.48  373.45   1
   1  -2  -110838.89  372.71   1
   1  -2  -112904.96  374.88   1
   1  -2   0  722.53   23.12   1
   1  -2   0  768.95   23.29   1
   1  -2   143052.10 1294.74   1
   1  -2   222437.04  641.10   1
   1  -2   220115.75  643.91   1
   1  -2   314096.81  434.55   1
   1  -2   314718.54  434.33   1
   1  -2   4 6796.35  196.21   1
   1  -2   4 6074.64  196.41   1
   1  -2   5 1271.64   37.09   1
   1  -2   5 1034.91   37.32   1
   1  -2   5 1109.56   36.64   1
   1  -2   6 1990.94   58.01   1
   1  -2   6 1524.12   54.66   1
   1  -2   7  558.85   20.80   1
   1  -2   7  655.87   22.54   1
   1  -2   8  916.88   31.49   1
   1  -2   9  122.54    9.52   1
   1  -2  10  249.01   17.04   1
   1  -2  11  904.81   36.10   1
   1  -2  12  183.87   21.70   1
   1  -1 -11  593.41   33.13   1
   1  -1 -10  231.34   16.43   1
   1  -1  -9  219.93   16.91   1
   1  -1  -8   51.70    7.77   1
   1  -1  -8   60.53    2.96   1
   1  -1  -7 1850.72   55.93   1
   1  -1  -7 2017.81   61.09   1
   1  -1  -7 1600.00   57.60   1
   1  -1  -6 2968.07  106.78   1
   1  -1  -6 3721.00  106.14   1
   1  -1  -6 3402.39  102.66   1
   1  -1  -5 3283.29   90.53   1
   1  -1  -5 2658.43   92.81   1
   1  -1  -5 2878.32   90.13   1
   1  -1  -4 6449.70  205.59   1
   1  -1  -4 7712.35  205.50   1
   1  -1  -4 6168.53  205.77   1
   1  -1  -3 2052.09   61.61   1
   1  -1  -3 2178.09   61.60   1
   1  -1  -3 1819.02   60.56   1
   1  -1  -3 1856.75   61.19   1
   1  -1  -224768.47  689.32   1
   1  -1  -220733.12  685.39   1
   1  -1  -145633.50 1375.71   1
   1  -1   034188.01 1028.04   1
   1  -1   1  668.74   20.69   1
   1  -1   1  626.00   20.02   1
   1  -1   3 3875.06  120.77   1
   1  -1   3 4070.44  121.22   1
   1  -1   4 1507.77   47.37   1
   1  -1   5  239.01    9.59   1
   1  -1   6 3101.38   96.90   1
   1  -1   7 2691.53   86.12   1
   1  -1   8 2458.18   79.33   1
   1  -1   9  117.94   14.12   1
   1  -1  10 1218.01   43.97   1
   1  -1  11  791.86   39.40   1
   1  -1  12   24.30   13.31   1
   1   0 -12    6.10   19.32   1
   1   0 -11  -13.47   15.49   1
   1   0 -10  326.89   18.80   1
   1   0  -9 2401.00   79.38   1
   1   0  -8 1790.14   60.08   1
   1   0  -7 2837.69   84.17   1
   1   0  -7 2788.90   83.44   1
   1   0  -7 2209.94   83.68   1
   1   0  -6 5902.85  210.51   1
   1   0  -6 7596.87  207.44   1
   1   0  -522602.12  754.71   1
   1   0  -527135.97  751.17   1
   1   0  -4 8487.94  235.85   1
   1   0  -4 7758.09  234.29   1
   1   0  -4 7089.64  237.44   1
   1   0  -3 1145.15   35.19   1
   1   0  -3 1246.80   36.72   1
   1   0  -3 1047.82   36.90   1
   1   0  -2 6773.29  197.52   1
   1   0  -2 6339.34  199.05   1
   1   0  -2 6412.81  197.00   1
   1   0  -126971.49  716.04   1
   1   0  -119695.31  712.93   1
   1   0  -124410.94  718.70   1
   1   0  11   12.18   12.01   1
   1   1 -12  -18.84   12.59   1
   1   1 -11   83.36   12.42   1
   1   1 -10   70.73   13.29   1
   1   1  -9 2740.52   91.09   1
   1   1  -8  219.93   11.57   1
   1   1  -8  302.06   14.25   1
   1   1  -7   -0.59    6.76   1
   1   1  -7    5.20    6.02   1
   1   1  -6 3017.30  105.47   1
   1   1  -6 3803.19  108.54   1
   1   1  -510557.56  295.92   1
   1   1  -5 8845.40  295.32   1
   1   1  -4 9347.02  288.11   1
   1   1  -3  324.00   11.52   1
   1   1  -3  364.81   11.46   1
   1   1  -3  320.77   10.75   1
   1   1  -2 1223.60   37.08   1
   1   1  -2 1229.20   37.16   1
   1   1  -2 1135.02   37.06   1
   1   1   121629.59  664.76   1
   1   1   2  619.01   20.40   1
   1   1   3  476.11   17.46   1
   1   1   3  584.67   17.41   1
   1   1   4 3633.68  112.12   1
   1   1   5 4842.77  148.92   1
   1   1   612208.04  371.25   1
   1   2 -12  150.31   20.11   1
   1   2 -11 2467.11   84.44   1
   1   2 -10 1645.11   56.78   1
   1   2  -9 2070.25   68.25   1
   1   2  -8 1122.92   41.55   1
   1   2  -8 1482.25   46.20   1
   1   2  -7 4748.59  146.09   1
   1   2  -6  279.56   10.70   1
   1   2  -524489.12  823.14   1
   1   2  -529732.10  817.32   1
   1   2  -4 3552.16   98.94   1
   1   2  -4 2865.46   98.50   1
   1   2  -3  667.19   20.66   1
   1   2  -3  534.53   20.81   1
   1   2  -2 7049.28  203.18   1
   1   2  -2 6206.29  201.68   1
   1   2  -117273.84  567.78   1
   1   2  -120237.91  566.19   1
   1   2  -119943.09  567.70   1
   1   2  -117715.61  569.67   1
   1   2   0 6071.53  166.75   1
   1   2   0 5227.29  164.84   1
   1   2   0 4872.04  163.33   1
   1   2   1  786.80   27.49   1
   1   2   1  915.06   25.41   1
   1   2   1  693.27   25.28   1
   1   2   310859.72  329.30   1
   1   2   415737.70  429.04   1
   1   2   412225.72  422.38   1
   1   2   5  775.07   25.06   1
   1   2   5  566.92   24.29   1
   1   3 -13  419.43   29.08   1
   1   3 -12   46.24   18.09   1
   1   3 -11   46.79   15.05   1
   1   3 -10  418.61   21.69   1
   1   3  -9 6256.81  202.50   1
   1   3  -8 2743.66   90.09   1
   1   3  -7   14.52    7.39   1
   1   3  -7   22.66    7.14   1
   1   3  -6 5864.50  208.30   1
   1   3  -6 7532.50  204.82   1
   1   3  -5 2213.70   79.99   1
   1   3  -5 2727.97   77.30   1
   1   3  -4   38.44    3.84   1
   1   3  -3 1412.26   50.36   1
   1   3  -3 1733.06   49.12   1
   1   3  -3 1585.63   49.38   1
   1   3  -229714.87  923.96   1
   1   3  -234295.34  925.95   1
   1   3  -227872.30  924.90   1
   1   3  -1 3085.80  102.21   1
   1   3  -1 3895.01  103.60   1
   1   3  -1 3063.62  102.95   1
   1   3   0  780.64   27.38   1
   1   3   0 1007.43   29.20   1
   1   3   0  820.25   26.92   1
   1   3   1  143.28    6.70   1
   1   3   1  189.61    7.44   1
   1   3   1  144.96    6.98   1
   1   3   2 2158.53   75.27   1
   1   3   2 2894.44   76.40   1
   1   3   2 2227.84   75.52   1
   1   3   3 7208.01  220.74   1
   1   4 -13  535.00   34.69   1
   1   4 -12  148.11   19.72   1
   1   4 -11  570.73   24.37   1
   1   4 -10  163.07   14.81   1
   1   4  -9 5571.13  174.66   1
   1   4  -8 6138.72  192.74   1
   1   4  -7   27.25    8.04   1
   1   4  -7   42.38    7.55   1
   1   4  -6 2031.30   64.00   1
   1   4  -5 9964.03  353.36   1
   1   4  -513069.06  349.82   1
   1   4  -410377.50  289.31   1
   1   4  -4 8137.84  285.06   1
   1   4  -4 9795.06  287.01   1
   1   4  -3 6486.69  206.18   1
   1   4  -3 5885.96  207.14   1
   1   4  -3 7221.60  205.65   1
   1   4  -3 7323.94  203.68   1
   1   4  -225122.25  691.06   1
   1   4  -221471.04  691.62   1
   1   4  -220360.44  696.33   1
   1   4  -224307.93  689.12   1
   1   4  -1 7508.22  199.29   1
   1   4  -1 6024.86  197.15   1
   1   4  -1 5867.56  199.16   1
   1   4   010444.84  353.61   1
   1   4   010487.81  354.34   1
   1   4   014061.22  355.74   1
   1   4   1 1366.78   38.45   1
   1   4   1 1014.42   35.67   1
   1   4   1 1042.64   36.16   1
   1   4   2   41.86    4.66   1
   1   4   2   10.30    6.23   1
   1   4   3 3439.82  120.82   1
   1   4   3 4375.82  124.36   1
   1   5 -13  854.98   47.37   1
   1   5 -12   51.70   12.51   1
   1   5 -11   -5.38   13.87   1
   1   5 -10   15.92   12.13   1
   1   5  -9  552.72   25.86   1
   1   5  -8 1381.61   46.09   1
   1   5  -7  452.41   19.14   1
   1   5  -7  340.77   17.35   1
   1   5  -6  750.76   25.76   1
   1   5  -6  606.64   24.63   1
   1   5  -5 3516.49   99.62   1
   1   5  -5 2768.86   96.82   1
   1   5  -4 1528.03   57.07   1
   1   5  -4 1623.28   55.60   1
   1   5  -4 1993.62   57.15   1
   1   5  -4 1921.07   55.23   1
   1   5  -3 1871.43   69.22   1
   1   5  -3 2024.10   70.18   1
   1   5  -3 2439.37   68.16   1
   1   5  -3 2498.00   69.97   1
   1   5  -2 1691.68   45.24   1
   1   5  -2 1256.70   44.67   1
   1   5  -2 1285.22   43.74   1
   1   5  -1 2065.70   69.08   1
   1   5  -1 2640.93   71.95   1
   1   5  -1 2062.98   71.76   1
   1   5   0 5944.41  202.00   1
   1   5   0 6015.55  206.31   1
   1   5   0 7961.99  205.23   1
   1   5   1 1843.84   63.55   1
   1   5   1 2355.16   66.00   1
   1   5   1 1726.40   60.66   1
   1   5   2 5909.00  182.95   1
   1   5   2 6024.86  187.84   1
   1   5   3 3286.73  103.19   1
   1   5   6  698.54   31.19   1
   1   6 -12   10.11   12.40   1
   1   6 -11  346.33   19.35   1
   1   6 -10  301.72   15.98   1
   1   6  -9 1443.24   52.43   1
   1   6  -8 4909.80  162.56   1
   1   6  -7  722.53   25.80   1
   1   6  -6  757.35   25.32   1
   1   6  -6  679.64   28.16   1
   1   6  -6  834.05   25.41   1
   1   6  -5 3448.04   97.48   1
   1   6  -5 2723.80   93.94   1
   1   6  -5 2575.56   94.40   1
   1   6  -5 3137.12   92.98   1
   1   6  -4 3004.14  104.14   1
   1   6  -4 3769.96  105.61   1
   1   6  -4 2927.89  104.97   1
   1   6  -4 3533.11  102.24   1
   1   6  -3  373.26   13.91   1
   1   6  -3  436.81   17.14   1
   1   6  -3  390.46   16.99   1
   1   6  -2  446.05   18.59   1
   1   6  -2  433.06   15.82   1
   1   6  -2  532.69   18.93   1
   1   6  -1 2616.32   73.66   1
   1   6  -1 2054.81   71.62   1
   1   6  -1 2072.98   70.12   1
   1   6   0 9510.15  298.41   1
   1   6   0 9970.02  307.54   1
   1   6   1 2799.47   87.83   1
   1   6   1 2835.56   88.39   1
   1   6   2   18.58    5.69   1
   1   6   3   17.14    6.54   1
   1   6   5 1641.87   65.64   1
   1   7 -12  478.73   32.82   1
   1   7 -11   52.13   17.91   1
   1   7 -10  954.81   43.88   1
   1   7  -9 4666.26  153.01   1
   1   7  -8  445.63   21.11   1
   1   7  -8  582.74   20.28   1
   1   7  -7 4170.58  122.70   1
   1   7  -7 3678.42  121.30   1
   1   7  -6   19.01    5.93   1
   1   7  -6    7.18    3.70   1
   1   7  -5 6501.20  177.39   1
   1   7  -5 5664.07  179.12   1
   1   7  -5 5172.49  179.80   1
   1   7  -4 6424.02  211.60   1
   1   7  -4 6862.46  203.79   1
   1   7  -3 2168.76   73.58   1
   1   7  -3 2396.10   72.45   1
   1   7  -2   62.73    6.34   1
   1   7  -2   99.60   11.58   1
   1   7  -1  587.09   22.29   1
   1   7  -1  547.09   20.12   1
   1   7   0  710.76   30.39   1
   1   7   0  707.03   24.99   1
   1   7   1  324.36   14.77   1
   1   7   1  313.29   16.28   1
   1   7   5  210.83   25.56   1
   1   8 -11  204.78   23.18   1
   1   8 -10  755.15   37.92   1
   1   8  -9 1302.49   44.03   1
   1   8  -9 1246.09   48.01   1
   1   8  -8 3217.16  103.23   1
   1   8  -8 2887.99  115.00   1
   1   8  -8 3584.42  102.98   1
   1   8  -7  327.97   13.04   1
   1   8  -7  289.68   13.28   1
   1   8  -7  264.71   16.60   1
   1   8  -6  834.05   30.04   1
   1   8  -6  980.94   30.69   1
   1   8  -6  835.21   34.68   1
   1   8  -5   48.72   13.26   1
   1   8  -5   49.14    6.31   1
   1   8  -4 2681.17   89.06   1
   1   8  -4 2863.32   88.83   1
   1   8  -3 1379.38   52.00   1
   1   8  -3 1366.04   45.09   1
   1   8  -2   64.96    7.58   1
   1   8  -2   39.56   14.09   1
   1   8  -1  468.29   23.80   1
   1   8  -1  567.39   20.49   1
   1   8   0  894.61   32.90   1
   1   8   0  796.37   29.91   1
   1   8   1  556.49   25.48   1
   1   8   1  580.81   23.62   1
   1   8   2  134.10   14.36   1
   1   8   3  463.97   31.02   1
   1   9 -10   97.02   17.14   1
   1   9  -9 1323.50   56.03   1
   1   9  -9 1319.14   64.65   1
   1   9  -8 1849.00   80.84   1
   1   9  -8 1835.27   77.11   1
   1   9  -7  341.14   22.53   1
   1   9  -6 1111.56   47.34   1
   1   9  -6 1165.54   39.60   1
   1   9  -5 1963.38   69.12   1
   1   9  -5 2167.83   67.98   1
   1   9  -4 3577.24  124.40   1
   1   9  -4 3436.30  111.38   1
   1   9  -3 2554.29   81.87   1
   1   9  -3 2556.31   87.97   1
   1   9  -2  284.60   22.61   1
   1   9  -2  304.50   13.96   1
   1   9  -1  408.44   21.83   1
   1   9  -1  400.40   25.61   1
   1   9   0 1616.04   71.56   1
   1   9   0 1607.21   71.36   1
   1   9   1  710.76   44.26   1
   1   9   1  757.90   35.79   1
   1  10  -8 1098.26   58.33   1
   1  10  -7  640.60   37.97   1
   1  10  -6  259.85   20.63   1
   1  10  -5  260.50   14.20   1
   1  10  -5  244.30   25.32   1
   1  10  -4 1178.55   55.61   1
   1  10  -4 1102.90   49.15   1
   1  10  -3 1022.08   52.43   1
   1  10  -3 1062.11   48.23   1
   1  10  -2   35.88    8.27   1
   1  10  -2   49.56   16.19   1
   2 -11   4  543.36   31.24   1
   2 -11   5 1316.24   60.22   1
   2 -10   0 1669.54   76.82   1
   2 -10   2  646.68   33.06   1
   2 -10   3  432.64   24.54   1
   2 -10   4 1275.20   57.14   1
   2 -10   5  949.87   44.38   1
   2 -10   6   10.89   16.50   1
   2 -10   7   -1.00    9.40   1
   2 -10   7   36.72   13.21   1
   2 -10   8 1258.83   57.48   1
   2 -10   8 1364.56   62.80   1
   2 -10   9 1876.62   80.58   1
   2 -10   9 1671.99   76.87   1
   2  -9  -3  374.04   22.43   1
   2  -9  -2  247.75   19.20   1
   2  -9  -2  211.70   16.30   1
   2  -9  -1   63.68   12.45   1
   2  -9   0 1303.93   46.94   1
   2  -9   1  895.21   34.11   1
   2  -9   2  791.30   30.38   1
   2  -9   3 1936.00   65.12   1
   2  -9   4 1349.83   47.03   1
   2  -9   5 3029.40   97.97   1
   2  -9   6  202.78   13.67   1
   2  -9   7   79.92    8.94   1
   2  -9   7   95.06   15.99   1
   2  -9   8   17.47    8.69   1
   2  -9   8    8.70   10.97   1
   2  -9   9   49.84   11.86   1
   2  -9   9   41.86    9.06   1
   2  -9  10  219.63   18.67   1
   2  -9  10  206.21   14.36   1
   2  -8  -4  772.28   37.79   1
   2  -8  -3 1844.70   79.89   1
   2  -8  -2  589.03   27.18   1
   2  -8  -1 1082.41   38.82   1
   2  -8   0 3395.39  113.04   1
   2  -8   1  235.32   15.03   1
   2  -8   2   13.32    7.81   1
   2  -8   3   21.34    7.48   1
   2  -8   4 2700.88   88.35   1
   2  -8   5 5225.84  163.38   1
   2  -8   6 1013.15   35.65   1
   2  -8   7   60.37   10.57   1
   2  -8   7   60.37    9.17   1
   2  -8   8  526.70   23.87   1
   2  -8   8  501.76   19.71   1
   2  -8   9 3351.25  114.62   1
   2  -8   9 3602.40  109.24   1
   2  -8  10  211.12   14.24   1
   2  -8  10  206.21   19.82   1
   2  -8  11   31.36   13.78   1
   2  -8  11   60.06   10.23   1
   2  -7  -6   23.04    9.02   1
   2  -7  -5  159.26   12.37   1
   2  -7  -3  794.68   29.88   1
   2  -7  -3  788.49   30.33   1
   2  -7  -3  916.27   30.88   1
   2  -7  -2  724.15   26.37   1
   2  -7  -1 1424.31   50.57   1
   2  -7   0 2180.89   70.05   1
   2  -7   110849.31  399.97   1
   2  -7   114967.07  408.62   1
   2  -7   113874.48  414.62   1
   2  -7   2 5002.73  174.00   1
   2  -7   2 6196.84  176.33   1
   2  -7   3  714.49   26.73   1
   2  -7   3  897.00   29.35   1
   2  -7   4 2228.78   75.54   1
   2  -7   4 2656.37   79.37   1
   2  -7   5 4265.40  131.93   1
   2  -7   6   11.83    6.74   1
   2  -7   6   14.21    4.90   1
   2  -7   7    8.88    5.01   1
   2  -7   7   28.62    7.60   1
   2  -7   9  399.60   15.99   1
   2  -7  10  456.68   22.65   1
   2  -7  10  592.92   21.43   1
   2  -7  11   83.91   17.40   1
   2  -7  11  119.46    9.18   1
   2  -7  12   33.64   14.15   1
   2  -6  -7  619.01   35.83   1
   2  -6  -7  582.74   29.93   1
   2  -6  -6  968.45   44.19   1
   2  -6  -5  622.50   24.45   1
   2  -6  -4 1950.11   71.54   1
   2  -6  -4 2508.01   72.12   1
   2  -6  -3 4236.71  143.20   1
   2  -6  -3 5626.50  144.02   1
   2  -6  -3 4070.44  142.91   1
   2  -6  -2  445.21   18.99   1
   2  -6  -2  601.23   19.62   1
   2  -6  -2  504.90   21.12   1
   2  -6  -1  591.46   21.89   1
   2  -6  -1  650.76   23.47   1
   2  -6  -1  513.02   20.38   1
   2  -6   0 1849.00   59.34   1
   2  -6   0 1761.48   58.76   1
   2  -6   119102.01  522.43   1
   2  -6   118020.38  520.85   1
   2  -6   114139.59  516.07   1
   2  -6   2 5294.02  176.08   1
   2  -6   2 6336.16  178.30   1
   2  -6   3 1120.91   39.51   1
   2  -6   3 1342.49   41.04   1
   2  -6   4 1767.36   61.38   1
   2  -6   4 2169.70   62.42   1
   2  -6   5 3504.64  125.50   1
   2  -6   5 4880.42  127.15   1
   2  -6   5 3777.33  125.38   1
   2  -6   6 1062.11   36.50   1
   2  -6   6  977.81   35.65   1
   2  -6   6 1281.64   39.38   1
   2  -6   7  532.69   20.31   1
   2  -6   7  581.77   19.78   1
   2  -6   8   88.55    6.96   1
   2  -6   8   91.01    8.59   1
   2  -6   9  925.38   38.33   1
   2  -6   9 1133.67   35.69   1
   2  -6  10  419.43   20.48   1
   2  -6  10  476.11   17.89   1
   2  -6  11  170.82   14.38   1
   2  -6  12  123.65   14.90   1
   2  -5  -8  703.84   39.80   1
   2  -5  -7 1016.97   39.54   1
   2  -5  -7 1142.44   39.21   1
   2  -5  -6  636.05   22.70   1
   2  -5  -6  529.92   20.72   1
   2  -5  -6  484.00   25.08   1
   2  -5  -5 1079.78   39.43   1
   2  -5  -5 1364.56   40.63   1
   2  -5  -4  347.08   13.04   1
   2  -5  -4  298.60   13.48   1
   2  -5  -3 7202.92  212.18   1
   2  -5  -3 5272.21  207.66   1
   2  -5  -3 7356.49  209.28   1
   2  -5  -3 7541.19  213.63   1
   2  -5  -2 4595.48  122.02   1
   2  -5  -2 3290.17  118.16   1
   2  -5  -2 4192.56  123.03   1
   2  -5  -2 4244.52  127.69   1
   2  -5  -2 3136.00  118.72   1
   2  -5  -1  136.66    9.35   1
   2  -5  -1  101.81    6.66   1
   2  -5  -1  122.99    7.54   1
   2  -5   0  354.19   14.68   1
   2  -5   0  476.99   17.91   1
   2  -5   0  460.96   15.89   1
   2  -5   1 8643.42  306.80   1
   2  -5   111117.59  307.88   1
   2  -5   110623.42  307.15   1
   2  -5   2   23.91    6.45   1
   2  -5   2   33.76    5.93   1
   2  -5   3 1588.02   50.21   1
   2  -5   3 1829.27   50.47   1
   2  -5   3 1352.77   49.29   1
   2  -5   4 1790.14   60.08   1
   2  -5   4 1764.00   60.48   1
   2  -5   4 2327.10   64.64   1
   2  -5   520641.07  623.53   1
   2  -5   6  630.51   23.10   1
   2  -5   6  656.38   23.06   1
   2  -5   6  782.32   26.29   1
   2  -5   7  138.30    8.47   1
   2  -5   7  137.12   10.07   1
   2  -5   7  161.29    7.62   1
   2  -5   8  309.76   13.38   1
   2  -5   9 4883.21  139.76   1
   2  -5   9 4104.96  142.24   1
   2  -5  10 2477.05   71.67   1
   2  -5  10 2025.00   73.80   1
   2  -5  11  157.75   13.31   1
   2  -5  12    4.88   12.07   1
   2  -4  -8  476.55   25.32   1
   2  -4  -8  663.58   23.18   1
   2  -4  -7  467.42   17.73   1
   2  -4  -6  701.72   23.84   1
   2  -4  -6  560.74   27.00   1
   2  -4  -6  795.80   24.82   1
   2  -4  -5 1521.78   53.05   1
   2  -4  -5 1858.47   54.32   1
   2  -4  -4 1686.74   64.07   1
   2  -4  -4 2233.51   68.05   1
   2  -4  -4 2272.43   65.78   1
   2  -4  -4 2146.47   65.79   1
   2  -4  -3 2443.32   94.91   1
   2  -4  -3 3228.51   95.46   1
   2  -4  -3 3332.75   98.14   1
   2  -4  -3 3323.52  100.31   1
   2  -4  -2 2493.00   67.90   1
   2  -4  -2 1904.45   66.33   1
   2  -4  -2 2388.28   66.46   1
   2  -4  -2 1782.53   67.55   1
   2  -4  -1 3313.15   95.55   1
   2  -4  -1 2422.61   94.50   1
   2  -4  -1 3368.64   95.19   1
   2  -4  -1 3547.39   95.30   1
   2  -4  -1 2757.30   94.52   1
   2  -4   0  483.12   16.70   1
   2  -4   0  404.81   16.90   1
   2  -4   0  542.42   16.77   1
   2  -4   0  583.22   17.87   1
   2  -4   1 2607.12   80.67   1
   2  -4   1 3051.46   81.76   1
   2  -4   1 2262.90   80.87   1
   2  -4   2  102.21    5.86   1
   2  -4   2  122.54    6.42   1
   2  -4   2  108.99    5.01   1
   2  -4   3  300.33   11.44   1
   2  -4   3  348.94   13.08   1
   2  -4   3  292.07   11.28   1
   2  -4   4 1762.32   51.22   1
   2  -4   4 1497.69   48.76   1
   2  -4   4 1466.12   49.01   1
   2  -4   515795.46  480.10   1
   2  -4   6   21.53    2.88   1
   2  -4   6   10.37    5.99   1
   2  -4   6   20.88    5.48   1
   2  -4   7  545.69   20.56   1
   2  -4   7  462.25   15.91   1
   2  -4   7  431.39   18.28   1
   2  -4   8  275.56   12.95   1
   2  -4   8  356.83   11.71   1
   2  -4   9  455.82   20.07   1
   2  -4   9  555.07   16.96   1
   2  -4  10  406.43   18.95   1
   2  -4  11   38.07   14.44   1
   2  -4  12   65.77   12.98   1
   2  -3 -10  203.06   18.52   1
   2  -3  -9  575.52   26.87   1
   2  -3  -9  566.92   31.43   1
   2  -3  -8 1731.39   66.58   1
   2  -3  -8 2026.80   63.03   1
   2  -3  -7 6809.55  196.40   1
   2  -3  -7 5792.73  196.36   1
   2  -3  -6 5031.06  175.91   1
   2  -3  -6 6533.49  177.83   1
   2  -3  -6 5565.16  174.56   1
   2  -3  -5   14.82    5.24   1
   2  -3  -5   -3.50    8.60   1
   2  -3  -5   14.06    7.28   1
   2  -3  -4 2726.93   82.51   1
   2  -3  -4 2920.32   83.22   1
   2  -3  -4 2183.69   81.31   1
   2  -3  -4 2692.57   81.99   1
   2  -3  -3 6816.15  259.24   1
   2  -3  -3 9385.73  263.51   1
   2  -3  -3 9409.00  261.90   1
   2  -3  -3 8815.33  261.01   1
   2  -3  -219173.94  501.26   1
   2  -3  -213858.00  496.78   1
   2  -3  -111180.95  289.73   1
   2  -3  -1 8678.79  283.21   1
   2  -3  -1 7781.00  284.04   1
   2  -3  -1 9964.03  285.49   1
   2  -3   0 4454.23  129.48   1
   2  -3   0 4057.69  129.95   1
   2  -3   0 5016.89  134.58   1
   2  -3   0 3525.98  129.45   1
   2  -3   1 5478.96  155.44   1
   2  -3   1 4577.88  156.97   1
   2  -3   1 5119.40  154.55   1
   2  -3   2  148.35    5.85   1
   2  -3   2  117.51    5.42   1
   2  -3   2  167.44    5.69   1
   2  -3   3 3989.19  112.42   1
   2  -3   3 3604.80  111.67   1
   2  -3   3 3375.61  112.71   1
   2  -3   4  157.25    6.52   1
   2  -3   4  116.64    6.48   1
   2  -3   4  129.73    5.70   1
   2  -3   519788.05  644.27   1
   2  -3   524034.30  651.13   1
   2  -3   520391.84  648.31   1
   2  -3   6  106.09    5.15   1
   2  -3   6   92.54    6.16   1
   2  -3   6  127.46    8.58   1
   2  -3   7 1065.37   39.82   1
   2  -3   7 1275.20   40.00   1
   2  -3   7 1337.36   42.42   1
   2  -3   8   34.57    6.00   1
   2  -3   9  197.96   11.82   1
   2  -3  10  545.22   22.88   1
   2  -3  11  132.71   12.90   1
   2  -3  12   99.00   18.51   1
   2  -2 -11  751.31   43.86   1
   2  -2 -10  305.55   22.02   1
   2  -2  -9  792.99   34.36   1
   2  -2  -8   -0.40    7.88   1
   2  -2  -8   12.82    3.08   1
   2  -2  -7  903.60   37.27   1
   2  -2  -7 1051.06   32.42   1
   2  -2  -6 3901.25  107.43   1
   2  -2  -6 2893.36  114.03   1
   2  -2  -6 3423.42  105.32   1
   2  -2  -5  513.93   17.23   1
   2  -2  -5  500.42   17.00   1
   2  -2  -5  397.20   15.55   1
   2  -2  -4  755.70   24.74   1
   2  -2  -4  850.31   26.24   1
   2  -2  -4  703.31   25.99   1
   2  -2  -332815.32  880.39   1
   2  -2  -325389.23  876.37   1
   2  -2  -210098.24  349.71   1
   2  -2  -211700.75  348.31   1
   2  -2  -212773.52  350.36   1
   2  -2  -1  447.75   14.39   1
   2  -2  -1  415.75   14.27   1
   2  -2  -1  406.43   14.92   1
   2  -2  -1  477.86   14.43   1
   2  -2   0 7892.54  241.64   1
   2  -2   0 8105.40  243.08   1
   2  -2   0 9011.71  243.02   1
   2  -2   0 6990.63  242.47   1
   2  -2   1 1025.92   31.39   1
   2  -2   1 1022.08   33.25   1
   2  -2   2 4700.47  149.46   1
   2  -2   2 5046.68  150.60   1
   2  -2   3  443.52   14.74   1
   2  -2   3  444.37   15.60   1
   2  -2   4 4507.78  140.99   1
   2  -2   4 5021.14  141.72   1
   2  -2   4 4197.74  139.95   1
   2  -2   5 3746.66  104.06   1
   2  -2   5 2980.07  102.63   1
   2  -2   5 3330.44  105.03   1
   2  -2   6  693.80   23.71   1
   2  -2   6  543.82   20.99   1
   2  -2   7  409.25   16.99   1
   2  -2   7  332.33   14.95   1
   2  -2   8  272.25   13.86   1
   2  -2   9  943.10   33.17   1
   2  -2  10 1390.54   49.97   1
   2  -2  11  354.19   21.45   1
   2  -2  12  105.06   15.38   1
   2  -1 -11  346.70   25.32   1
   2  -1 -10  568.35   27.18   1
   2  -1  -9   25.20    8.13   1
   2  -1  -8  101.20    9.05   1
   2  -1  -7 6384.01  177.38   1
   2  -1  -7 5022.56  178.59   1
   2  -1  -6 5356.78  156.63   1
   2  -1  -6 4866.46  156.26   1
   2  -1  -5  674.96   22.86   1
   2  -1  -5  757.35   24.77   1
   2  -1  -4 2180.89   63.51   1
   2  -1  -4 1833.55   61.66   1
   2  -1  -4 2197.73   61.88   1
   2  -1  -4 1780.00   63.28   1
   2  -1  -343259.84 1302.02   1
   2  -1  -2  203.06    7.70   1
   2  -1  -2  193.49    7.79   1
   2  -1  -2  231.95    9.14   1
   2  -1  -2  268.30    8.19   1
   2  -1  -1 2885.84   84.88   1
   2  -1  -1 2923.56   84.35   1
   2  -1  -1 2425.56   84.71   1
   2  -1   016638.42  503.06   1
   2  -1   136983.14 1119.24   1
   2  -1   4   88.36    5.08   1
   2  -1   5 3170.82   97.98   1
   2  -1   6  879.12   30.24   1
   2  -1  10 1697.44   59.33   1
   2  -1  11  469.16   29.02   1
   2   0 -12  183.06   20.84   1
   2   0 -11  259.53   19.01   1
   2   0 -10  311.52   16.59   1
   2   0  -9   12.67   10.18   1
   2   0  -8 1910.56   66.44   1
   2   0  -8 2252.45   68.34   1
   2   0  -7 2542.18   88.74   1
   2   0  -7 3203.56   91.69   1
   2   0  -6 4823.30  166.68   1
   2   0  -6 6105.86  168.78   1
   2   0  -5  102.62    6.48   1
   2   0  -5  112.57    5.73   1
   2   0  -4 5932.08  164.82   1
   2   0  -4 4673.09  164.06   1
   2   0  -4 5530.90  168.08   1
   2   0  -359029.57 1778.47   1
   2   0  -2  776.74   25.08   1
   2   0  -2  838.10   25.48   1
   2   0  -2  803.16   24.94   1
   2   0  -2  778.97   25.68   1
   2   0  -1   31.81    3.95   1
   2   0  -1    6.92    2.52   1
   2   0  -1  200.22    9.34   1
   2   0   0   58.68    2.45   1
   2   0   1 5425.80  157.63   1
   2   0   1 4935.06  157.36   1
   2   0   2 8482.41  261.56   1
   2   0   3 5358.24  162.50   1
   2   1 -12  221.41   22.62   1
   2   1 -11 1485.33   57.81   1
   2   1 -10 2283.88   84.11   1
   2   1  -9  135.72   10.48   1
   2   1  -8   27.35    8.05   1
   2   1  -8   13.99    5.83   1
   2   1  -7 2694.65   77.86   1
   2   1  -7 2202.43   82.60   1
   2   1  -6 3438.65  118.45   1
   2   1  -6 4079.38  116.24   1
   2   1  -5 5296.93  148.47   1
   2   1  -5 4251.04  148.66   1
   2   1  -5 4975.89  153.78   1
   2   1  -4 2132.59   63.73   1
   2   1  -4 2025.00   63.00   1
   2   1  -4 1807.10   63.76   1
   2   1  -4 2212.76   63.97   1
   2   1  -355512.07 1672.83   1
   2   1  -2 7169.01  215.06   1
   2   1  -2 7344.49  215.96   1
   2   1  -2 6760.13  217.06   1
   2   1  -110788.98  328.23   1
   2   1   0 7029.15  216.31   1
   2   1   2  209.96    8.40   1
   2   1   3 8781.56  266.14   1
   2   1   4  214.62   10.25   1
   2   1   5 2919.24   90.77   1
   2   1   6 5243.21  165.09   1
   2   2 -12    1.10   11.72   1
   2   2 -11  468.29   21.64   1
   2   2 -10 1608.81   53.75   1
   2   2  -9 4356.00  153.12   1
   2   2  -9 5527.92  157.62   1
   2   2  -8 1875.76   56.30   1
   2   2  -8 1561.83   56.12   1
   2   2  -7 1057.55   33.82   1
   2   2  -7  942.49   34.38   1
   2   2  -6 3372.12  120.79   1
   2   2  -6 3951.38  123.21   1
   2   2  -6 4290.25  119.21   1
   2   2  -5  307.30   10.87   1
   2   2  -5  250.91    9.50   1
   2   2  -5  279.56   10.37   1
   2   2  -5  263.74   11.04   1
   2   2  -4 2576.58   73.09   1
   2   2  -4 2135.36   75.78   1
   2   2  -4 2555.30   73.80   1
   2   2  -4 2175.29   72.76   1
   2   2  -318939.26  511.95   1
   2   2  -315833.19  518.42   1
   2   2  -316027.56  511.46   1
   2   2  -2 4898.60  159.58   1
   2   2  -2 5598.03  160.11   1
   2   2  -1 3684.49  105.62   1
   2   2  -1 3217.16  105.50   1
   2   2   0 1984.70   57.91   1
   2   2   0 1687.57   57.51   1
   2   2   1 5334.84  153.38   1
   2   2   1 4424.91  151.67   1
   2   2   2  910.83   29.58   1
   2   2   3 4975.89  152.37   1
   2   2   4   48.72    6.14   1
   2   2   4   35.64    7.04   1
   2   2   5  502.21   19.72   1
   2   3 -12  208.51   17.91   1
   2   3 -11 1689.21   63.29   1
   2   3 -10 1699.91   61.02   1
   2   3  -9  849.72   36.15   1
   2   3  -9 1104.90   33.24   1
   2   3  -8  -15.60    8.61   1
   2   3  -8    0.40    3.98   1
   2   3  -7 1681.82   50.03   1
   2   3  -7 1353.50   49.30   1
   2   3  -6 9846.59  273.87   1
   2   3  -6 9576.58  274.01   1
   2   3  -6 8482.41  272.62   1
   2   3  -6 7719.38  281.15   1
   2   3  -520996.01  602.78   1
   2   3  -517202.95  600.71   1
   2   3  -521523.83  601.51   1
   2   3  -4 6187.40  179.34   1
   2   3  -4 6258.39  181.95   1
   2   3  -4 5119.40  181.74   1
   2   3  -3 6406.40  208.10   1
   2   3  -3 6514.10  211.46   1
   2   3  -3 7640.51  209.78   1
   2   3  -210911.89  369.79   1
   2   3  -213414.27  368.31   1
   2   3  -110637.86  299.11   1
   2   3  -1 8689.97  296.44   1
   2   3   0 1936.00   54.56   1
   2   3   0 1543.70   54.22   1
   2   3   1   19.80    4.81   1
   2   3   1   25.91    5.90   1
   2   3   2 2479.04   88.63   1
   2   3   2 3132.64   87.31   1
   2   3   3 4591.42  145.01   1
   2   3   4   72.59   10.56   1
   2   3   4   60.84    9.05   1
   2   3   6 1739.72   64.23   1
   2   4 -12   -6.10   16.99   1
   2   4 -11 1603.20   57.66   1
   2   4 -10 1828.42   71.84   1
   2   4 -10 2196.80   64.68   1
   2   4  -9 2115.08   80.02   1
   2   4  -9 2400.02   71.53   1
   2   4  -8   33.64    7.08   1
   2   4  -8   49.84    7.06   1
   2   4  -8   45.97    4.75   1
   2   4  -7 2918.16   85.35   1
   2   4  -7 2820.67   82.85   1
   2   4  -7 2142.76   82.40   1
   2   4  -6 2227.84   64.19   1
   2   4  -6 2200.55   65.67   1
   2   4  -6 1671.17   64.59   1
   2   4  -5 3931.29  114.11   1
   2   4  -5 3937.56  114.21   1
   2   4  -5 3011.81  111.96   1
   2   4  -4  891.62   28.67   1
   2   4  -4  967.83   30.49   1
   2   4  -4  953.57   29.03   1
   2   4  -4  789.05   30.34   1
   2   4  -312521.61  331.22   1
   2   4  -3 9678.62  326.62   1
   2   4  -310168.71  326.72   1
   2   4  -2 8451.12  283.14   1
   2   4  -210838.89  283.18   1
   2   4  -2 8632.27  282.45   1
   2   4  -1  189.89    7.72   1
   2   4  -1  267.65   10.47   1
   2   4  -1  209.67   10.43   1
   2   4   0   17.31    6.41   1
   2   4   0   11.29    2.28   1
   2   4   0   30.69    7.98   1
   2   4   1 4546.81  157.79   1
   2   4   1 5774.48  159.58   1
   2   4   2 2437.40  288.32   1
   2   4   216837.66  295.85   1
   2   4   6   36.24   15.05   1
   2   5 -12   95.06   19.50   1
   2   5 -11   76.74   15.77   1
   2   5 -10  620.01   27.89   1
   2   5 -10  661.00   23.14   1
   2   5  -9  163.07   12.77   1
   2   5  -8 1936.00   73.92   1
   2   5  -8 2397.08   71.48   1
   2   5  -7 1089.00   44.22   1
   2   5  -7 1364.56   41.37   1
   2   5  -6 3855.17  111.76   1
   2   5  -6 2949.58  110.79   1
   2   5  -6 4011.96  117.81   1
   2   5  -5 1177.86   47.36   1
   2   5  -5 1592.81   46.30   1
   2   5  -5 1487.64   44.74   1
   2   5  -5 1305.38   44.08   1
   2   5  -4  319.34   11.44   1
   2   5  -4  286.96   13.21   1
   2   5  -4  362.90   14.86   1
   2   5  -4  382.20   12.51   1
   2   5  -3 2409.83   82.47   1
   2   5  -3 2561.37   77.94   1
   2   5  -2  756.80   23.11   1
   2   5  -2  590.98   20.91   1
   2   5  -2  548.50   22.01   1
   2   5  -1 1424.31   48.31   1
   2   5  -1 1839.55   51.47   1
   2   5  -1 1360.87   48.69   1
   2   5   0   54.32    8.84   1
   2   5   0   54.46   10.63   1
   2   5   0   36.72    3.27   1
   2   5   1   18.06    9.27   1
   2   5   3 7406.32  237.53   1
   2   5   4  569.30   26.25   1
   2   5   6 1329.33   63.44   1
   2   6 -12   64.64   15.44   1
   2   6 -11 1260.25   57.51   1
   2   6 -10  279.22   16.71   1
   2   6  -9  129.28   15.01   1
   2   6  -8  361.38   14.83   1
   2   6  -8  233.17   18.93   1
   2   6  -7  930.86   31.12   1
   2   6  -7 1082.41   32.90   1
   2   6  -7  842.16   33.08   1
   2   6  -6 2217.47   69.69   1
   2   6  -6 2497.00   69.96   1
   2   6  -6 1932.48   75.61   1
   2   6  -510807.68  347.23   1
   2   6  -5 9998.00  343.97   1
   2   6  -513105.67  348.02   1
   2   6  -4 2095.81   60.43   1
   2   6  -4 1774.94   58.98   1
   2   6  -4 1743.06   64.29   1
   2   6  -3   64.96    4.51   1
   2   6  -3   82.63    7.64   1
   2   6  -2 3580.83  111.30   1
   2   6  -2 3561.70  118.17   1
   2   6  -1 5358.24  168.36   1
   2   6  -1 5493.77  167.51   1
   2   6   0  296.53   11.71   1
   2   6   0  315.42   17.76   1
   2   6   1  648.72   24.96   1
   2   6   2   43.30    9.87   1
   2   6   3  209.38   17.07   1
   2   7 -12   -5.02   15.23   1
   2   7 -11  285.95   22.32   1
   2   7 -10 3300.50  144.77   1
   2   7  -9 4961.79  157.79   1
   2   7  -8  309.41   14.07   1
   2   7  -8  250.59   15.51   1
   2   7  -7  139.24   14.87   1
   2   7  -7  110.88    6.74   1
   2   7  -7  151.29   10.58   1
   2   7  -6  149.57    9.05   1
   2   7  -6   95.45    6.84   1
   2   7  -6   94.48   11.08   1
   2   7  -5  109.83    5.66   1
   2   7  -5  101.61   10.89   1
   2   7  -5  121.88    7.51   1
   2   7  -4   65.93   11.69   1
   2   7  -4   16.48    2.60   1
   2   7  -3   77.26   12.13   1
   2   7  -3   64.00    5.12   1
   2   7  -2  817.96   26.88   1
   2   7  -2  705.43   30.81   1
   2   7  -1 4571.11  141.98   1
   2   7  -1 4575.17  150.16   1
   2   7   0  568.82   25.28   1
   2   7   1  590.49   27.22   1
   2   7   3  521.21   31.51   1
   2   8 -11  457.96   27.39   1
   2   8 -10 1813.91   85.18   1
   2   8  -9 1816.46   88.65   1
   2   8  -9 1862.79   77.69   1
   2   8  -8   32.95   15.84   1
   2   8  -8   28.62    5.67   1
   2   8  -8   38.44   11.41   1
   2   8  -7   -3.80   10.30   1
   2   8  -7    9.30    4.21   1
   2   8  -7    6.50    9.18   1
   2   8  -6 3352.41   97.27   1
   2   8  -6 3098.04   94.62   1
   2   8  -6 2568.46  104.40   1
   2   8  -5 7506.49  239.13   1
   2   8  -5 7710.60  240.60   1
   2   8  -4 3306.25  110.40   1
   2   8  -4 3196.77  105.16   1
   2   8  -3    4.58    9.76   1
   2   8  -3   24.40    6.13   1
   2   8  -2   73.79   11.00   1
   2   8  -2   64.64    5.47   1
   2   8  -1 1374.93   46.72   1
   2   8  -1 1454.66   57.97   1
   2   8   0  958.52   34.06   1
   2   8   0  971.57   36.78   1
   2   8   1  870.25   45.43   1
   2   8   2 1292.40   64.71   1
   2   9  -9 1114.22   56.75   1
   2   9  -8   73.96   20.64   1
   2   9  -7   41.34   18.78   1
   2   9  -6 1952.76   85.73   1
   2   9  -5 3825.42  162.05   1
   2   9  -5 3634.88  154.34   1
   2   9  -4 1021.44   51.78   1
   2   9  -4 1076.50   44.62   1
   2   9  -3    4.00    6.48   1
   2   9  -3   -2.50   12.39   1
   2   9  -2 1048.46   45.33   1
   2   9  -2 1007.43   53.96   1
   2   9  -1 2966.98  123.10   1
   2   9  -1 2972.43  130.85   1
   2   9   0  373.26   25.50   1
   2  10  -6  245.24   27.25   1
   2  10  -5 1086.36   58.67   1
   2  10  -4  802.02   41.35   1
   3 -11   5   53.29   13.14   1
   3 -11   5   57.76   14.74   1
   3 -10   0 1051.70   50.59   1
   3 -10   0 1049.76   49.90   1
   3 -10   1   64.32   17.32   1
   3 -10   1   43.96   10.34   1
   3 -10   2  267.00   22.88   1
   3 -10   3  911.44   41.66   1
   3 -10   3  780.08   40.78   1
   3 -10   4  341.14   24.01   1
   3 -10   4  363.66   20.21   1
   3 -10   5   13.40   15.81   1
   3 -10   5    8.70    8.32   1
   3 -10   6  128.37   12.92   1
   3 -10   6  227.41   19.00   1
   3 -10   7  564.06   28.98   1
   3 -10   7  535.00   29.14   1
   3 -10   8  232.56   22.27   1
   3 -10   8  232.56   19.52   1
   3 -10   9  188.79   15.11   1
   3 -10   9  185.50   17.98   1
   3  -9  -3   12.53    9.84   1
   3  -9  -2  480.49   26.74   1
   3  -9  -2  525.33   28.42   1
   3  -9  -1 1504.66   65.94   1
   3  -9  -1 1490.73   67.18   1
   3  -9   0  766.18   30.45   1
   3  -9   0  790.17   30.92   1
   3  -9   1   32.15    9.98   1
   3  -9   1   32.83   11.92   1
   3  -9   2   44.76   11.11   1
   3  -9   2   47.06   13.31   1
   3  -9   3   19.01   10.73   1
   3  -9   3    0.50    9.13   1
   3  -9   4  577.92   23.56   1
   3  -9   4  568.35   22.89   1
   3  -9   5   -6.00   13.28   1
   3  -9   5   32.04    7.70   1
   3  -9   6   19.62    7.53   1
   3  -9   7  888.64   33.98   1
   3  -9   7  913.85   35.67   1
   3  -9   8 1180.61   51.54   1
   3  -9   8 1131.65   53.15   1
   3  -9   9  347.82   19.40   1
   3  -9   9  369.79   22.31   1
   3  -9  10   10.50    8.81   1
   3  -9  10   31.14   12.83   1
   3  -8  -4  227.10   15.67   1
   3  -8  -3  353.06   19.92   1
   3  -8  -2  827.71   32.22   1
   3  -8  -2  716.63   28.38   1
   3  -8  -1 5650.53  180.41   1
   3  -8  -1 5559.19  175.96   1
   3  -8   0 4460.90  130.91   1
   3  -8   0 3917.51  131.44   1
   3  -8   1  128.82   12.49   1
   3  -8   1  134.10    9.50   1
   3  -8   2   96.24   10.79   1
   3  -8   2  124.10   11.81   1
   3  -8   3 5012.64  148.68   1
   3  -8   3 4394.36  145.84   1
   3  -8   4 8026.37  266.98   1
   3  -8   4 9125.98  265.57   1
   3  -8   5  123.21    9.10   1
   3  -8   5  131.10    9.85   1
   3  -8   6   69.72    7.35   1
   3  -8   7  440.16   18.46   1
   3  -8   8  563.59   21.84   1
   3  -8   8  572.17   23.44   1
   3  -8   9   30.36    7.38   1
   3  -8   9   44.89   11.12   1
   3  -8  10  100.60   13.44   1
   3  -8  10  110.46   11.35   1
   3  -8  11  624.50   32.99   1
   3  -7  -6  272.58   19.48   1
   3  -7  -5  927.81   42.64   1
   3  -7  -4 1948.34   63.56   1
   3  -7  -3   91.01    9.35   1
   3  -7  -2  277.89   16.34   1
   3  -7  -2  291.04   15.01   1
   3  -7  -1 1538.21   53.34   1
   3  -7  -1 1760.64   53.71   1
   3  -7   0 2043.04   59.66   1
   3  -7   0 1564.99   56.97   1
   3  -7   0 1730.56   57.41   1
   3  -7   1  455.40   17.93   1
   3  -7   1  414.53   17.92   1
   3  -7   1  630.51   22.60   1
   3  -7   2 1637.82   50.18   1
   3  -7   2 1312.61   43.48   1
   3  -7   2 1096.27   42.38   1
   3  -7   3 8019.20  214.92   1
   3  -7   3 5855.31  208.13   1
   3  -7   3 6406.40  206.50   1
   3  -7   4 8123.42  237.94   1
   3  -7   4 7213.10  234.41   1
   3  -7   5  281.57   13.09   1
   3  -7   5  320.41   13.60   1
   3  -7   5  398.00   17.56   1
   3  -7   6   78.68    6.56   1
   3  -7   6   99.80   10.39   1
   3  -7   7   91.97    6.90   1
   3  -7   7  107.54   11.41   1
   3  -7   8  463.11   17.65   1
   3  -7   8  422.30   18.08   1
   3  -7   9  259.21   13.20   1
   3  -7   9  222.31   14.02   1
   3  -7  10    9.61    5.33   1
   3  -7  10   13.69    9.99   1
   3  -7  11   60.22   13.35   1
   3  -6  -7    8.29    8.18   1
   3  -6  -7    6.50   17.08   1
   3  -6  -6  415.75   26.91   1
   3  -6  -6  492.40   23.97   1
   3  -6  -5 1979.36   67.62   1
   3  -6  -5 2274.34   71.53   1
   3  -6  -4 2516.03   97.31   1
   3  -6  -4 3655.41   96.74   1
   3  -6  -3   50.84    6.56   1
   3  -6  -3   61.94    7.71   1
   3  -6  -2  874.38   31.94   1
   3  -6  -2 1073.22   33.42   1
   3  -6  -2  833.48   31.18   1
   3  -6  -1 4144.78  136.49   1
   3  -6  -1 3958.93  135.91   1
   3  -6  -1 5006.98  137.27   1
   3  -6   0 2236.34   63.37   1
   3  -6   0 1756.45   61.19   1
   3  -6   0 2135.36   62.85   1
   3  -6   0 1580.86   59.64   1
   3  -6   1  107.33    7.04   1
   3  -6   1   63.52    5.90   1
   3  -6   1   75.00    5.89   1
   3  -6   2  807.13   27.27   1
   3  -6   2 1028.48   30.79   1
   3  -6   2  713.42   27.24   1
   3  -6   3 1090.98   41.62   1
   3  -6   3 1523.34   44.49   1
   3  -6   3 1279.49   41.49   1
   3  -6   411918.09  312.23   1
   3  -6   4 9872.41  310.00   1
   3  -6   4 8798.44  309.54   1
   3  -6   5 1030.41   36.59   1
   3  -6   5 1284.51   40.14   1
   3  -6   5 1114.22   37.39   1
   3  -6   6  197.12   13.20   1
   3  -6   6  163.33   10.74   1
   3  -6   7 1916.69   63.04   1
   3  -6   7 2003.46   66.24   1
   3  -6   8 2694.65   78.90   1
   3  -6   8 2297.28   81.48   1
   3  -6   9 1728.90   54.05   1
   3  -6   9 1645.92   56.80   1
   3  -6  10  173.71    9.75   1
   3  -6  10  164.87   12.58   1
   3  -6  11  144.00   13.92   1
   3  -6  12  360.24   23.54   1
   3  -5  -7   -0.10   14.17   1
   3  -5  -7   16.08    8.66   1
   3  -5  -6   17.39    7.76   1
   3  -5  -6   32.83   12.84   1
   3  -5  -6   34.81    8.85   1
   3  -5  -5   72.42   10.21   1
   3  -5  -5   63.68    6.54   1
   3  -5  -4 6625.96  187.22   1
   3  -5  -4 6414.41  187.41   1
   3  -5  -4 5028.23  184.37   1
   3  -5  -3   18.66    4.58   1
   3  -5  -3   27.56    4.51   1
   3  -5  -2   50.69    6.55   1
   3  -5  -2   71.06    7.25   1
   3  -5  -2   77.97    5.83   1
   3  -5  -2   64.48    6.42   1
   3  -5  -2   63.20    9.22   1
   3  -5  -1   84.27    9.00   1
   3  -5  -1   16.48    4.22   1
   3  -5  -1   29.05    4.74   1
   3  -5  -1   33.64    4.29   1
   3  -5   0 2365.85   64.20   1
   3  -5   0 2139.99   63.84   1
   3  -5   0 1536.64   61.94   1
   3  -5   1  289.68   10.89   1
   3  -5   1  231.34   10.65   1
   3  -5   1  305.90   10.84   1
   3  -5   2 1625.70   51.61   1
   3  -5   2 1827.56   51.30   1
   3  -5   2 1369.74   50.33   1
   3  -5   3 1897.47   67.95   1
   3  -5   3 2177.16   69.99   1
   3  -5   3 2461.15   68.46   1
   3  -5   4  808.26   26.72   1
   3  -5   4  812.82   27.37   1
   3  -5   5  147.62    8.99   1
   3  -5   5  159.52    7.33   1
   3  -5   5  160.28    8.86   1
   3  -5   6  105.47    9.86   1
   3  -5   6  125.44    7.17   1
   3  -5   6   97.02    6.70   1
   3  -5   7 1227.80   40.65   1
   3  -5   7  956.05   35.87   1
   3  -5   8  143.28    9.58   1
   3  -5   8  165.38    7.97   1
   3  -5   9  564.54   24.24   1
   3  -5   9  691.69   22.09   1
   3  -5  10  210.83    8.71   1
   3  -5  10  127.24   12.18   1
   3  -5  11  186.32   18.29   1
   3  -5  12   83.36   18.81   1
   3  -4  -9 1510.10   69.17   1
   3  -4  -8 2320.35   89.60   1
   3  -4  -8 2603.04   81.63   1
   3  -4  -7  872.02   30.12   1
   3  -4  -7  778.97   32.93   1
   3  -4  -6   17.47    6.35   1
   3  -4  -6    0.50   10.85   1
   3  -4  -6   10.30    6.87   1
   3  -4  -5  183.87    9.76   1
   3  -4  -5  174.77   10.84   1
   3  -4  -5  153.51    8.43   1
   3  -4  -411498.27  405.33   1
   3  -4  -415121.62  410.72   1
   3  -4  -3 2487.02   73.81   1
   3  -4  -3 2387.30   71.34   1
   3  -4  -3 2302.08   71.01   1
   3  -4  -3 1817.32   69.91   1
   3  -4  -2  336.72   13.95   1
   3  -4  -2  439.32   15.51   1
   3  -4  -2  408.85   14.15   1
   3  -4  -2  452.41   14.89   1
   3  -4  -1 1428.84   49.90   1
   3  -4  -1 1784.22   52.38   1
   3  -4  -1 1587.23   51.79   1
   3  -4  -1 1331.52   48.17   1
   3  -4   017043.30  621.42   1
   3  -4   024913.46  625.05   1
   3  -4   019656.04  619.68   1
   3  -4   1  763.42   24.87   1
   3  -4   1  627.50   22.54   1
   3  -4   1  709.16   22.37   1
   3  -4   2  607.13   19.71   1
   3  -4   2  630.01   19.58   1
   3  -4   2  533.15   19.86   1
   3  -4   3 1535.86   48.60   1
   3  -4   3 1689.21   50.96   1
   3  -4   3 1403.25   47.95   1
   3  -4   4 6510.88  182.36   1
   3  -4   4 5722.92  180.05   1
   3  -4   4 5521.98  179.83   1
   3  -4   5  965.34   30.45   1
   3  -4   5  910.23   29.57   1
   3  -4   5  854.98   30.41   1
   3  -4   6  239.63    9.60   1
   3  -4   6  258.89   11.26   1
   3  -4   6  274.23   13.25   1
   3  -4   7  271.26   12.85   1
   3  -4   7  310.46   15.51   1
   3  -4   7  286.62   10.50   1
   3  -4   8 2355.16   71.82   1
   3  -4   8 2078.45   72.03   1
   3  -4   9 3730.77  118.50   1
   3  -4  10  216.09   13.82   1
   3  -4  11  126.56   13.50   1
   3  -4  12   -9.80   12.02   1
   3  -3 -10   80.46   19.73   1
   3  -3  -9 1037.48   49.60   1
   3  -3  -8 1931.60   65.93   1
   3  -3  -7 3994.24  126.40   1
   3  -3  -6   53.00    4.95   1
   3  -3  -6   71.74    7.96   1
   3  -3  -5  261.79   11.65   1
   3  -3  -5  178.49   11.49   1
   3  -3  -5  153.76   10.66   1
   3  -3  -5  231.34   11.56   1
   3  -3  -4 8125.22  299.26   1
   3  -3  -410909.80  300.82   1
   3  -3  -411056.52  296.52   1
   3  -3  -4 8183.01  291.28   1
   3  -3  -4 9753.54  294.30   1
   3  -3  -3 3164.06   93.38   1
   3  -3  -3 3267.27   92.60   1
   3  -3  -3 2530.09   91.55   1
   3  -3  -3 2939.81   92.17   1
   3  -3  -2 9812.88  273.41   1
   3  -3  -2 9745.64  272.47   1
   3  -3  -2 7404.60  273.64   1
   3  -3  -2 8798.44  275.77   1
   3  -3  -117368.60  445.45   1
   3  -3  -112227.94  444.53   1
   3  -3  -114549.19  443.88   1
   3  -3   0 5389.03  161.50   1
   3  -3   0 5181.12  164.11   1
   3  -3   1  964.10   32.91   1
   3  -3   1 1062.76   32.60   1
   3  -3   2  486.20   15.43   1
   3  -3   2  425.60   15.27   1
   3  -3   2  485.32   15.42   1
   3  -3   3 2556.31   74.83   1
   3  -3   3 2216.53   76.27   1
   3  -3   3 2461.15   76.40   1
   3  -3   4 5377.29  159.86   1
   3  -3   4 4998.49  162.61   1
   3  -3   5 3858.89  124.24   1
   3  -3   5 4193.86  123.04   1
   3  -3   5 3758.92  125.07   1
   3  -3   6  616.03   22.34   1
   3  -3   6  588.06   19.89   1
   3  -3   7   29.05    5.07   1
   3  -3   7   27.25    6.06   1
   3  -3   8  254.72   12.13   1
   3  -3   9 1401.75   47.17   1
   3  -3  10   11.02    9.03   1
   3  -3  12  -32.26   13.06   1
   3  -2 -11   45.16   15.19   1
   3  -2  -9 1574.50   67.46   1
   3  -2  -9 1885.30   56.45   1
   3  -2  -8 2308.80   69.19   1
   3  -2  -8 2049.37   76.05   1
   3  -2  -7   -2.59    6.50   1
   3  -2  -7    9.30    5.12   1
   3  -2  -6  228.92   12.41   1
   3  -2  -6  317.55   13.54   1
   3  -2  -6  253.76   10.20   1
   3  -2  -6  317.20   13.18   1
   3  -2  -5 1745.57   51.81   1
   3  -2  -5 1860.20   53.48   1
   3  -2  -5 1442.48   50.89   1
   3  -2  -5 1363.82   53.18   1
   3  -2  -412505.95  337.73   1
   3  -2  -4 9753.54  339.73   1
   3  -2  -412510.42  337.79   1
   3  -2  -4 9631.46  337.60   1
   3  -2  -3 1137.71   41.15   1
   3  -2  -3 1435.65   42.44   1
   3  -2  -3 1447.04   46.41   1
   3  -2  -2 4569.76  127.09   1
   3  -2  -2 3322.37  125.66   1
   3  -2  -2 4519.87  126.39   1
   3  -2  -1 5176.80  141.02   1
   3  -2  -1 4047.50  139.96   1
   3  -2   012360.99  364.67   1
   3  -2   011653.20  364.87   1
   3  -2   1 2973.52   97.06   1
   3  -2   1 3018.40   96.69   1
   3  -2   1 3444.52   96.25   1
   3  -2   212349.88  377.84   1
   3  -2   212323.22  379.65   1
   3  -2   212622.52  377.50   1
   3  -2   316861.02  488.24   1
   3  -2   315577.54  489.26   1
   3  -2   315455.46  482.36   1
   3  -2   4 9574.62  307.25   1
   3  -2   410793.13  307.51   1
   3  -2   4 9836.67  309.44   1
   3  -2   5 3396.56  101.41   1
   3  -2   5 2982.25   98.30   1
   3  -2   6   62.41    5.53   1
   3  -2   6   70.06    6.19   1
   3  -2   7  111.51   10.56   1
   3  -2   7   88.36    8.65   1
   3  -2   8  573.60   21.56   1
   3  -2   9 2530.09   87.52   1
   3  -2  10  135.49   12.34   1
   3  -2  11   87.98   17.26   1
   3  -1 -11  187.69   17.81   1
   3  -1 -10  103.23   11.99   1
   3  -1  -8   59.75   10.05   1
   3  -1  -7  358.34   14.01   1
   3  -1  -7  218.15   12.41   1
   3  -1  -7  334.52   16.10   1
   3  -1  -6 3739.32  107.62   1
   3  -1  -6 3118.11  101.63   1
   3  -1  -6 2862.25  107.00   1
   3  -1  -6 3616.82  104.64   1
   3  -1  -5 2183.69   64.49   1
   3  -1  -5 2199.61   62.85   1
   3  -1  -5 1897.47   62.73   1
   3  -1  -5 1728.90   65.70   1
   3  -1  -427453.18  828.45   1
   3  -1  -318136.01  611.40   1
   3  -1  -324040.50  617.10   1
   3  -1  -318744.35  621.57   1
   3  -1  -2 1528.81   54.74   1
   3  -1  -2 1891.38   58.28   1
   3  -1  -2 1958.06   55.76   1
   3  -1  -1 1475.33   46.86   1
   3  -1   0 2356.13   72.81   1
   3  -1   1 2316.50   67.38   1
   3  -1   1 2072.07   67.37   1
   3  -1   2 2819.61   87.08   1
   3  -1  10   17.31   10.23   1
   3  -1  11   14.21   11.91   1
   3   0 -12  845.65   48.85   1
   3   0 -11  592.92   36.53   1
   3   0 -10   91.97   10.93   1
   3   0  -9   82.63    9.27   1
   3   0  -8 2483.03   73.75   1
   3   0  -8 2028.60   79.27   1
   3   0  -7  200.79   10.77   1
   3   0  -7  168.74   10.91   1
   3   0  -7  165.38   12.09   1
   3   0  -6  124.10    8.47   1
   3   0  -6  197.12    9.83   1
   3   0  -6  192.65    8.88   1
   3   0  -5   18.66    3.72   1
   3   0  -5   10.63    3.98   1
   3   0  -416202.74  549.89   1
   3   0  -419849.99  543.84   1
   3   0  -3 2951.75   89.10   1
   3   0  -3 3085.80   89.99   1
   3   0  -3 2674.96   92.06   1
   3   0  -2 2412.77   71.72   1
   3   0  -2 2215.58   72.49   1
   3   0  -2 2292.49   72.78   1
   3   0  -1   35.64    1.91   1
   3   0  -1   22.94    2.11   1
   3   0   0 2372.66   73.07   1
   3   0   119895.10  567.02   1
   3   0   117421.36  564.92   1
   3   0   2 3760.14  128.77   1
   3   0   2 4495.70  127.40   1
   3   0   3  178.49    7.21   1
   3   0   4 4752.72  146.15   1
   3   0   5 1580.86   50.10   1
   3   0   6   40.45    9.29   1
   3   1 -12  949.26   47.45   1
   3   1 -11  656.90   32.29   1
   3   1 -10  273.90   17.21   1
   3   1  -9 4884.61  155.16   1
   3   1  -8 9856.52  299.83   1
   3   1  -7  372.49   14.67   1
   3   1  -7  352.69   14.27   1
   3   1  -7  265.36   12.38   1
   3   1  -6  897.60   28.76   1
   3   1  -6  863.77   28.21   1
   3   1  -6  736.04   28.22   1
   3   1  -5 4587.35  149.01   1
   3   1  -5 4230.20  146.99   1
   3   1  -5 5318.79  144.40   1
   3   1  -4  987.22   28.91   1
   3   1  -4  911.44   29.59   1
   3   1  -4  806.56   29.54   1
   3   1  -4  870.84   29.51   1
   3   1  -320871.58  583.66   1
   3   1  -318049.92  588.45   1
   3   1  -318884.26  582.66   1
   3   1  -2 8941.59  298.81   1
   3   1  -210393.80  295.65   1
   3   1  -1  158.26    7.04   1
   3   1  -1  171.87    6.55   1
   3   1   0  983.45   31.36   1
   3   1   2 3381.42  118.63   1
   3   1   2 3984.13  117.40   1
   3   1   3 2649.16   83.38   1
   3   1   4 1327.14   43.72   1
   3   1   5 5005.56  157.07   1
   3   2 -12  486.20   32.19   1
   3   2 -11  658.95   31.83   1
   3   2 -10  109.83   13.41   1
   3   2  -9  155.25    9.22   1
   3   2  -9  148.84   10.74   1
   3   2  -8 4599.55  158.70   1
   3   2  -8 5361.17  155.23   1
   3   2  -7 5181.12  159.80   1
   3   2  -7 5695.72  161.51   1
   3   2  -7 4538.72  157.65   1
   3   2  -6  982.82   38.25   1
   3   2  -6  984.08   35.76   1
   3   2  -6 1151.92   35.98   1
   3   2  -6 1134.34   36.37   1
   3   2  -5 3731.99  105.07   1
   3   2  -5 3331.60  107.36   1
   3   2  -5 2961.54  108.84   1
   3   2  -5 3555.74  106.14   1
   3   2  -415052.84  485.85   1
   3   2  -416991.12  484.90   1
   3   2  -3 1931.60   67.68   1
   3   2  -3 2187.43   67.35   1
   3   2  -3 2348.37   67.84   1
   3   2  -2  276.22   10.64   1
   3   2  -1   14.90    2.93   1
   3   2  -1   18.66    3.28   1
   3   2   0 6839.29  211.71   1
   3   2   1 8264.63  256.37   1
   3   2   2    8.70    4.43   1
   3   2   3  333.79   13.15   1
   3   2   3  274.23   12.59   1
   3   2   4  298.94   14.18   1
   3   2   5 1742.23   63.44   1
   3   3 -12  480.05   27.17   1
   3   3 -11  690.64   31.01   1
   3   3 -10  616.53   25.33   1
   3   3 -10  700.66   25.41   1
   3   3  -9  973.44   38.06   1
   3   3  -9 1141.09   37.83   1
   3   3  -8 2657.40   80.42   1
   3   3  -8 2412.77   87.43   1
   3   3  -7 4526.60  169.55   1
   3   3  -7 5390.50  162.99   1
   3   3  -7 5039.58  160.44   1
   3   3  -7 5685.16  162.86   1
   3   3  -6 3827.90  113.84   1
   3   3  -6 3325.83  113.03   1
   3   3  -6 4161.54  116.12   1
   3   3  -6 3203.56  112.07   1
   3   3  -5 2036.72   76.72   1
   3   3  -5 2598.96   73.41   1
   3   3  -5 2488.01   72.82   1
   3   3  -5 2180.89   72.85   1
   3   3  -4 4603.62  132.99   1
   3   3  -4 3735.65  133.24   1
   3   3  -4 4483.64  132.58   1
   3   3  -312784.83  386.70   1
   3   3  -2 7363.36  247.13   1
   3   3  -2 8731.03  246.68   1
   3   3  -1 3928.78  111.57   1
   3   3  -1 3251.28  112.90   1
   3   3   0 4482.30  124.53   1
   3   3   0 3578.43  128.01   1
   3   3   113326.39  408.66   1
   3   3   2 5961.38  183.76   1
   3   3   3   91.58    8.61   1
   3   3   5 1401.75   48.67   1
   3   4 -11 1564.99   64.09   1
   3   4 -10  256.64   18.90   1
   3   4 -10  331.97   14.21   1
   3   4  -9   -7.18    5.47   1
   3   4  -9   20.52    7.52   1
   3   4  -8  182.79    8.11   1
   3   4  -8  177.42   10.39   1
   3   4  -7   35.64    3.34   1
   3   4  -7   25.60    6.48   1
   3   4  -6   14.59    2.06   1
   3   4  -6   22.75    5.53   1
   3   4  -6   12.67    6.98   1
   3   4  -6   24.80    7.47   1
   3   4  -5 6159.11  219.74   1
   3   4  -5 8017.41  216.69   1
   3   4  -4 1658.12   49.68   1
   3   4  -4 1742.23   50.09   1
   3   4  -4 1302.49   49.08   1
   3   4  -3 3237.61  119.49   1
   3   4  -3 4199.04  116.64   1
   3   4  -2  807.13   26.14   1
   3   4  -2  626.00   24.52   1
   3   4  -1 1812.20   57.90   1
   3   4   0  351.56   13.88   1
   3   4   0  273.90   14.23   1
   3   4   1 9038.30  252.89   1
   3   4   1 7332.50  256.89   1
   3   4   2 3058.09   89.59   1
   3   4   2 2250.55   88.24   1
   3   4   4 2083.92   79.43   1
   3   4   5 2671.86   86.84   1
   3   5 -12  817.39   47.46   1
   3   5 -11 1352.03   64.72   1
   3   5 -10  138.53    8.24   1
   3   5 -10  121.00   14.96   1
   3   5  -9  412.09   15.83   1
   3   5  -9  370.56   18.86   1
   3   5  -8  353.44   12.41   1
   3   5  -8  289.00   17.00   1
   3   5  -7 1494.60   43.30   1
   3   5  -7 1166.91   40.31   1
   3   5  -7 1077.15   42.01   1
   3   5  -6 3111.41  110.44   1
   3   5  -6 3165.19  100.14   1
   3   5  -6 3439.82   99.71   1
   3   5  -5 6406.40  180.89   1
   3   5  -5 5055.21  177.75   1
   3   5  -4 1380.87   55.00   1
   3   5  -4 1819.02   52.89   1
   3   5  -4 1761.48   54.56   1
   3   5  -3 3458.62  118.80   1
   3   5  -3 4266.70  122.80   1
   3   5  -2 1529.59   59.45   1
   3   5  -2 1973.14   59.52   1
   3   5  -1   35.64    7.64   1
   3   5  -1   35.05    6.51   1
   3   5   0   54.32    7.81   1
   3   5   1 6784.82  217.46   1
   3   5   3  808.83   32.42   1
   3   5   5  104.24   17.97   1
   3   6 -12  595.85   36.13   1
   3   6 -11 1288.09   61.73   1
   3   6 -10 1120.24   50.21   1
   3   6  -9  192.93   14.17   1
   3   6  -8 1422.04   52.04   1
   3   6  -8 1578.47   50.85   1
   3   6  -8 1663.82   50.58   1
   3   6  -7 9892.29  262.57   1
   3   6  -7 7937.03  274.40   1
   3   6  -7 7726.41  260.18   1
   3   6  -7 8381.40  260.00   1
   3   6  -6  267.65   13.42   1
   3   6  -6  293.44   12.68   1
   3   6  -5 1497.69   58.82   1
   3   6  -5 2022.30   57.56   1
   3   6  -4   45.16    8.20   1
   3   6  -3 5314.41  170.59   1
   3   6  -2 4269.31  134.60   1
   3   6  -1  586.12   24.69   1
   3   6   0   -3.80    8.70   1
   3   6   1 3040.42  101.46   1
   3   6   2  476.11   25.75   1
   3   6   5  202.49   23.62   1
   3   7 -11 1135.69   57.29   1
   3   7 -10  366.34   26.41   1
   3   7  -9  356.83   20.02   1
   3   7  -8  914.46   39.31   1
   3   7  -7 2660.50   92.84   1
   3   7  -7 2830.24   89.38   1
   3   7  -7 3213.76   92.97   1
   3   7  -6 4240.61  139.36   1
   3   7  -6 5326.08  145.96   1
   3   7  -6 4231.50  148.31   1
   3   7  -5 1324.23   48.76   1
   3   7  -5 1292.40   41.70   1
   3   7  -4  853.22   32.13   1
   3   7  -3   15.21   13.03   1
   3   7  -2 1801.15   61.96   1
   3   7  -1  148.11   12.90   1
   3   7   0   41.34   10.93   1
   3   7   3    5.81   18.41   1
   3   8 -10  392.83   31.71   1
   3   8  -9  120.12   21.26   1
   3   8  -8   60.06   17.67   1
   3   8  -7 2657.40  121.66   1
   3   8  -6 2567.45   91.21   1
   3   8  -5  582.74   25.59   1
   3   8  -4 1166.22   47.13   1
   3   8  -3 2811.12   93.32   1
   3   8  -2 2935.47  105.11   1
   3   8  -1 1021.44   50.50   1
   3   8   0  276.56   20.29   1
   3   9  -8  134.33   17.85   1
   3   9  -7  362.52   29.32   1
   3   9  -6 1853.30   81.79   1
   3   9  -5  732.24   42.21   1
   3   9  -4  138.06   20.91   1
   3   9  -3  468.29   28.13   1
   3   9  -2 1008.06   53.98   1
   3   9  -1  400.00   30.80   1
   4 -10   0   27.46   17.19   1
   4 -10   1   28.41   10.55   1
   4 -10   1   51.84   16.56   1
   4 -10   2 1062.76   46.94   1
   4 -10   2  832.90   43.87   1
   4 -10   3  444.37   25.30   1
   4 -10   3  365.57   22.18   1
   4 -10   4  558.85   27.42   1
   4 -10   4  503.10   26.92   1
   4 -10   5  424.36   24.72   1
   4 -10   5  416.16   23.26   1
   4 -10   6  465.26   25.02   1
   4 -10   6  439.74   24.33   1
   4 -10   7  278.22   19.02   1
   4 -10   7  289.34   19.05   1
   4 -10   8   17.22   10.13   1
   4  -9  -2 1118.23   51.50   1
   4  -9  -1 1308.99   59.34   1
   4  -9  -1 1353.50   60.34   1
   4  -9   0   62.09   12.77   1
   4  -9   0   39.19   14.27   1
   4  -9   1 1188.87   40.00   1
   4  -9   1  988.47   39.61   1
   4  -9   2 2326.13   81.99   1
   4  -9   2 2631.69   81.05   1
   4  -9   3   81.18    9.55   1
   4  -9   3   43.96    9.55   1
   4  -9   4   98.01   13.07   1
   4  -9   4   75.34   11.28   1
   4  -9   5  277.22   14.32   1
   4  -9   5  277.89   14.34   1
   4  -9   6 1013.79   38.21   1
   4  -9   6 1106.89   38.59   1
   4  -9   7  527.16   26.63   1
   4  -9   7  552.72   26.80   1
   4  -9   8  247.75   17.00   1
   4  -9   8  204.78   16.31   1
   4  -9   9   17.81    8.44   1
   4  -9   9   -8.70   11.68   1
   4  -9  10  470.46   26.46   1
   4  -8  -4   13.10   14.48   1
   4  -8  -3  390.06   23.30   1
   4  -8  -2 1218.71   43.99   1
   4  -8  -1  421.07   18.06   1
   4  -8  -1  433.47   19.57   1
   4  -8   0   -9.30   11.28   1
   4  -8   0    4.41    7.01   1
   4  -8   1  982.82   36.99   1
   4  -8   1 1071.91   35.36   1
   4  -8   2 1899.22   59.27   1
   4  -8   2 1681.82   59.05   1
   4  -8   3 4296.80  145.52   1
   4  -8   3 4975.89  145.31   1
   4  -8   4 1559.46   49.76   1
   4  -8   4 1359.40   48.67   1
   4  -8   5   40.83    7.03   1
   4  -8   5   29.38   10.19   1
   4  -8   6  933.91   36.06   1
   4  -8   6  996.03   34.08   1
   4  -8   7  364.05   16.41   1
   4  -8   7  307.30   18.23   1
   4  -8   8    4.00    8.68   1
   4  -8   8    6.30    7.08   1
   4  -8   9   -7.40    9.68   1
   4  -8   9   34.11   10.51   1
   4  -8  10   88.36    9.78   1
   4  -8  10   78.50   12.76   1
   4  -7  -6  451.99   24.66   1
   4  -7  -5  389.27   22.89   1
   4  -7  -4  629.01   25.58   1
   4  -7  -3  871.43   33.06   1
   4  -7  -2 4101.12  129.36   1
   4  -7  -1 2875.10   84.72   1
   4  -7  -1 2093.98   76.88   1
   4  -7  -1 2345.46   76.52   1
   4  -7   0 1571.33   52.32   1
   4  -7   0 1833.55   54.81   1
   4  -7   0 1490.73   54.05   1
   4  -7   1  429.73   17.00   1
   4  -7   1  364.81   17.19   1
   4  -7   1  447.32   17.34   1
   4  -7   2 1876.62   68.45   1
   4  -7   2 2092.15   68.61   1
   4  -7   2 2491.01   69.87   1
   4  -7   3 4694.99  163.08   1
   4  -7   3 5918.23  173.86   1
   4  -7   3 5280.93  162.78   1
   4  -7   4 1555.51   52.06   1
   4  -7   4 1418.28   51.22   1
   4  -7   4 1820.73   52.91   1
   4  -7   5  792.42   29.84   1
   4  -7   5  900.00   31.20   1
   4  -7   5  943.72   31.95   1
   4  -7   6  575.52   22.07   1
   4  -7   6  631.01   23.11   1
   4  -7   7  229.83   13.95   1
   4  -7   7  222.90   11.35   1
   4  -7   8  772.28   27.23   1
   4  -7   9   62.57   14.24   1
   4  -7   9  106.92   10.34   1
   4  -7  10  235.93   15.97   1
   4  -7  11  151.54   15.02   1
   4  -6  -7   19.10   13.02   1
   4  -6  -7    3.39   12.59   1
   4  -6  -6  890.43   40.58   1
   4  -6  -5 1156.68   44.89   1
   4  -6  -5 1389.05   47.71   1
   4  -6  -4  161.29   10.41   1
   4  -6  -4  160.53   10.90   1
   4  -6  -3  327.97   15.57   1
   4  -6  -3  444.79   16.03   1
   4  -6  -2 1649.98   59.31   1
   4  -6  -2 2005.25   60.90   1
   4  -6  -1 2412.77   86.45   1
   4  -6  -1 2675.99   86.91   1
   4  -6  -1 3255.84   92.44   1
   4  -6   0  511.66   16.74   1
   4  -6   0  431.81   16.21   1
   4  -6   0  394.82   16.29   1
   4  -6   1   11.70    5.40   1
   4  -6   1   18.06    4.93   1
   4  -6   1    8.70    5.61   1
   4  -6   2 1058.85   31.89   1
   4  -6   2  933.30   31.16   1
   4  -6   2  745.84   29.49   1
   4  -6   3 2592.85   90.64   1
   4  -6   3 3340.84   98.26   1
   4  -6   3 2914.92   91.78   1
   4  -6   4  126.11    8.09   1
   4  -6   4   99.00    7.16   1
   4  -6   4  130.87    7.78   1
   4  -6   5  676.00   23.92   1
   4  -6   5  721.46   25.79   1
   4  -6   5  727.92   25.36   1
   4  -6   6  434.72   17.93   1
   4  -6   6  518.47   18.67   1
   4  -6   6  441.42   16.81   1
   4  -6   7 2419.66   79.69   1
   4  -6   7 2523.05   78.36   1
   4  -6   8 1454.66   45.77   1
   4  -6   8 1319.14   47.22   1
   4  -6   9    8.88    5.60   1
   4  -6   9    2.69    7.68   1
   4  -6  10  204.78   15.45   1
   4  -6  10  217.86   12.40   1
   4  -6  11  792.99   39.42   1
   4  -5  -8   11.97   11.28   1
   4  -5  -8   12.89   17.02   1
   4  -5  -7  276.22   22.94   1
   4  -5  -7  298.60   17.97   1
   4  -5  -6  833.48   32.33   1
   4  -5  -6  849.72   30.32   1
   4  -5  -5 1308.99   41.25   1
   4  -5  -5  986.59   38.32   1
   4  -5  -4   23.72    5.26   1
   4  -5  -4   26.73   11.17   1
   4  -5  -4   20.79    7.02   1
   4  -5  -3  340.77   12.92   1
   4  -5  -3  242.42   11.83   1
   4  -5  -3  290.36   14.31   1
   4  -5  -2 3886.28  134.65   1
   4  -5  -2 4865.06  136.71   1
   4  -5  -1  847.39   30.86   1
   4  -5  -1  964.10   31.05   1
   4  -5  -1 1156.68   35.37   1
   4  -5  -1  777.85   30.12   1
   4  -5   0   11.49    5.02   1
   4  -5   0    8.12    4.10   1
   4  -5   0    9.30    2.81   1
   4  -5   1  455.82   14.94   1
   4  -5   1  487.97   17.23   1
   4  -5   1  376.36   15.13   1
   4  -5   2 5823.22  172.46   1
   4  -5   2 6059.06  172.80   1
   4  -5   2 4919.62  171.14   1
   4  -5   3  761.76   24.29   1
   4  -5   3  779.53   23.45   1
   4  -5   3  621.01   23.92   1
   4  -5   4 1120.91   36.83   1
   4  -5   4 1025.92   35.87   1
   4  -5   4 1210.34   36.88   1
   4  -5   5   10.11    4.20   1
   4  -5   5   27.25    4.91   1
   4  -5   5   14.29    4.08   1
   4  -5   6  264.06   10.40   1
   4  -5   6  243.05   13.41   1
   4  -5   6  230.13   11.23   1
   4  -5   7  974.69   32.47   1
   4  -5   7 1011.88   35.63   1
   4  -5   7  913.25   33.24   1
   4  -5   8 1555.51   48.91   1
   4  -5   8 1371.96   48.89   1
   4  -5   9   -8.12    4.50   1
   4  -5   9   -3.10   11.09   1
   4  -5  10    3.39    8.87   1
   4  -5  11   79.39   11.76   1
   4  -4  -9 1060.80   53.41   1
   4  -4  -8   72.93   16.57   1
   4  -4  -8   90.25    8.93   1
   4  -4  -7  726.30   24.79   1
   4  -4  -7  617.03   30.30   1
   4  -4  -6 2853.70   87.61   1
   4  -4  -6 2700.88   94.59   1
   4  -4  -5 8643.42  265.89   1
   4  -4  -5 8624.84  269.32   1
   4  -4  -4 3226.24   88.61   1
   4  -4  -4 2770.97   88.44   1
   4  -4  -4 2420.64   87.58   1
   4  -4  -3 1075.84   38.05   1
   4  -4  -3 1294.56   43.18   1
   4  -4  -2 3558.12  130.04   1
   4  -4  -2 4991.42  138.47   1
   4  -4  -1 2001.67   73.37   1
   4  -4  -1 2422.61   77.77   1
   4  -4  -1 2797.35   77.22   1
   4  -4   0 4424.91  127.72   1
   4  -4   0 3725.88  126.96   1
   4  -4   0 4269.31  128.07   1
   4  -4   1 3684.49  109.26   1
   4  -4   1 3078.03  105.41   1
   4  -4   1 3524.80  105.68   1
   4  -4   210739.18  317.11   1
   4  -4   2 9558.97  314.82   1
   4  -4   210809.76  316.07   1
   4  -4   3 1697.44   50.26   1
   4  -4   3 1461.53   48.93   1
   4  -4   3 1538.99   50.21   1
   4  -4   4 1070.60   34.68   1
   4  -4   4 1098.26   35.13   1
   4  -4   4  946.18   33.84   1
   4  -4   5 2984.44   95.06   1
   4  -4   5 3165.19   96.77   1
   4  -4   6  101.00    9.65   1
   4  -4   6   86.86    6.71   1
   4  -4   6   71.57    7.11   1
   4  -4   7 1774.09   61.50   1
   4  -4   7 1998.09   62.58   1
   4  -4   7 1925.45   60.55   1
   4  -4   8 2032.21   64.01   1
   4  -4   8 1874.89   64.95   1
   4  -4   9  -14.06    7.57   1
   4  -4  10    1.39    8.97   1
   4  -4  11   99.40   12.56   1
   4  -3 -10  466.99   32.85   1
   4  -3  -9 1371.96   74.08   1
   4  -3  -9 1568.95   63.38   1
   4  -3  -8  295.84   13.76   1
   4  -3  -7  719.85   24.68   1
   4  -3  -7  660.49   26.73   1
   4  -3  -6  183.06   13.53   1
   4  -3  -6  238.70   12.05   1
   4  -3  -6  194.60   10.60   1
   4  -3  -5 1428.84   45.36   1
   4  -3  -5 1181.30   41.24   1
   4  -3  -5 1099.59   47.09   1
   4  -3  -5 1476.86   44.58   1
   4  -3  -4 1823.29   56.36   1
   4  -3  -4 1397.26   50.09   1
   4  -3  -4 1645.11   54.35   1
   4  -3  -3  257.92   11.88   1
   4  -3  -3  353.82   13.17   1
   4  -3  -3  283.25   12.79   1
   4  -3  -3  240.25   11.47   1
   4  -3  -3  274.56   10.60   1
   4  -3  -2   34.22    6.55   1
   4  -3  -2   82.81    4.73   1
   4  -3  -2   14.52    5.03   1
   4  -3  -1 7537.71  194.48   1
   4  -3  -1 5872.16  193.11   1
   4  -3  -1 5464.17  190.71   1
   4  -3   0 4083.21  126.52   1
   4  -3   0 4057.69  124.85   1
   4  -3   1  539.63   17.65   1
   4  -3   1  526.70   18.82   1
   4  -3   212472.42  359.61   1
   4  -3   211282.69  359.02   1
   4  -3   3  293.44    9.94   1
   4  -3   3  275.23    9.95   1
   4  -3   3  267.65   11.45   1
   4  -3   4  243.98   10.62   1
   4  -3   4  256.32    9.93   1
   4  -3   4  273.24   10.25   1
   4  -3   5  217.86   10.04   1
   4  -3   5  249.64   10.43   1
   4  -3   5  234.09   10.10   1
   4  -3   6 1078.47   36.78   1
   4  -3   6 1116.23   34.75   1
   4  -3   6 1004.26   34.86   1
   4  -3   7  374.04   14.70   1
   4  -3   8 2116.92   68.09   1
   4  -3   9   44.49    8.54   1
   4  -3  10  116.21   11.64   1
   4  -3  11  334.16   23.76   1
   4  -2 -10  303.80   19.87   1
   4  -2  -9  989.10   37.74   1
   4  -2  -8  617.03   20.87   1
   4  -2  -8  542.42   24.22   1
   4  -2  -7  417.38   14.71   1
   4  -2  -7  342.99   18.52   1
   4  -2  -6  115.99    8.40   1
   4  -2  -6   79.74    7.14   1
   4  -2  -6  159.52   11.37   1
   4  -2  -6   95.65    6.26   1
   4  -2  -5 5083.69  178.25   1
   4  -2  -5 6875.73  179.11   1
   4  -2  -5 5233.08  173.62   1
   4  -2  -4 4711.45  135.91   1
   4  -2  -4 3725.88  133.07   1
   4  -2  -4 4944.90  136.42   1
   4  -2  -4 4072.99  139.13   1
   4  -2  -3 2351.28   86.31   1
   4  -2  -3 3036.01   84.85   1
   4  -2  -3 2850.49   86.49   1
   4  -2  -2 9152.75  241.09   1
   4  -2  -2 6719.08  240.99   1
   4  -2  -2 8943.48  240.21   1
   4  -2  -2 6771.64  238.64   1
   4  -2  -1 3367.48  103.29   1
   4  -2   0  461.39   15.90   1
   4  -2   1  363.28   13.34   1
   4  -2   2  304.85   11.52   1
   4  -2   2  325.08   10.46   1
   4  -2   311378.49  349.88   1
   4  -2   311506.85  351.85   1
   4  -2   311724.56  357.32   1
   4  -2   5 5018.31  155.85   1
   4  -2   6   19.27    6.59   1
   4  -2   7  999.82   33.52   1
   4  -2   8 1576.88   53.21   1
   4  -2   9   62.41   10.11   1
   4  -2  10   -0.71   13.76   1
   4  -2  11  392.44   26.55   1
   4  -1 -11   30.47   17.77   1
   4  -1 -10  634.54   39.30   1
   4  -1  -9 1164.17   45.72   1
   4  -1  -8  827.71   34.52   1
   4  -1  -7 1186.80   37.21   1
   4  -1  -7  912.64   35.04   1
   4  -1  -6 8038.92  218.77   1
   4  -1  -6 6096.49  220.19   1
   4  -1  -5 2849.42  104.62   1
   4  -1  -5 3438.65  102.03   1
   4  -1  -5 3560.51  102.63   1
   4  -1  -4 6687.97  193.00   1
   4  -1  -4 6903.95  187.78   1
   4  -1  -4 5562.18  195.40   1
   4  -1  -4 5221.51  184.99   1
   4  -1  -3  399.60   13.99   1
   4  -1  -3  409.25   13.35   1
   4  -1  -3  369.41   12.69   1
   4  -1  -3  308.70   12.65   1
   4  -1  -2   16.32    2.18   1
   4  -1  -2   13.47    3.08   1
   4  -1  -2   40.07    4.68   1
   4  -1  -2    3.88    3.07   1
   4  -1  -1 2178.09   67.20   1
   4  -1   0 8228.30  248.55   1
   4  -1   1   41.34    2.31   1
   4  -1   2 1498.46   47.23   1
   4  -1   3 1927.21   60.58   1
   4  -1   4  903.60   30.06   1
   4  -1   5    8.41    4.93   1
   4  -1   6  228.01   13.29   1
   4   0 -11  233.48   17.42   1
   4   0 -10  854.39   35.08   1
   4   0  -8 2070.25   70.07   1
   4   0  -7  296.53   13.43   1
   4   0  -7  233.78   12.84   1
   4   0  -6 2268.62   84.78   1
   4   0  -6 2627.59   80.99   1
   4   0  -6 2840.89   82.08   1
   4   0  -5 4963.20  154.99   1
   4   0  -5 4414.27  160.78   1
   4   0  -5 5581.58  156.89   1
   4   0  -4 4923.83  140.34   1
   4   0  -4 4142.21  142.88   1
   4   0  -4 4460.90  138.92   1
   4   0  -3 5029.65  164.53   1
   4   0  -3 5162.42  163.82   1
   4   0  -3 5427.27  165.02   1
   4   0  -3 5856.84  165.30   1
   4   0  -2  110.88    4.42   1
   4   0  -2  104.45    5.72   1
   4   0   027066.83  819.31   1
   4   0   1 2627.59   76.89   1
   4   0   1 2277.20   75.40   1
   4   0   2  747.48   24.06   1
   4   0   3  843.32   27.88   1
   4   0   4 1176.49   38.42   1
   4   0   5   24.30    7.69   1
   4   0   6    0.79    6.96   1
   4   1 -11   86.68   12.29   1
   4   1  -9  791.30   29.82   1
   4   1  -9  633.03   30.70   1
   4   1  -8 1639.44   50.21   1
   4   1  -8 1368.26   56.96   1
   4   1  -7 2540.16   82.66   1
   4   1  -610621.36  292.69   1
   4   1  -6 8478.73  290.97   1
   4   1  -6 9335.42  291.79   1
   4   1  -5 4052.60  118.41   1
   4   1  -5 3979.09  122.38   1
   4   1  -5 3495.17  126.52   1
   4   1  -4 4675.82  149.07   1
   4   1  -4 4349.40  149.05   1
   4   1  -4 4588.71  146.32   1
   4   1  -4 5304.21  150.03   1
   4   1  -3  781.20   24.60   1
   4   1  -3  633.03   22.14   1
   4   1  -3  587.09   21.81   1
   4   1  -2  183.33    7.04   1
   4   1  -1  142.56    5.97   1
   4   1   1 2329.03   68.53   1
   4   1   1 1977.58   69.37   1
   4   1   2  698.54   21.67   1
   4   1   2  578.40   22.13   1
   4   1   3 2104.06   77.06   1
   4   1   3 2765.71   78.89   1
   4   1   4 1404.00   46.46   1
   4   1   5   28.41    9.59   1
   4   2 -12  495.06   31.59   1
   4   2 -11   10.63   13.69   1
   4   2 -10   16.32    8.32   1
   4   2  -9 2921.40   85.40   1
   4   2  -9 2369.74   84.70   1
   4   2  -8 2323.24   85.80   1
   4   2  -8 2851.56   85.44   1
   4   2  -7   23.23    7.42   1
   4   2  -7   17.31    4.58   1
   4   2  -6 1731.39   51.60   1
   4   2  -6 1678.54   54.08   1
   4   2  -6 1327.14   51.73   1
   4   2  -6 1439.44   51.60   1
   4   2  -5 3926.28  116.55   1
   4   2  -5 3987.92  117.46   1
   4   2  -5 3694.21  114.27   1
   4   2  -5 3202.43  118.84   1
   4   2  -4 8515.60  289.76   1
   4   2  -410471.43  290.62   1
   4   2  -312459.03  424.16   1
   4   2  -314969.52  420.88   1
   4   2  -2 4590.06  142.27   1
   4   2  -1   54.46    5.31   1
   4   2   2   43.96    7.82   1
   4   2   2   55.35    7.14   1
   4   2   3  159.52   10.10   1
   4   2   3  104.65    7.37   1
   4   2   4 1263.09   46.20   1
   4   2   4 1515.54   48.27   1
   4   3 -12 1037.48   52.82   1
   4   3 -11   25.40   10.28   1
   4   3 -10  235.62   12.89   1
   4   3 -10  214.92   15.54   1
   4   3  -9 1041.35   49.05   1
   4   3  -9 1276.63   40.02   1
   4   3  -8 3660.25  104.06   1
   4   3  -8 2995.37  108.37   1
   4   3  -7  847.39   29.69   1
   4   3  -7  781.20   27.95   1
   4   3  -6 1817.32   54.57   1
   4   3  -6 1343.96   56.46   1
   4   3  -6 1653.24   54.48   1
   4   3  -5 4513.15  128.99   1
   4   3  -5 4177.04  125.38   1
   4   3  -5 3401.22  124.80   1
   4   3  -4 2828.11   97.85   1
   4   3  -4 3490.45   98.07   1
   4   3  -3  998.56   40.45   1
   4   3  -3 1269.50   38.48   1
   4   3  -2  192.38    9.15   1
   4   3  -2  210.83    9.58   1
   4   3  -1 2121.52   73.70   1
   4   3  -1 2500.00   73.00   1
   4   3   013686.66  416.48   1
   4   3   1  426.01   16.51   1
   4   3   2 1144.47   35.86   1
   4   3   2  910.23   34.39   1
   4   3   4 4273.24  137.28   1
   4   3   5 1540.56   54.95   1
   4   4 -12  413.31   32.53   1
   4   4 -11  180.90   20.17   1
   4   4 -10   58.83   13.04   1
   4   4  -9   31.81    5.53   1
   4   4  -9   15.68    8.32   1
   4   4  -8 1409.25   58.56   1
   4   4  -8 1733.06   50.79   1
   4   4  -7    9.42    1.72   1
   4   4  -7   -4.80    8.89   1
   4   4  -6  829.44   33.41   1
   4   4  -6 1136.36   35.73   1
   4   4  -6  974.69   34.97   1
   4   4  -5 1276.63   50.74   1
   4   4  -5 1641.87   49.43   1
   4   4  -5 1576.88   49.24   1
   4   4  -4 6091.80  171.71   1
   4   4  -4 4975.89  180.58   1
   4   4  -3  167.18    9.57   1
   4   4  -3  146.65    8.23   1
   4   4  -2    9.99    8.60   1
   4   4  -1  888.04   33.97   1
   4   4  -1 1020.16   33.22   1
   4   4   0 3306.25  116.15   1
   4   4   0 4099.84  117.82   1
   4   4   1 1486.10   53.20   1
   4   4   2 1278.78   43.63   1
   4   4   4 4125.49  140.02   1
   4   4   6  148.35   20.22   1
   4   5 -11  351.56   23.62   1
   4   5 -10  655.36   33.28   1
   4   5  -9  922.94   39.49   1
   4   5  -8  732.78   22.74   1
   4   5  -8  618.52   26.36   1
   4   5  -7   43.69   11.10   1
   4   5  -6 1425.06   43.79   1
   4   5  -6 1116.90   46.79   1
   4   5  -5 1500.79   58.11   1
   4   5  -5 1933.36   57.16   1
   4   5  -4 3597.60  118.76   1
   4   5  -3 4769.28  156.08   1
   4   5  -2  326.89   15.55   1
   4   5  -1  166.93   11.11   1
   4   5   1 2978.98  104.79   1
   4   5   2  141.13   14.26   1
   4   5   3  581.77   27.98   1
   4   5   5   65.77   18.33   1
   4   6 -11  132.02   16.09   1
   4   6 -10   94.09   17.07   1
   4   6  -8 4711.45  161.99   1
   4   6  -7 6336.16  200.59   1
   4   6  -6  773.95   36.17   1
   4   6  -6 1108.22   34.62   1
   4   6  -5  685.92   28.81   1
   4   6  -4  533.15   21.70   1
   4   6  -3  881.50   38.00   1
   4   6  -2  597.80   22.98   1
   4   6  -1  178.49   13.63   1
   4   6   0 2628.61   86.13   1
   4   6   1 1840.41   72.07   1
   4   6   2   26.52   14.94   1
   4   7 -10   41.09   18.33   1
   4   7  -9  338.56   25.76   1
   4   7  -8 2839.82  120.44   1
   4   7  -7 3132.64  109.70   1
   4   7  -6    7.51   15.12   1
   4   7  -5  -30.36   14.77   1
   4   7  -4 3697.86  133.78   1
   4   7  -3 5052.37  159.22   1
   4   7  -2 1026.56   42.29   1
   4   7  -1  162.05   17.31   1
   4   7   0  731.16   36.23   1
   4   7   1    9.61   13.21   1
   4   8  -9  125.22   21.48   1
   4   8  -8 1239.04   64.06   1
   4   8  -7 1709.00   83.51   1
   4   8  -6   58.98   13.67   1
   4   8  -5   68.06   13.36   1
   4   8  -4 2185.56   97.24   1
   4   8  -3 2235.40  101.18   1
   4   8  -2  231.65   20.39   1
   4   8  -1  160.02   21.00   1
   4   8   0 1483.79   73.19   1
   5 -10   1 1011.88   44.53   1
   5 -10   1  862.01   44.04   1
   5 -10   2  143.28   14.60   1
   5 -10   2  185.78   14.18   1
   5 -10   3  102.21   11.93   1
   5 -10   3   67.08   12.61   1
   5 -10   4   34.46   14.79   1
   5 -10   4   23.52   14.84   1
   5 -10   5    5.20   10.31   1
   5 -10   5   27.25   10.23   1
   5 -10   6  -15.13   10.74   1
   5 -10   6   37.82   10.58   1
   5 -10   7    2.19   11.66   1
   5  -9  -2   48.44   12.11   1
   5  -9  -1   55.50   10.43   1
   5  -9  -1   82.08   11.78   1
   5  -9   0  716.63   33.19   1
   5  -9   0  594.87   32.19   1
   5  -9   1 3157.32  134.86   1
   5  -9   1 3281.00  136.33   1
   5  -9   2 1699.09   55.23   1
   5  -9   2 1478.40   53.83   1
   5  -9   3    4.71    8.72   1
   5  -9   3   16.00    8.00   1
   5  -9   4   23.62    8.26   1
   5  -9   4   -3.50    8.60   1
   5  -9   5 1553.94   54.40   1
   5  -9   5 1648.36   54.40   1
   5  -9   6 1503.89   65.15   1
   5  -9   7  169.78   16.16   1
   5  -9   7  164.35   13.59   1
   5  -9   8   83.54   16.09   1
   5  -9   8   92.35   14.22   1
   5  -9   9  318.27   19.27   1
   5  -9   9  303.46   19.86   1
   5  -8  -4  461.82   24.93   1
   5  -8  -3 1248.92   55.84   1
   5  -8  -2  978.44   44.42   1
   5  -8  -1   34.34    8.67   1
   5  -8  -1   21.53   11.04   1
   5  -8   0   45.16    7.66   1
   5  -8   0   31.36   11.87   1
   5  -8   1 1112.22   36.02   1
   5  -8   1 1108.22   39.28   1
   5  -8   1  909.02   35.58   1
   5  -8   2  350.44   18.72   1
   5  -8   2  396.41   16.33   1
   5  -8   2  386.91   20.85   1
   5  -8   3  406.02   16.93   1
   5  -8   3  334.16   16.09   1
   5  -8   4  540.10   21.38   1
   5  -8   4  587.09   23.26   1
   5  -8   4  549.90   22.98   1
   5  -8   5 1994.52   65.20   1
   5  -8   5 1939.52   64.30   1
   5  -8   6 1042.64   36.81   1
   5  -8   6 1085.70   38.88   1
   5  -8   7  244.30   13.75   1
   5  -8   7  295.15   16.49   1
   5  -8   8   17.22   11.21   1
   5  -8   8   26.21   12.49   1
   5  -8   9    5.38   10.16   1
   5  -8   9   -0.20   12.28   1
   5  -8  10   85.93   10.57   1
   5  -7  -5   19.98    9.57   1
   5  -7  -5   13.40   15.81   1
   5  -7  -4  759.00   36.37   1
   5  -7  -3 2780.45   92.80   1
   5  -7  -2  740.93   29.40   1
   5  -7  -2  829.44   30.53   1
   5  -7  -1   69.06    8.48   1
   5  -7  -1   84.09    7.70   1
   5  -7   0 1174.43   39.07   1
   5  -7   0 1346.89   41.10   1
   5  -7   0 1096.27   41.06   1
   5  -7   1 3672.36  115.14   1
   5  -7   1 3094.70  111.26   1
   5  -7   1 4009.42  115.24   1
   5  -7   2  561.22   24.64   1
   5  -7   2  743.65   23.45   1
   5  -7   3   37.33    5.25   1
   5  -7   3   19.62    8.77   1
   5  -7   4  465.70   18.13   1
   5  -7   4  456.68   17.95   1
   5  -7   4  429.32   17.82   1
   5  -7   5  354.19   15.06   1
   5  -7   5  318.62   14.64   1
   5  -7   6 1637.82   55.04   1
   5  -7   6 1698.26   55.22   1
   5  -7   6 1594.40   54.30   1
   5  -7   7  551.78   22.08   1
   5  -7   7  576.96   23.06   1
   5  -7   8   60.22   11.17   1
   5  -7   8   61.15    8.60   1
   5  -7   9  463.11   25.39   1
   5  -7   9  494.62   24.02   1
   5  -7  10  749.12   38.87   1
   5  -7  10  874.98   36.68   1
   5  -6  -7  656.38   32.79   1
   5  -6  -7  632.52   39.74   1
   5  -6  -6   85.38   11.83   1
   5  -6  -6  127.92   14.02   1
   5  -6  -5   16.97    7.09   1
   5  -6  -4    2.99    9.10   1
   5  -6  -4   -7.62   12.81   1
   5  -6  -4   24.11    6.68   1
   5  -6  -3  370.56   15.40   1
   5  -6  -3  326.16   15.17   1
   5  -6  -2 1108.22   36.62   1
   5  -6  -2  892.81   34.06   1
   5  -6  -1   49.84    8.33   1
   5  -6  -1   46.10    5.84   1
   5  -6   0   12.32    5.62   1
   5  -6   0   -0.79    4.98   1
   5  -6   0    2.99    6.19   1
   5  -6   1  307.30   14.73   1
   5  -6   1  341.88   13.68   1
   5  -6   2  765.63   28.78   1
   5  -6   2  935.75   29.37   1
   5  -6   2  853.22   28.63   1
   5  -6   3  488.85   17.69   1
   5  -6   3  490.62   19.49   1
   5  -6   4   75.17    5.20   1
   5  -6   4   75.86    6.27   1
   5  -6   5  264.39   11.71   1
   5  -6   5  287.64   13.23   1
   5  -6   5  228.61   11.49   1
   5  -6   6  253.13   11.46   1
   5  -6   6  286.29   13.20   1
   5  -6   7  153.51   11.15   1
   5  -6   7  156.50    9.51   1
   5  -6   8   65.93    7.63   1
   5  -6   8   68.23    8.43   1
   5  -6   9  137.59   11.50   1
   5  -6   9  103.84   10.39   1
   5  -6  10  141.61   10.47   1
   5  -6  10  129.73   12.76   1
   5  -6  11   -0.40   12.55   1
   5  -5  -7 2083.01   98.58   1
   5  -5  -7 2324.20   94.49   1
   5  -5  -6 1731.39   65.74   1
   5  -5  -5  866.12   30.61   1
   5  -5  -5  891.02   32.24   1
   5  -5  -4  202.21   13.37   1
   5  -5  -4  158.00   12.32   1
   5  -5  -4  173.45   10.54   1
   5  -5  -4  216.09   12.35   1
   5  -5  -3 2284.84   66.92   1
   5  -5  -3 1969.58   69.23   1
   5  -5  -2 1983.81   70.37   1
   5  -5  -2 2462.14   72.45   1
   5  -5  -1 1255.99   41.82   1
   5  -5   0  152.03    8.38   1
   5  -5   0  172.66    8.15   1
   5  -5   0  151.29    6.40   1
   5  -5   1 1983.81   59.68   1
   5  -5   1 1772.41   59.78   1
   5  -5   2 8279.18  245.67   1
   5  -5   2 8478.73  244.93   1
   5  -5   2 7406.32  246.13   1
   5  -5   3 1772.41   53.05   1
   5  -5   3 1525.68   52.34   1
   5  -5   4  104.65    5.93   1
   5  -5   4   93.90    6.98   1
   5  -5   4  108.99    6.89   1
   5  -5   5  204.49    9.72   1
   5  -5   5  228.31   10.58   1
   5  -5   6 2085.75   68.50   1
   5  -5   6 2203.36   70.41   1
   5  -5   7  313.64   16.65   1
   5  -5   7  289.68   13.96   1
   5  -5   7  303.46   13.24   1
   5  -5   8   -3.61    5.62   1
   5  -5   8  -14.82    6.39   1
   5  -5   9    3.61   11.02   1
   5  -5  10  778.97   36.84   1
   5  -4  -9    6.50   17.29   1
   5  -4  -9   17.98   11.70   1
   5  -4  -8   98.21   12.88   1
   5  -4  -7 1541.35   58.89   1
   5  -4  -7 1606.41   52.10   1
   5  -4  -6 2027.70   64.84   1
   5  -4  -5 4140.92  124.84   1
   5  -4  -5 3449.21  117.46   1
   5  -4  -4  170.56   10.45   1
   5  -4  -4  198.81   11.28   1
   5  -4  -4  171.35    9.69   1
   5  -4  -3 1970.47   63.92   1
   5  -4  -3 1932.48   67.70   1
   5  -4  -3 1699.91   61.85   1
   5  -4  -3 2299.20   65.21   1
   5  -4  -2  852.06   28.02   1
   5  -4  -2  731.70   25.97   1
   5  -4  -2  639.08   24.77   1
   5  -4  -1 1758.12   57.86   1
   5  -4  -1 1918.44   59.57   1
   5  -4   0 3062.52   95.18   1
   5  -4   1 7218.20  224.29   1
   5  -4   1 7773.95  223.95   1
   5  -4   1 7170.70  225.25   1
   5  -4   2 2981.16   96.10   1
   5  -4   2 2982.25   93.93   1
   5  -4   3  457.53   14.12   1
   5  -4   3  370.95   15.02   1
   5  -4   3  411.28   15.41   1
   5  -4   4  771.73   25.56   1
   5  -4   4  752.95   26.34   1
   5  -4   5  846.23   29.09   1
   5  -4   5  913.85   29.02   1
   5  -4   5  843.32   29.04   1
   5  -4   6 1965.15   62.95   1
   5  -4   6 2032.21   63.11   1
   5  -4   6 1853.30   63.71   1
   5  -4   7  846.81   29.10   1
   5  -4   7  831.17   29.41   1
   5  -4   8    1.49    9.56   1
   5  -4   9   66.75    9.15   1
   5  -4  11  -13.32   14.31   1
   5  -3  -9    1.49    7.17   1
   5  -3  -9    0.30   10.44   1
   5  -3  -8   78.68   10.82   1
   5  -3  -7 2583.69   89.46   1
   5  -3  -7 2617.35   80.83   1
   5  -3  -7 2312.65   95.22   1
   5  -3  -6 3191.12   97.16   1
   5  -3  -6 2823.86   92.46   1
   5  -3  -6 2722.75  101.23   1
   5  -3  -5   83.91    7.14   1
   5  -3  -5   70.73    6.22   1
   5  -3  -4  153.76    8.18   1
   5  -3  -4  207.94   10.67   1
   5  -3  -4  154.50   10.94   1
   5  -3  -4  156.00    8.49   1
   5  -3  -3 3631.27  119.31   1
   5  -3  -3 4354.68  120.10   1
   5  -3  -3 4381.12  124.44   1
   5  -3  -3 3243.30  117.32   1
   5  -3  -3 3549.78  117.97   1
   5  -3  -2  780.64   29.06   1
   5  -3  -2 1013.15   30.56   1
   5  -3  -1 1017.61   33.18   1
   5  -3   0  118.59    6.53   1
   5  -3   1 1267.36   40.58   1
   5  -3   2 6171.67  185.40   1
   5  -3   2 6288.49  183.98   1
   5  -3   2 5710.82  184.39   1
   5  -3   3 2687.39   87.09   1
   5  -3   3 2605.08   83.71   1
   5  -3   3 2839.82   84.20   1
   5  -3   4   17.81    4.64   1
   5  -3   4   28.62    3.85   1
   5  -3   5 2697.76   84.14   1
   5  -3   5 2820.67   87.10   1
   5  -3   5 2567.45   85.13   1
   5  -3   6 6578.83  193.04   1
   5  -3   6 5821.69  193.80   1
   5  -3   7  771.17   26.66   1
   5  -3   8   17.47    9.70   1
   5  -3   9  106.09   13.39   1
   5  -3  10  281.90   18.13   1
   5  -2 -10  661.00   43.19   1
   5  -2  -9  171.87   17.31   1
   5  -2  -8  149.33   11.00   1
   5  -2  -7  105.06    9.64   1
   5  -2  -7  124.55    7.81   1
   5  -2  -6   50.41    7.81   1
   5  -2  -6   34.69    7.30   1
   5  -2  -5  291.38   13.31   1
   5  -2  -5  348.57   16.80   1
   5  -2  -5  247.75   11.96   1
   5  -2  -4 2742.62   81.70   1
   5  -2  -4 2174.36   78.34   1
   5  -2  -4 2344.50   84.25   1
   5  -2  -4 2905.21   80.85   1
   5  -2  -3 3719.78  111.00   1
   5  -2  -3 2895.52  107.62   1
   5  -2  -3 4005.62  110.12   1
   5  -2  -3 3438.65  112.59   1
   5  -2  -2 4050.05  123.46   1
   5  -2   0  804.29   26.09   1
   5  -2   1   66.10    6.83   1
   5  -2   2 3789.63  120.66   1
   5  -2   2 3736.88  119.81   1
   5  -2   2 4124.21  119.45   1
   5  -2   3  859.08   29.31   1
   5  -2   3  939.42   28.81   1
   5  -2   4  716.63   24.63   1
   5  -2   4  754.05   24.71   1
   5  -2   5 2604.06   76.54   1
   5  -2   5 2274.34   76.30   1
   5  -2   6 6897.30  224.24   1
   5  -2   6 7600.35  223.18   1
   5  -2   7 1819.88   61.43   1
   5  -2   8  191.55   11.35   1
   5  -2   9   79.74   10.36   1
   5  -2  10  119.46   16.18   1
   5  -1 -10  807.13   44.32   1
   5  -1  -9  768.40   34.37   1
   5  -1  -8   55.95   10.02   1
   5  -1  -7   50.27    8.08   1
   5  -1  -7   74.13    8.95   1
   5  -1  -6 2326.13   71.38   1
   5  -1  -6 2037.62   72.22   1
   5  -1  -5  773.95   31.16   1
   5  -1  -5  985.96   32.66   1
   5  -1  -5  839.26   29.55   1
   5  -1  -4   15.92    3.91   1
   5  -1  -4   13.62    5.98   1
   5  -1  -4   31.81    6.77   1
   5  -1  -3  715.03   25.14   1
   5  -1  -3  724.69   23.69   1
   5  -1  -3  704.37   23.89   1
   5  -1   0  885.66   27.38   1
   5  -1   1  948.02   29.56   1
   5  -1   2 1060.15   33.86   1
   5  -1   3 4075.55  125.13   1
   5  -1   4   83.36    6.57   1
   5  -1   5  595.36   22.45   1
   5  -1   6  287.30   15.26   1
   5  -1  10  463.11   27.12   1
   5   0 -11  179.56   16.62   1
   5   0 -10  907.21   45.78   1
   5   0  -9  660.49   27.76   1
   5   0  -8   84.82    8.29   1
   5   0  -8   82.81   10.74   1
   5   0  -7 7953.07  262.19   1
   5   0  -611515.44  394.90   1
   5   0  -614261.14  401.25   1
   5   0  -5 3033.81   96.94   1
   5   0  -5 3364.00   97.44   1
   5   0  -5 2812.18  103.94   1
   5   0  -4    1.99    3.38   1
   5   0  -4   11.63    3.21   1
   5   0  -4    7.51    6.19   1
   5   0  -3 1910.56   57.70   1
   5   0  -3 1703.21   55.30   1
   5   0  -3 1685.10   60.75   1
   5   0  -2   20.34    2.89   1
   5   0  -2   10.18    2.68   1
   5   0  -1 8909.47  277.51   1
   5   0  -1 8800.32  270.17   1
   5   0   010294.13  314.53   1
   5   0   1 1348.36   43.33   1
   5   0   2 4144.78  127.47   1
   5   0   3 3518.86  111.52   1
   5   0   4   32.49    7.07   1
   5   0   5  121.44   10.58   1
   5   1 -11  266.02   19.90   1
   5   1 -10  491.51   27.49   1
   5   1  -9  599.76   24.49   1
   5   1  -8  294.47   15.79   1
   5   1  -8  310.11   12.68   1
   5   1  -7   33.76    7.55   1
   5   1  -7   41.09    6.15   1
   5   1  -6 6130.89  178.52   1
   5   1  -6 5292.56  190.60   1
   5   1  -511090.20  339.10   1
   5   1  -511306.07  342.38   1
   5   1  -512199.20  344.60   1
   5   1  -5 9958.04  351.26   1
   5   1  -4    9.92    3.91   1
   5   1  -4   14.59    4.28   1
   5   1  -4   10.50    5.77   1
   5   1  -3 1501.56   48.05   1
   5   1  -3 1416.77   49.68   1
   5   1  -2 8716.09  280.08   1
   5   1  -2 9216.00  276.48   1
   5   1  -1 3253.56  102.67   1
   5   1   0 1624.09   53.20   1
   5   1   1  809.97   25.04   1
   5   1   1  716.10   27.83   1
   5   1   2 5254.80  163.83   1
   5   1   3 2438.38   89.87   1
   5   1   3 2924.65   87.61   1
   5   1   4  253.45   14.33   1
   5   2 -11  518.47   30.06   1
   5   2  -9  304.85   12.22   1
   5   2  -9  181.71   17.79   1
   5   2  -8  945.56   29.52   1
   5   2  -8  772.84   35.58   1
   5   2  -7 2050.28   61.58   1
   5   2  -7 1815.61   64.77   1
   5   2  -6 4080.65  122.65   1
   5   2  -6 3597.60  135.55   1
   5   2  -6 4122.92  124.57   1
   5   2  -510826.40  335.04   1
   5   2  -4  529.00   21.16   1
   5   2  -4  635.54   22.18   1
   5   2  -4  644.65   23.87   1
   5   2  -3   -0.50    4.32   1
   5   2  -3    4.28    3.68   1
   5   2  -2 4863.67  156.22   1
   5   2  -110803.52  336.77   1
   5   2   0 5972.20  208.66   1
   5   2   0 6990.63  198.99   1
   5   2   1  159.01    9.84   1
   5   2   1  203.06   11.40   1
   5   2   2 3158.44   93.29   1
   5   2   2 2520.04   97.39   1
   5   2   3 5194.08  165.76   1
   5   2   4  746.93   30.61   1
   5   3 -11  102.82   13.79   1
   5   3 -10  439.74   24.33   1
   5   3  -9 1687.57   55.05   1
   5   3  -9 1599.20   58.39   1
   5   3  -8  886.85   36.33   1
   5   3  -8  919.30   32.14   1
   5   3  -7   35.52    2.98   1
   5   3  -7   21.90    6.65   1
   5   3  -6  962.24   35.36   1
   5   3  -6  906.61   35.53   1
   5   3  -5  260.82   13.57   1
   5   3  -5  297.56   13.80   1
   5   3  -5  293.78   15.08   1
   5   3  -4  576.00   25.92   1
   5   3  -4  703.84   23.35   1
   5   3  -3  557.43   21.72   1
   5   3  -3  628.50   21.56   1
   5   3  -2 4415.60  143.53   1
   5   3  -1 3684.49  105.62   1
   5   3  -1 2989.90  112.64   1
   5   3   0  723.61   23.67   1
   5   3   0  559.80   24.61   1
   5   3   1 1460.77   48.16   1
   5   3   2    3.69    7.49   1
   5   3   2   20.16    9.70   1
   5   3   3 1353.50   52.24   1
   5   4 -11    7.51   11.29   1
   5   4 -10 1085.70   56.02   1
   5   4  -8  746.38   24.04   1
   5   4  -8  661.00   30.34   1
   5   4  -7  278.89   14.36   1
   5   4  -6   59.29    9.55   1
   5   4  -5 1768.20   53.82   1
   5   4  -5 1382.35   54.28   1
   5   4  -4 1165.54   36.87   1
   5   4  -4  965.97   37.30   1
   5   4  -3  476.55   22.70   1
   5   4  -3  568.82   20.99   1
   5   4  -2 4579.23  146.17   1
   5   4   0  817.39   32.59   1
   5   4   1  149.33   13.69   1
   5   4   2   71.57   12.52   1
   5   4   3 1855.89   71.51   1
   5   4   4 1143.79   41.26   1
   5   5 -11  366.72   32.17   1
   5   5 -10  657.41   36.92   1
   5   5  -9 1164.86   53.24   1
   5   5  -8 2447.28   90.04   1
   5   5  -7  242.74   16.51   1
   5   5  -6 2732.15   93.04   1
   5   5  -5 8374.08  274.53   1
   5   5  -4   12.89   10.41   1
   5   5  -3 3561.70  116.97   1
   5   5  -2 1238.34   46.45   1
   5   5  -1 4714.20  153.80   1
   5   5   0 1354.98   51.53   1
   5   5   3  966.59   52.85   1
   5   6 -10  224.40   19.17   1
   5   6  -9 1179.92   62.52   1
   5   6  -8  669.77   32.61   1
   5   6  -7  208.22   17.32   1
   5   6  -6 1808.80   72.30   1
   5   6  -5 3318.91  112.92   1
   5   6  -4 1932.48   77.37   1
   5   6  -3  238.08   14.20   1
   5   6  -2    4.28    9.40   1
   5   6  -1  106.71   11.78   1
   5   6   0  388.09   20.88   1
   5   6   1   81.00   17.64   1
   5   6   3  729.54   42.68   1
   5   7  -9  427.66   25.23   1
   5   7  -8  595.85   33.69   1
   5   7  -7   -2.69   16.37   1
   5   7  -6  320.41   20.05   1
   5   7  -5 2879.40  133.08   1
   5   7  -4  745.84   38.23   1
   5   7  -3    6.10   15.91   1
   5   7  -2 2235.40  104.96   1
   5   7  -1 3109.18  132.71   1
   5   7   0 1034.91   57.91   1
   5   8  -6   34.22   20.36   1
   5   8  -5  313.29   23.72   1
   5   8  -4  828.86   43.76   1
   5   8  -3  213.45   20.75   1
   6 -10   2   67.24   13.28   1
   6 -10   2  115.56   15.48   1
   6 -10   3  689.06   33.60   1
   6 -10   3  778.97   38.52   1
   6 -10   4  640.60   34.93   1
   6 -10   4  751.31   35.08   1
   6 -10   5   21.34    9.89   1
   6 -10   5   -4.80   10.69   1
   6  -9  -1  211.70   17.17   1
   6  -9   0  719.31   39.16   1
   6  -9   0  971.57   40.52   1
   6  -9   1   54.46   11.51   1
   6  -9   1   82.63    8.91   1
   6  -9   2   80.46   11.48   1
   6  -9   2   89.49   12.11   1
   6  -9   3  541.49   25.60   1
   6  -9   3  472.19   25.64   1
   6  -9   4  422.71   23.03   1
   6  -9   4  452.84   24.26   1
   6  -9   5 1079.78   49.29   1
   6  -9   5 1038.13   46.40   1
   6  -9   6  292.07   19.48   1
   6  -9   6  308.35   21.42   1
   6  -9   7  110.25   11.55   1
   6  -9   7  130.64   16.23   1
   6  -9   8  405.22   22.95   1
   6  -8  -3   59.14   11.84   1
   6  -8  -2  270.27   20.06   1
   6  -8  -1  815.67   38.27   1
   6  -8   0 2352.25   80.51   1
   6  -8   0 2597.94   80.53   1
   6  -8   1  801.46   29.44   1
   6  -8   1  729.00   25.38   1
   6  -8   1  628.00   27.57   1
   6  -8   2  216.09   14.70   1
   6  -8   2  221.41   11.90   1
   6  -8   2  186.05   13.09   1
   6  -8   3  198.53   15.50   1
   6  -8   3  206.50   15.52   1
   6  -8   3  212.87   11.38   1
   6  -8   4  352.31   15.02   1
   6  -8   4  309.41   16.53   1
   6  -8   4  306.95   15.77   1
   6  -8   5 1079.78   38.77   1
   6  -8   5 1083.73   38.19   1
   6  -8   6  176.36   13.28   1
   6  -8   6  189.61   13.22   1
   6  -8   7  354.57   19.96   1
   6  -8   7  316.13   21.34   1
   6  -8   8  298.94   20.40   1
   6  -8   8  285.95   18.94   1
   6  -8   9  122.10   16.13   1
   6  -8   9  108.58   12.30   1
   6  -7  -5  158.00   15.59   1
   6  -7  -5  214.04   15.80   1
   6  -7  -4  793.55   37.75   1
   6  -7  -3  477.86   26.67   1
   6  -7  -2    1.59    7.96   1
   6  -7  -1    6.40   11.08   1
   6  -7  -1   22.28    9.72   1
   6  -7   0  910.23   32.58   1
   6  -7   1 1104.90   37.23   1
   6  -7   1 1057.55   38.37   1
   6  -7   2  493.73   18.22   1
   6  -7   2  566.92   20.95   1
   6  -7   2  426.01   19.40   1
   6  -7   3   23.81   10.35   1
   6  -7   3   55.50    5.96   1
   6  -7   3   55.95    6.13   1
   6  -7   4   82.99    6.74   1
   6  -7   4   51.84    7.92   1
   6  -7   4   56.85    6.64   1
   6  -7   5 1018.25   38.29   1
   6  -7   5 1152.60   39.38   1
   6  -7   5 1118.90   36.80   1
   6  -7   6    1.30   11.49   1
   6  -7   6  -32.83   10.89   1
   6  -7   7   80.64    8.08   1
   6  -7   8  228.92   16.95   1
   6  -7   8  219.93   14.24   1
   6  -7   9  673.92   34.27   1
   6  -6  -6   10.69   14.52   1
   6  -6  -6   16.16    9.89   1
   6  -6  -5  669.26   33.63   1
   6  -6  -4  858.49   33.99   1
   6  -6  -4  959.14   35.31   1
   6  -6  -3  345.59   15.62   1
   6  -6  -3  323.64   15.83   1
   6  -6  -2  167.70   13.47   1
   6  -6  -1   22.28    7.17   1
   6  -6  -1    5.20    5.29   1
   6  -6   0 2003.46   68.93   1
   6  -6   0 2338.69   69.64   1
   6  -6   1 1013.15   35.01   1
   6  -6   1  995.40   33.44   1
   6  -6   2   22.47    3.32   1
   6  -6   2    8.01    6.51   1
   6  -6   2   16.00    4.88   1
   6  -6   3   25.91    6.72   1
   6  -6   3   18.58    3.97   1
   6  -6   4  709.69   23.98   1
   6  -6   4  665.12   25.27   1
   6  -6   5 1387.56   48.42   1
   6  -6   5 1447.80   50.99   1
   6  -6   6  137.83    9.63   1
   6  -6   6   99.40    7.38   1
   6  -6   7   21.53    8.44   1
   6  -6   8   83.54    9.32   1
   6  -6   8   84.64   10.86   1
   6  -6   9  153.02   12.12   1
   6  -6  10   20.43   15.01   1
   6  -5  -7  522.12   25.59   1
   6  -5  -7  440.58   27.29   1
   6  -5  -6  127.46   14.45   1
   6  -5  -6  167.18   15.26   1
   6  -5  -5  889.23   32.21   1
   6  -5  -5  827.14   35.66   1
   6  -5  -4 3524.80  103.30   1
   6  -5  -4 3080.25  103.23   1
   6  -5  -4 3204.69  114.35   1
   6  -5  -3 4113.94  142.39   1
   6  -5  -3 4968.84  148.03   1
   6  -5  -3 4580.58  143.48   1
   6  -5  -2  446.48   17.75   1
   6  -5  -1 1187.49   39.97   1
   6  -5   0 1793.52   57.60   1
   6  -5   0 1794.37   57.61   1
   6  -5   1 2435.42   76.99   1
   6  -5   1 2456.19   77.31   1
   6  -5   2  991.62   34.01   1
   6  -5   2 1087.02   32.97   1
   6  -5   2 1035.55   35.40   1
   6  -5   3  236.85    8.93   1
   6  -5   3  235.93   10.44   1
   6  -5   3  217.86   11.22   1
   6  -5   4  835.79   31.80   1
   6  -5   4 1003.62   33.58   1
   6  -5   4  938.20   31.24   1
   6  -5   5 3323.52  106.08   1
   6  -5   5 3310.85  104.72   1
   6  -5   6    9.18    7.70   1
   6  -5   6   14.36    6.67   1
   6  -5   6   26.63    9.60   1
   6  -5   7  465.70   18.13   1
   6  -5   7  423.54   18.11   1
   6  -5   7  381.42   19.53   1
   6  -5   8   31.81    7.11   1
   6  -5   9  318.27   18.20   1
   6  -5  10   32.60   11.42   1
   6  -4  -8  725.76   34.48   1
   6  -4  -8  733.87   37.93   1
   6  -4  -7  771.17   35.55   1
   6  -4  -7  673.92   41.02   1
   6  -4  -6  409.66   24.69   1
   6  -4  -6  475.68   20.94   1
   6  -4  -6  434.72   18.35   1
   6  -4  -5  857.90   31.05   1
   6  -4  -5  902.40   34.25   1
   6  -4  -5  910.83   31.99   1
   6  -4  -4  378.30   16.34   1
   6  -4  -4  381.03   15.62   1
   6  -4  -3  170.82    9.67   1
   6  -4  -2  123.21    5.55   1
   6  -4  -2  129.28    7.96   1
   6  -4  -1  290.70   11.25   1
   6  -4  -1  406.02   14.10   1
   6  -4   0   15.52    5.44   1
   6  -4   1 3723.44  117.16   1
   6  -4   2  760.66   28.13   1
   6  -4   3   15.52    5.67   1
   6  -4   3   25.50    3.33   1
   6  -4   4  949.26   33.27   1
   6  -4   4 1040.06   32.90   1
   6  -4   5 2682.20   81.83   1
   6  -4   5 2489.01   82.82   1
   6  -4   6  400.80   16.02   1
   6  -4   6  419.02   17.19   1
   6  -4   7   48.30    6.53   1
   6  -4   8  260.18   13.55   1
   6  -4  10   41.09   11.67   1
   6  -3  -9   14.06   10.95   1
   6  -3  -8  504.00   26.04   1
   6  -3  -8  585.64   31.94   1
   6  -3  -7  675.48   28.07   1
   6  -3  -7  691.69   26.30   1
   6  -3  -7  593.90   26.32   1
   6  -3  -6 1167.59   42.37   1
   6  -3  -6 1258.12   43.27   1
   6  -3  -5  187.14   11.76   1
   6  -3  -5  202.78   10.25   1
   6  -3  -4    2.50    4.30   1
   6  -3  -4   -1.21    5.52   1
   6  -3  -3 2351.28   79.52   1
   6  -3  -3 3179.83   84.58   1
   6  -3  -3 2139.06   81.40   1
   6  -3  -2  843.90   28.47   1
   6  -3  -1 1974.02   63.98   1
   6  -3   0 4044.96  124.66   1
   6  -3   1 3203.56   99.62   1
   6  -3   2   11.42    5.27   1
   6  -3   3  296.53   12.74   1
   6  -3   3  314.35   10.64   1
   6  -3   4  386.12   13.36   1
   6  -3   4  354.57   13.18   1
   6  -3   5 9066.85  279.95   1
   6  -3   6 7970.92  233.91   1
   6  -3   6 7131.80  233.08   1
   6  -3   7  915.67   35.10   1
   6  -3   7 1153.96   38.73   1
   6  -3   8  105.68    9.25   1
   6  -3   9  209.09   14.46   1
   6  -3  10   68.39   16.54   1
   6  -2  -9   75.52   14.77   1
   6  -2  -8 1050.41   44.08   1
   6  -2  -7 1404.75   51.72   1
   6  -2  -6  280.23   13.73   1
   6  -2  -5  594.38   22.92   1
   6  -2  -5  620.51   20.92   1
   6  -2  -5  451.99   20.83   1
   6  -2  -5  468.29   19.48   1
   6  -2  -4 1743.06   54.27   1
   6  -2  -4 1477.63   53.05   1
   6  -2  -4 1758.96   56.20   1
   6  -2  -3 2782.56   87.56   1
   6  -2  -2 1357.92   44.22   1
   6  -2  -1  686.44   23.58   1
   6  -2   2  680.69   22.96   1
   6  -2   2  743.65   22.91   1
   6  -2   3  638.07   21.22   1
   6  -2   4  277.56   11.66   1
   6  -2   4  341.88   11.83   1
   6  -2   5 2927.89  101.73   1
   6  -2   5 3537.87  103.50   1
   6  -2   6  338.19   15.45   1
   6  -2   7  236.85   12.00   1
   6  -2   8   51.27   11.60   1
   6  -2   9   87.05   11.20   1
   6  -1 -10   76.74   13.14   1
   6  -1  -9  424.77   25.97   1
   6  -1  -8 1319.14   54.48   1
   6  -1  -7 3798.26  134.35   1
   6  -1  -6 2869.74   93.21   1
   6  -1  -6 2730.06   90.92   1
   6  -1  -5   10.50    5.38   1
   6  -1  -5    6.92    5.31   1
   6  -1  -4   32.49    4.33   1
   6  -1  -4   38.69    5.35   1
   6  -1   3   28.30    3.72   1
   6  -1   4   54.76    5.48   1
   6  -1   5 2375.59   77.01   1
   6  -1   6  316.84   15.66   1
   6   0 -10   -1.00   14.60   1
   6   0  -9  296.53   18.25   1
   6   0  -8  663.06   26.78   1
   6   0  -7  634.03   23.17   1
   6   0  -7  537.78   27.83   1
   6   0  -6 1254.58   46.75   1
   6   0  -5 2921.40  107.02   1
   6   0  -5 3176.45   96.94   1
   6   0  -4 1354.98   50.06   1
   6   0  -3 9525.76  304.51   1
   6   0  -310528.81  307.83   1
   6   0  -2 1284.51   43.01   1
   6   0  -1  110.88    5.26   1
   6   0   0   -0.10    3.74   1
   6   0   1 1129.63   36.97   1
   6   0   2 1425.82   46.07   1
   6   0   3    9.49    4.80   1
   6   0   5 2586.74   85.44   1
   6   1 -10  114.92   14.36   1
   6   1  -9    4.71    9.90   1
   6   1  -8   23.33    8.79   1
   6   1  -8    5.81    7.42   1
   6   1  -7 3086.91  105.56   1
   6   1  -7 3493.99  105.22   1
   6   1  -6 2391.21   89.98   1
   6   1  -6 2620.42   80.88   1
   6   1  -5   24.90    7.58   1
   6   1  -5    7.67    5.37   1
   6   1  -4  211.99   10.48   1
   6   1  -3 9104.98  282.44   1
   6   1  -3 9331.56  291.73   1
   6   1  -2 4790.02  143.96   1
   6   1  -2 4435.56  153.18   1
   6   1  -1  554.13   72.03   1
   6   1  -1 4128.06   74.53   1
   6   1   0 2103.14   66.04   1
   6   1   0 1967.81   69.20   1
   6   1   1  780.08   29.05   1
   6   1   1  888.04   28.61   1
   6   1   2 2306.88   69.16   1
   6   1   2 2051.18   75.18   1
   6   1   3 1626.51   54.85   1
   6   1   4  392.44   17.43   1
   6   2 -10  494.17   28.01   1
   6   2  -9   82.99   12.57   1
   6   2  -8  597.80   27.38   1
   6   2  -8  612.56   22.27   1
   6   2  -7 2066.61   73.65   1
   6   2  -6 3158.44  101.16   1
   6   2  -5  532.22   21.22   1
   6   2  -5  487.08   18.98   1
   6   2  -4   49.28    6.18   1
   6   2  -4   16.16    6.43   1
   6   2  -3 7269.27  221.68   1
   6   2  -3 6957.23  230.21   1
   6   2  -2 2877.25   90.12   1
   6   2  -1   36.72    6.54   1
   6   2  -1   21.72    5.59   1
   6   2   0  156.00    8.49   1
   6   2   0  123.88    9.13   1
   6   2   1 2317.46   84.73   1
   6   2   1 2712.33   80.20   1
   6   2   2 1830.98   68.46   1
   6   2   2 2230.67   68.96   1
   6   2   3   10.30    6.68   1
   6   3 -10  166.15   18.05   1
   6   3  -9  228.01   19.33   1
   6   3  -8  237.78   15.42   1
   6   3  -7  236.85   17.24   1
   6   3  -6 1333.71   46.02   1
   6   3  -5  144.72   10.11   1
   6   3  -5  132.71   10.83   1
   6   3  -4 3739.32  117.41   1
   6   3  -3 3170.82   96.85   1
   6   3  -3 2960.45  101.20   1
   6   3  -2 4420.92  154.26   1
   6   3  -1   69.06    9.14   1
   6   3  -1   62.09   10.87   1
   6   3   0    8.01    6.23   1
   6   3   0   -0.10    7.89   1
   6   3   1  659.98   25.69   1
   6   3   2  310.46   18.68   1
   6   3   3  166.67   11.62   1
   6   3   4   32.83   13.87   1
   6   4 -10  930.25   49.41   1
   6   4  -9  434.72   25.02   1
   6   4  -8 1020.80   47.93   1
   6   4  -7 2671.86   87.87   1
   6   4  -5  217.27   13.56   1
   6   4  -4  107.54   10.16   1
   6   4  -2 3202.43  113.18   1
   6   4  -1 1035.55   39.90   1
   6   4   1  278.56   18.03   1
   6   4   3  546.16   29.45   1
   6   5 -10  636.55   35.32   1
   6   5  -9  185.23   18.51   1
   6   5  -8  148.84   17.08   1
   6   5  -7  549.43   26.72   1
   6   5  -6 3042.63  112.53   1
   6   5  -5 2642.99   89.45   1
   6   5  -3 2519.04   86.33   1
   6   5  -2  800.32   35.65   1
   6   5   2  878.53   42.68   1
   6   5   3  571.21   35.37   1
   6   6  -9   38.94   13.10   1
   6   6  -8    1.59   12.35   1
   6   6  -7  694.85   40.59   1
   6   6  -6 1984.70   89.10   1
   6   6  -5  846.23   48.29   1
   6   6  -4   15.13   14.70   1
   6   6  -3  531.76   32.28   1
   6   6  -2 2910.60  128.40   1
   6   6  -1 1676.08   80.24   1
   6   6   0  124.77   18.10   1
   6   7  -6  855.56   50.90   1
   6   7  -5  412.90   28.04   1
   6   7  -4   22.66   11.90   1
   6   7  -3  377.52   31.48   1
   6   7  -2 1584.84   74.05   1
   7  -9   1   19.10   11.10   1
   7  -9   2   14.36   10.69   1
   7  -9   4   36.24   11.44   1
   7  -9   5   22.75   11.07   1
   7  -9   6  224.10   17.37   1
   7  -8  -2  419.84   24.59   1
   7  -8  -1 1527.25   68.78   1
   7  -8   1   51.70   14.96   1
   7  -8   3  868.48   40.67   1
   7  -8   4  271.26   17.79   1
   7  -8   6   33.76   10.11   1
   7  -8   7  235.93   17.20   1
   7  -7  -4    7.08   10.91   1
   7  -7  -3   -6.71   14.50   1
   7  -7  -2   39.44   10.05   1
   7  -7  -1  303.46   16.37   1
   7  -7   0  372.88   17.77   1
   7  -7   1   42.38    8.98   1
   7  -7   2   24.21   11.61   1
   7  -7   2   32.49    4.10   1
   7  -7   3   54.02    4.41   1
   7  -7   3   66.91    8.83   1
   7  -7   4  398.00   14.36   1
   7  -7   4  337.09   17.63   1
   7  -7   5   12.67    6.19   1
   7  -7   5   -2.19    8.58   1
   7  -7   6   35.40    9.40   1
   7  -7   6   47.47    7.44   1
   7  -7   7  255.68   16.95   1
   7  -7   7  229.22   14.53   1
   7  -7   8   22.28   10.95   1
   7  -6  -5 1197.85   56.76   1
   7  -6  -5 1147.85   52.85   1
   7  -6  -4  845.65   38.97   1
   7  -6  -3  286.62   17.95   1
   7  -6  -2  268.30   14.74   1
   7  -6  -1 1641.87   54.30   1
   7  -6   0 1172.38   40.40   1
   7  -6   1   78.50    8.86   1
   7  -6   2   -8.53    7.01   1
   7  -6   3  615.04   24.80   1
   7  -6   3  568.82   21.47   1
   7  -6   4 2465.12   84.41   1
   7  -6   4 2799.47   82.54   1
   7  -6   4 2651.22   85.47   1
   7  -6   5  245.24   12.84   1
   7  -6   5  240.87    9.62   1
   7  -6   5  134.10    9.26   1
   7  -6   6    9.49    7.88   1
   7  -6   6    4.41    6.01   1
   7  -6   7  414.12   21.57   1
   7  -6   7  375.58   18.99   1
   7  -6   8  161.80   12.47   1
   7  -6   8  177.42   16.78   1
   7  -5  -6  272.25   23.43   1
   7  -5  -5  483.56   23.75   1
   7  -5  -5  403.21   30.52   1
   7  -5  -4 1235.52   44.29   1
   7  -5  -4 1349.83   51.44   1
   7  -5  -3 1392.04   49.25   1
   7  -5  -3 1379.38   50.51   1
   7  -5  -2  256.00   12.80   1
   7  -5  -2  188.79    8.24   1
   7  -5  -1 1139.74   39.16   1
   7  -5   0 1049.76   36.94   1
   7  -5   1    9.18    6.61   1
   7  -5   2  253.45   14.65   1
   7  -5   3 2418.67   79.67   1
   7  -5   4 1633.78   52.55   1
   7  -5   4 1669.54   53.12   1
   7  -5   5   85.93    9.83   1
   7  -5   6  187.42   10.13   1
   7  -5   7   11.42    6.83   1
   7  -5   8   33.64    9.86   1
   7  -5   9   17.81    8.86   1
   7  -4  -7   -5.62    8.72   1
   7  -4  -7    1.99    8.97   1
   7  -4  -6   22.94    9.01   1
   7  -4  -6    6.60   10.69   1
   7  -4  -5 1107.56   38.60   1
   7  -4  -4 2091.23   69.51   1
   7  -4  -4 2312.65   81.75   1
   7  -4  -4 2153.89   71.47   1
   7  -4  -3  264.06   13.00   1
   7  -4  -2  161.80   10.18   1
   7  -4  -1 1921.07   63.99   1
   7  -4   0 1588.02   56.59   1
   7  -4   1   72.76    8.53   1
   7  -4   2  250.27   12.66   1
   7  -4   3  620.51   24.41   1
   7  -4   4 2086.66   63.95   1
   7  -4   4 1931.60   63.29   1
   7  -4   4 1998.09   66.16   1
   7  -4   5  404.41   14.88   1
   7  -4   5  386.52   14.16   1
   7  -4   6   -8.82    5.88   1
   7  -4   6    8.18    6.46   1
   7  -4   7  947.41   34.47   1
   7  -4   8  583.22   27.53   1
   7  -4   9   77.09   11.06   1
   7  -3  -8  572.64   31.59   1
   7  -3  -7  158.26   14.09   1
   7  -3  -6  549.43   24.38   1
   7  -3  -6  488.41   21.22   1
   7  -3  -5    5.29    7.08   1
   7  -3  -5    2.40    6.20   1
   7  -3  -5   -0.20    5.63   1
   7  -3  -4   13.32    4.09   1
   7  -3  -3   50.13    9.77   1
   7  -3  -1 2427.53   76.86   1
   7  -3   0 3598.80  112.78   1
   7  -3   1  460.10   18.02   1
   7  -3   3  649.74   20.39   1
   7  -3   4 1663.01   48.12   1
   7  -3   4 1413.76   49.63   1
   7  -3   5   47.06    4.80   1
   7  -3   6  248.38   12.92   1
   7  -3   6  232.87   10.99   1
   7  -3   7  583.71   27.54   1
   7  -3   8  630.51   30.63   1
   7  -2  -9  951.72   53.68   1
   7  -2  -8  707.56   42.03   1
   7  -2  -7  610.09   25.69   1
   7  -2  -6  335.62   15.02   1
   7  -2  -5   16.40    4.29   1
   7  -2   3  354.95   13.19   1
   7  -2   4  685.39   24.09   1
   7  -2   4  721.46   24.71   1
   7  -2   5  393.23   16.66   1
   7  -2   5  484.44   17.61   1
   7  -2   6   85.56   10.73   1
   7  -2   6  102.82    9.13   1
   7  -2   7   43.96    7.96   1
   7  -2   8   17.47   11.37   1
   7  -1  -9  288.32   19.02   1
   7  -1  -8 1083.73   55.96   1
   7  -1  -7  155.00   16.43   1
   7  -1  -6  262.44   13.61   1
   7  -1  -6  287.30   12.54   1
   7  -1  -5 4610.41  149.38   1
   7  -1   0  273.24    8.93   1
   7  -1   2  406.02   14.10   1
   7  -1   3  559.80   19.40   1
   7  -1   4 1178.55   38.45   1
   7  -1   5  473.06   19.57   1
   7   0  -9  295.15   28.18   1
   7   0  -8  957.90   47.04   1
   7   0  -7  168.48   11.94   1
   7   0  -6  282.24   12.77   1
   7   0  -5  307.30   13.67   1
   7   0  -4 4462.24  140.28   1
   7   0  -2  134.10    6.48   1
   7   0  -1 2394.15   75.35   1
   7   0   1   46.92    5.34   1
   7   0   2   54.76    6.66   1
   7   0   3  482.24   18.45   1
   7   0   4 1367.52   44.38   1
   7   1  -8 1232.01   61.78   1
   7   1  -7    3.20    7.70   1
   7   1  -6  280.90   17.10   1
   7   1  -5 1262.38   40.50   1
   7   1  -5 1131.65   51.81   1
   7   1  -4 3892.51  126.03   1
   7   1  -4 3573.65  115.97   1
   7   1  -3 5263.50  191.53   1
   7   1  -3 5706.29  169.21   1
   7   1  -2   15.68    5.86   1
   7   1  -1  216.38   10.30   1
   7   1   0 2038.52   65.92   1
   7   1   0 2104.97   68.82   1
   7   1   1 1647.55   60.07   1
   7   1   2  790.17   28.67   1
   7   1   3 1145.82   40.62   1
   7   2  -9  222.90   16.42   1
   7   2  -8 1371.96   63.71   1
   7   2  -7  726.84   33.97   1
   7   2  -6  101.61   10.08   1
   7   2  -6   76.21    9.25   1
   7   2  -5  107.33   10.98   1
   7   2  -4 1426.57   53.63   1
   7   2  -4 1470.72   49.85   1
   7   2  -3  146.65   12.59   1
   7   2  -3  220.82   12.19   1
   7   2  -2 1222.90   41.96   1
   7   2  -1  535.46   22.21   1
   7   2   0 1530.37   55.55   1
   7   2   0 1608.01   52.13   1
   7   2   1  297.56   16.56   1
   7   2   2   11.70    8.89   1
   7   2   3   32.60   10.85   1
   7   3  -9   77.44   14.61   1
   7   3  -8 1879.22   91.90   1
   7   3  -7  796.37   31.04   1
   7   3  -6  -20.79   10.31   1
   7   3  -5   26.21    6.76   1
   7   3  -4   43.56    8.84   1
   7   3  -4   85.56    9.62   1
   7   3  -3  587.09   31.50   1
   7   3  -3  666.67   23.75   1
   7   3  -2  171.35   13.61   1
   7   3  -1  598.29   18.59   1
   7   3  -1   22.56   11.02   1
   7   3   0 1423.55   50.56   1
   7   3   1  791.86   34.89   1
   7   3   2  172.92   15.25   1
   7   3   3   14.82    9.32   1
   7   4  -9  689.59   36.24   1
   7   4  -7  542.89   36.35   1
   7   4  -6  516.20   28.17   1
   7   4  -5  701.19   32.84   1
   7   4  -4 3195.64  105.15   1
   7   4  -3 4652.60  169.16   1
   7   4  -1  583.71   36.24   1
   7   4   0  193.21   15.29   1
   7   4   1 1154.64   53.01   1
   7   4   2  304.15   23.02   1
   7   4   3   18.23   13.92   1
   7   5  -8  411.68   33.28   1
   7   5  -6   -9.12   13.71   1
   7   5  -4 2009.73   89.66   1
   7   5  -3 1583.24   74.81   1
   7   5  -2  759.00   40.22   1
   7   5  -1  114.06   15.59   1
   7   5   0   11.09   16.12   1
   7   6  -6   35.64   16.84   1
   7   6  -5  118.59   17.64   1
   7   6  -4  702.25   40.28   1
   7   6  -3 1554.72   70.97   1
   8  -8   0   -5.52   15.32   1
   8  -8   1   19.71   15.27   1
   8  -8   2  199.37   16.38   1
   8  -8   3  160.78   18.26   1
   8  -8   4   87.24   13.26   1
   8  -8   5   11.02   10.82   1
   8  -7  -2  509.86   28.00   1
   8  -7  -1  116.42   14.03   1
   8  -7   0  184.42   15.21   1
   8  -7   2  851.47   40.85   1
   8  -7   3  117.07   15.58   1
   8  -7   4   86.86   11.74   1
   8  -7   5   18.49    9.98   1
   8  -7   6  390.85   24.91   1
   8  -6  -4   61.47   12.23   1
   8  -6  -3  401.60   24.85   1
   8  -6  -2 2310.72   99.02   1
   8  -6  -1 2100.39   89.83   1
   8  -6   0   22.66    9.23   1
   8  -6   1  186.87   15.58   1
   8  -6   2 1225.00   44.10   1
   8  -6   3  511.66   22.17   1
   8  -6   4  195.16   14.53   1
   8  -6   5  172.13   13.91   1
   8  -6   6  446.90   25.79   1
   8  -6   7  191.27   16.32   1
   8  -5  -4  176.89   14.63   1
   8  -5  -3  513.02   28.09   1
   8  -5  -2  665.12   27.85   1
   8  -5  -1   80.64   13.11   1
   8  -5   0   63.84   12.94   1
   8  -5   1    8.70    8.38   1
   8  -5   2  339.66   16.59   1
   8  -5   3  512.12   23.99   1
   8  -5   4   55.65   10.29   1
   8  -5   5   28.62    9.10   1
   8  -4  -6  297.22   19.31   1
   8  -4  -5  201.07   15.03   1
   8  -4  -4  487.53   26.05   1
   8  -4  -3   37.45    8.69   1
   8  -4  -2  163.33   11.50   1
   8  -4   0   23.91   10.76   1
   8  -4   1  101.81    9.89   1
   8  -4   2 3228.51  104.55   1
   8  -2   3  611.08   19.78   1
   8  -2   4  222.01   10.13   1
   8  -2   5    3.50    6.10   1
   8  -1   2  473.93   16.55   1
   8   0  -2  206.78    8.34   1
   8   0  -1 1852.44   58.53   1
   8   0   0  576.48   20.17   1
   8   0   1  796.37   27.09   1
   8   1  -7   24.01   10.09   1
   8   1  -6  641.10   42.54   1
   8   1  -5 1491.50   54.84   1
   8   1  -4  914.46   31.45   1
   8   1  -3  316.48   13.52   1
   8   1  -2  394.02   14.69   1
   8   1  -1  810.54   27.90   1
   8   1   0  230.13   11.53   1
   8   2  -7   25.20   14.56   1
   8   2  -6  572.64   30.63   1
   8   2  -5  526.70   27.54   1
   8   2  -4  294.12   20.92   1
   8   2  -3  103.84   11.01   1
   8   2  -2  702.25   30.21   1
   8   2  -2  662.55   24.71   1
   8   2   0  796.93   32.75   1
   8   2   1    0.10    9.41   1
   8   2   2    3.80    7.49   1
   8   3  -7   42.38   14.45   1
   8   3  -6 1447.04   64.67   1
   8   3  -5 2944.15  128.05   1
   8   3  -4   88.92   13.01   1
   8   3  -3  124.10   13.15   1
   8   3  -1  702.78   32.34   1
   8   3   0  664.09   41.23   1
   8   3   1  636.55   35.83   1
   8   3   2   55.35   11.31   1
   8   4  -6  154.50   19.89   1
   8   4  -5  833.48   41.00   1
   8   4  -4 1114.22   58.75   1
   8   4  -3  883.28   46.96   1
   8   4  -2   45.83   14.08   1
   8   4  -1  786.24   41.50   1
   8   4   0  128.60   17.46   1
   9  -7   0  207.65   18.73   1
   9  -7   1  717.17   38.56   1
   9  -7   2  191.55   17.16   1
   9  -7   3   21.90   16.10   1
   9  -6  -2  318.98   21.07   1
   9  -6  -1  286.96   19.65   1
   9  -6   0  172.13   15.48   1
   9  -6   1  565.96   31.88   1
   9  -6   2  105.27   14.36   1
   9  -6   3    5.52   10.90   1
   9  -6   4  168.74   15.59   1
   9  -6   5  403.61   23.71   1
   9  -5  -2  594.38   31.21   1
   9  -5  -1  309.06   20.04   1
   9  -5   0   94.87   15.97   1
   9  -5   1  690.11   34.68   1
   9  -5   2  285.61   21.63   1
   0   0   0    0.00    0.00   0
;
_shelx_hkl_checksum              54761
loop_
_space_group_symop_operation_xyz
'x, y, z'
'-x, -y, -z'
loop_
_atom_site_label
_atom_site_type_symbol
_atom_site_fract_x
_atom_site_fract_y
_atom_site_fract_z
_atom_site_U_iso_or_equiv
_atom_site_adp_type
_atom_site_occupancy
_atom_site_site_symmetry_order
_atom_site_calc_flag
_atom_site_refinement_flags_posn
_atom_site_refinement_flags_adp
_atom_site_refinement_flags_occupancy
Cu1 Cu 0.0000 0.0000 0.5000 0.0365(2) Uani 1 2 d S . P
S2 S -0.27900(7) 0.03624(7) 0.26090(6) 0.0434(2) Uani 1 1 d . . .
N2 N 0.1343(2) 0.1828(2) 0.46624(18) 0.0362(4) Uani 1 1 d . . .
N3 N 0.2322(2) 0.1965(2) 0.38113(19) 0.0386(4) Uani 1 1 d . . .
N1 N -0.0634(2) 0.1882(2) 0.64086(19) 0.0368(4) Uani 1 1 d . . .
O1 O -0.2113(2) -0.0446(2) 0.33080(19) 0.0546(5) Uani 1 1 d . . .
C6 C 0.1175(2) 0.3294(2) 0.5457(2) 0.0342(5) Uani 1 1 d . . .
N4 N 0.2776(2) 0.3540(2) 0.40777(19) 0.0357(4) Uani 1 1 d . . .
C5 C 0.0147(2) 0.3351(3) 0.6465(2) 0.0353(5) Uani 1 1 d . . .
N5 N 0.4205(3) 0.5723(3) 0.3703(3) 0.0517(6) Uani 1 1 d . . .
C4 C -0.0010(3) 0.4774(3) 0.7434(2) 0.0428(6) Uani 1 1 d . . .
H4 H 0.0560 0.5794 0.7438 0.051 Uiso 1 1 d R U .
O3 O -0.4443(2) -0.0343(3) 0.2080(3) 0.0718(6) Uani 1 1 d . . .
C8 C 0.3851(2) 0.4124(3) 0.3299(2) 0.0398(5) Uani 1 1 d . . .
C7 C 0.2107(3) 0.4415(3) 0.5084(2) 0.0360(5) Uani 1 1 d . . .
H7 H 0.2149 0.5537 0.5543 0.043 Uiso 1 1 d R U .
C3 C -0.1002(3) 0.4664(3) 0.8351(3) 0.0515(6) Uani 1 1 d . . .
H3 H -0.1096 0.5628 0.9050 0.062 Uiso 1 1 d R U .
C12 C 0.5143(3) 0.6332(4) 0.2989(4) 0.0641(9) Uani 1 1 d . . .
H12 H 0.5465 0.7474 0.3209 0.077 Uiso 1 1 d R U .
O2 O -0.2292(3) 0.2078(2) 0.3218(2) 0.0739(7) Uani 1 1 d . . .
C1 C -0.1606(3) 0.1811(3) 0.7294(3) 0.0478(6) Uani 1 1 d . . .
H1 H -0.2182 0.0782 0.7271 0.057 Uiso 1 1 d R U .
C9 C 0.4377(3) 0.3090(3) 0.2270(3) 0.0523(6) Uani 1 1 d . . .
H9 H 0.4086 0.1958 0.2096 0.063 Uiso 1 1 d R U .
C2 C -0.1813(3) 0.3189(3) 0.8301(3) 0.0514(6) Uani 1 1 d . . .
H2 H -0.2543 0.3118 0.8921 0.062 Uiso 1 1 d R U .
F2 F -0.0209(2) 0.0635(4) 0.1487(2) 0.1101(9) Uani 1 1 d . . .
F1 F -0.1938(4) -0.1609(3) 0.0514(2) 0.1142(9) Uani 1 1 d . . .
F3 F -0.2337(3) 0.0470(3) 0.0309(2) 0.1046(8) Uani 1 1 d . . .
C13 C -0.1780(4) -0.0040(4) 0.1156(3) 0.0694(8) Uani 1 1 d . . .
C11 C 0.5713(3) 0.5400(5) 0.1913(4) 0.0668(8) Uani 1 1 d . . .
H11 H 0.6385 0.5914 0.1440 0.080 Uiso 1 1 d R U .
C10 C 0.5345(4) 0.3777(5) 0.1551(3) 0.0720(9) Uani 1 1 d . . .
H10 H 0.5707 0.3079 0.0795 0.086 Uiso 1 1 d R U .
loop_
_atom_site_aniso_label
_atom_site_aniso_U_11
_atom_site_aniso_U_22
_atom_site_aniso_U_33
_atom_site_aniso_U_23
_atom_site_aniso_U_13
_atom_site_aniso_U_12
Cu1 0.0442(3) 0.0200(3) 0.0438(3) 0.0121(2) 0.01907(19) 0.00286(18)
S2 0.0477(4) 0.0286(4) 0.0523(4) 0.0165(3) 0.0099(3) 0.0045(3)
N2 0.0404(10) 0.0259(10) 0.0410(10) 0.0140(8) 0.0106(8) 0.0031(8)
N3 0.0423(10) 0.0267(10) 0.0453(11) 0.0165(8) 0.0115(8) 0.0001(8)
N1 0.0419(10) 0.0261(9) 0.0431(10) 0.0150(8) 0.0135(8) 0.0054(7)
O1 0.0555(11) 0.0471(11) 0.0609(12) 0.0282(9) 0.0013(9) 0.0013(8)
C6 0.0361(11) 0.0222(10) 0.0407(11) 0.0115(9) 0.0023(9) 0.0019(8)
N4 0.0378(9) 0.0282(10) 0.0401(10) 0.0172(8) 0.0051(8) -0.0007(8)
C5 0.0352(10) 0.0259(11) 0.0431(12) 0.0130(9) 0.0039(9) 0.0055(8)
N5 0.0454(11) 0.0417(13) 0.0711(15) 0.0335(12) 0.0053(10) -0.0029(9)
C4 0.0478(13) 0.0240(11) 0.0493(13) 0.0086(10) 0.0044(10) 0.0050(9)
O3 0.0475(11) 0.0735(14) 0.1031(17) 0.0495(13) 0.0029(11) 0.0076(10)
C8 0.0302(10) 0.0416(13) 0.0512(14) 0.0284(12) 0.0029(9) -0.0017(9)
C7 0.0370(11) 0.0250(11) 0.0427(12) 0.0129(10) 0.0045(9) 0.0019(9)
C3 0.0608(15) 0.0371(14) 0.0501(14) 0.0068(12) 0.0149(12) 0.0162(12)
C12 0.0468(14) 0.0583(18) 0.097(2) 0.0547(19) 0.0013(15) -0.0088(13)
O2 0.1013(17) 0.0272(10) 0.0820(16) 0.0115(10) 0.0215(13) 0.0091(10)
C1 0.0537(14) 0.0349(13) 0.0570(15) 0.0188(12) 0.0241(12) 0.0104(11)
C9 0.0527(14) 0.0508(16) 0.0534(15) 0.0260(13) 0.0134(12) 0.0017(12)
C2 0.0584(15) 0.0452(15) 0.0538(15) 0.0179(12) 0.0247(12) 0.0181(12)
F2 0.0666(12) 0.175(3) 0.0744(14) 0.0436(15) 0.0265(10) 0.0058(14)
F1 0.152(2) 0.0898(18) 0.0753(15) -0.0070(13) 0.0218(15) 0.0471(16)
F3 0.129(2) 0.132(2) 0.0689(13) 0.0595(14) 0.0144(12) 0.0302(17)
C13 0.077(2) 0.070(2) 0.0534(17) 0.0190(16) 0.0082(15) 0.0106(16)
C11 0.0508(15) 0.086(2) 0.082(2) 0.0614(19) 0.0162(14) 0.0014(15)
C10 0.0635(18) 0.093(3) 0.0671(19) 0.0429(19) 0.0253(15) 0.0100(17)
loop_
_atom_type_symbol
_atom_type_description
_atom_type_scat_dispersion_real
_atom_type_scat_dispersion_imag
_atom_type_scat_source
C C 0.0033 0.0016 'International Tables Vol C Tables 4.2.6.8 and 6.1.1.4'
H H 0.0000 0.0000 'International Tables Vol C Tables 4.2.6.8 and 6.1.1.4'
Cu Cu 0.3201 1.2651 'International Tables Vol C Tables 4.2.6.8 and 6.1.1.4'
F F 0.0171 0.0103 'International Tables Vol C Tables 4.2.6.8 and 6.1.1.4'
N N 0.0061 0.0033 'International Tables Vol C Tables 4.2.6.8 and 6.1.1.4'
O O 0.0106 0.0060 'International Tables Vol C Tables 4.2.6.8 and 6.1.1.4'
S S 0.1246 0.1234 'International Tables Vol C Tables 4.2.6.8 and 6.1.1.4'
loop_
_geom_angle_atom_site_label_1
_geom_angle_atom_site_label_2
_geom_angle_atom_site_label_3
_geom_angle
_geom_angle_site_symmetry_1
_geom_angle_site_symmetry_3
N2 Cu1 N2 180.00(10) 2_556 .
N2 Cu1 N1 99.23(7) 2_556 .
N2 Cu1 N1 80.77(7) . .
N2 Cu1 N1 80.77(7) 2_556 2_556
N2 Cu1 N1 99.23(7) . 2_556
N1 Cu1 N1 180.0 . 2_556
N2 Cu1 O1 88.07(7) 2_556 .
N2 Cu1 O1 91.93(7) . .
N1 Cu1 O1 95.40(7) . .
N1 Cu1 O1 84.60(7) 2_556 .
N2 Cu1 O1 91.93(7) 2_556 2_556
N2 Cu1 O1 88.07(7) . 2_556
N1 Cu1 O1 84.60(7) . 2_556
N1 Cu1 O1 95.40(7) 2_556 2_556
O1 Cu1 O1 180.0 . 2_556
O3 S2 O2 117.02(14) . .
O3 S2 O1 114.50(12) . .
O2 S2 O1 114.37(13) . .
O3 S2 C13 103.52(16) . .
O2 S2 C13 101.62(15) . .
O1 S2 C13 103.00(14) . .
N3 N2 C6 110.74(17) . .
N3 N2 Cu1 135.44(15) . .
C6 N2 Cu1 113.75(15) . .
N2 N3 N4 105.11(18) . .
C1 N1 C5 118.3(2) . .
C1 N1 Cu1 127.67(16) . .
C5 N1 Cu1 113.85(14) . .
S2 O1 Cu1 141.99(11) . .
N2 C6 C7 107.3(2) . .
N2 C6 C5 117.55(18) . .
C7 C6 C5 135.1(2) . .
N3 N4 C7 112.64(17) . .
N3 N4 C8 119.90(19) . .
C7 N4 C8 127.5(2) . .
N1 C5 C4 122.2(2) . .
N1 C5 C6 113.87(18) . .
C4 C5 C6 123.9(2) . .
C8 N5 C12 115.3(3) . .
C3 C4 C5 118.2(2) . .
C3 C4 H4 122.1 . .
C5 C4 H4 119.7 . .
N5 C8 C9 126.5(2) . .
N5 C8 N4 112.4(2) . .
C9 C8 N4 121.1(2) . .
N4 C7 C6 104.17(19) . .
N4 C7 H7 136.3 . .
C6 C7 H7 119.5 . .
C2 C3 C4 120.3(2) . .
C2 C3 H3 119.9 . .
C4 C3 H3 119.7 . .
N5 C12 C11 123.2(3) . .
N5 C12 H12 121.2 . .
C11 C12 H12 115.7 . .
N1 C1 C2 122.6(2) . .
N1 C1 H1 119.9 . .
C2 C1 H1 117.4 . .
C8 C9 C10 116.2(3) . .
C8 C9 H9 119.3 . .
C10 C9 H9 124.6 . .
C3 C2 C1 118.3(2) . .
C3 C2 H2 120.0 . .
C1 C2 H2 121.6 . .
F3 C13 F1 106.4(3) . .
F3 C13 F2 108.5(3) . .
F1 C13 F2 106.2(3) . .
F3 C13 S2 113.1(3) . .
F1 C13 S2 111.4(3) . .
F2 C13 S2 110.8(2) . .
C10 C11 C12 119.5(3) . .
C10 C11 H11 121.4 . .
C12 C11 H11 119.1 . .
C11 C10 C9 119.3(3) . .
C11 C10 H10 122.1 . .
C9 C10 H10 118.5 . .
loop_
_geom_bond_atom_site_label_1
_geom_bond_atom_site_label_2
_geom_bond_distance
_geom_bond_site_symmetry_2
Cu1 N2 1.9922(17) 2_556
Cu1 N2 1.9922(17) .
Cu1 N1 2.0535(19) .
Cu1 N1 2.0535(19) 2_556
Cu1 O1 2.3941(17) .
Cu1 O1 2.3942(17) 2_556
S2 O3 1.423(2) .
S2 O2 1.424(2) .
S2 O1 1.4336(18) .
S2 C13 1.814(3) .
N2 N3 1.312(3) .
N2 C6 1.355(3) .
N3 N4 1.332(3) .
N1 C1 1.325(3) .
N1 C5 1.351(3) .
C6 C7 1.366(3) .
C6 C5 1.445(3) .
N4 C7 1.346(3) .
N4 C8 1.442(3) .
C5 C4 1.391(3) .
N5 C8 1.330(3) .
N5 C12 1.333(4) .
C4 C3 1.371(4) .
C4 H4 0.9599 .
C8 C9 1.355(4) .
C7 H7 0.9600 .
C3 C2 1.366(4) .
C3 H3 0.9600 .
C12 C11 1.367(5) .
C12 H12 0.9600 .
C1 C2 1.397(4) .
C1 H1 0.9601 .
C9 C10 1.388(4) .
C9 H9 0.9601 .
C2 H2 0.9601 .
F2 C13 1.329(4) .
F1 C13 1.327(4) .
F3 C13 1.303(4) .
C11 C10 1.356(5) .
C11 H11 0.9601 .
C10 H10 0.9600 .
