#------------------------------------------------------------------------------
#$Date: 2015-06-10 10:48:19 +0300 (Wed, 10 Jun 2015) $
#$Revision: 139039 $
#$URL: svn://www.crystallography.net/cod/cif/7/22/07/7220744.cif $
#------------------------------------------------------------------------------
#
# This file is available in the Crystallography Open Database (COD),
# http://www.crystallography.net/
#
# All data on this site have been placed in the public domain by the
# contributors.
#
data_7220744
loop_
_publ_author_name
'Parveen, Mehtab'
'Ahmad, Faheem'
'Malla, Ali Mohammed'
'Azaz, Shaista'
'Silva, Manuela Ramos'
'Silva, P. S. Pereira'
_publ_section_title
;
 [Et3NH][HSO4]-mediated functionalization of hippuric acid: an
 unprecedented approach to 4-arylidene-2-phenyl-5(4H)-oxazolones
;
_journal_name_full               'RSC Adv.'
_journal_paper_doi               10.1039/C5RA09290F
_journal_year                    2015
_chemical_formula_moiety         'C18 H16 N2 O2'
_chemical_formula_sum            'C18 H16 N2 O2'
_chemical_formula_weight         292.33
_space_group_crystal_system      monoclinic
_space_group_IT_number           4
_space_group_name_Hall           'P 2yb'
_space_group_name_H-M_alt        'P 1 21 1'
_symmetry_space_group_name_Hall  'P 2yb'
_symmetry_space_group_name_H-M   'P 1 21 1'
_atom_sites_solution_hydrogens   geom
_audit_creation_method           SHELXL-2014/7
_audit_update_record
;
2014-12-16 deposited with the CCDC.
2015-06-09 downloaded from the CCDC.
;
_cell_angle_alpha                90
_cell_angle_beta                 100.0550(10)
_cell_angle_gamma                90
_cell_formula_units_Z            2
_cell_length_a                   12.0978(3)
_cell_length_b                   3.97900(10)
_cell_length_c                   15.5788(4)
_cell_measurement_reflns_used    5834
_cell_measurement_temperature    293(2)
_cell_measurement_theta_max      24.6960
_cell_measurement_theta_min      2.6557
_cell_volume                     738.40(3)
_computing_cell_refinement       'SAINT (Bruker, 2003)'
_computing_data_collection       'SMART (Bruker, 2003)'
_computing_data_reduction        SAINT
_computing_molecular_graphics
;
Mercury (Macrae et al., 2006) and PLATON (Spek, 2009)
;
_computing_publication_material  'SHELXL-2014/7 (Sheldrick, 2014)'
_computing_structure_refinement  'SHELXL-2014/7 (Sheldrick, 2014)'
_computing_structure_solution    'SHELXS-2014/7 (Sheldrick, 2014)'
_diffrn_ambient_temperature      293(2)
_diffrn_measured_fraction_theta_full 0.996
_diffrn_measured_fraction_theta_max 0.996
_diffrn_measurement_device_type  'Bruker APEX2 CCD area-detector'
_diffrn_measurement_method       '\f and \w'
_diffrn_radiation_type           MoK\a
_diffrn_radiation_wavelength     0.71073
_diffrn_reflns_av_R_equivalents  0.0240
_diffrn_reflns_av_unetI/netI     0.0208
_diffrn_reflns_laue_measured_fraction_full 0.996
_diffrn_reflns_laue_measured_fraction_max 0.996
_diffrn_reflns_limit_h_max       14
_diffrn_reflns_limit_h_min       -14
_diffrn_reflns_limit_k_max       4
_diffrn_reflns_limit_k_min       -4
_diffrn_reflns_limit_l_max       18
_diffrn_reflns_limit_l_min       -19
_diffrn_reflns_number            13647
_diffrn_reflns_point_group_measured_fraction_full 0.992
_diffrn_reflns_point_group_measured_fraction_max 0.991
_diffrn_reflns_theta_full        25.000
_diffrn_reflns_theta_max         26.048
_diffrn_reflns_theta_min         3.401
_diffrn_source                   'fine-focus sealed tube'
_exptl_absorpt_coefficient_mu    0.087
_exptl_absorpt_correction_T_max  0.990
_exptl_absorpt_correction_T_min  0.890
_exptl_absorpt_correction_type   multi-scan
_exptl_absorpt_process_details   (SADABS;Sheldrick,2003)
_exptl_crystal_colour            red
_exptl_crystal_density_diffrn    1.315
_exptl_crystal_description       needle
_exptl_crystal_F_000             308
_exptl_crystal_size_max          0.600
_exptl_crystal_size_mid          0.130
_exptl_crystal_size_min          0.110
_refine_diff_density_max         0.135
_refine_diff_density_min         -0.180
_refine_diff_density_rms         0.051
_refine_ls_abs_structure_details
;
 Flack x determined using 953 quotients [(I+)-(I-)]/[(I+)+(I-)]
 (Parsons, Flack and Wagner, Acta Cryst. B69 (2013) 249-259).
;
_refine_ls_abs_structure_Flack   -0.1(5)
_refine_ls_extinction_method     none
_refine_ls_goodness_of_fit_ref   1.040
_refine_ls_hydrogen_treatment    constr
_refine_ls_matrix_type           full
_refine_ls_number_parameters     201
_refine_ls_number_reflns         2873
_refine_ls_number_restraints     1
_refine_ls_restrained_S_all      1.039
_refine_ls_R_factor_all          0.0422
_refine_ls_R_factor_gt           0.0352
_refine_ls_shift/su_max          0.000
_refine_ls_shift/su_mean         0.000
_refine_ls_structure_factor_coef Fsqd
_refine_ls_weighting_details
'w=1/[\s^2^(Fo^2^)+(0.0550P)^2^+0.0436P] where P=(Fo^2^+2Fc^2^)/3'
_refine_ls_weighting_scheme      calc
_refine_ls_wR_factor_gt          0.0877
_refine_ls_wR_factor_ref         0.0924
_reflns_Friedel_coverage         0.726
_reflns_friedel_fraction_full    0.986
_reflns_friedel_fraction_max     0.985
_reflns_number_gt                2503
_reflns_number_total             2873
_reflns_threshold_expression     'I > 2\s(I)'
_cod_data_source_file            c5ra09290f2.cif
_cod_data_source_block           shelx
_cod_database_code               7220744
_shelx_shelxl_version_number     2014/7
_shelx_space_group_comment
;
The symmetry employed for this shelxl refinement is uniquely defined
by the following loop, which should always be used as a source of
symmetry information in preference to the above space-group names.
They are only intended as comments.
;
_shelx_estimated_absorpt_t_min   0.950
_shelx_estimated_absorpt_t_max   0.990
_shelx_res_file
;

    shelx.res created by SHELXL-2014/7


TITL azl1                        New: P21
CELL  0.71073   12.0978    3.9790   15.5788    90.000   100.055    90.000
ZERR 2           0.0003    0.0001    0.0004     0.000     0.001     0.000
LATT  -1
SYMM             - X ,    0.50000 + Y ,            - Z
SFAC  C H N O
UNIT   36 32 4 4
L.S. 25
FMAP 2
OMIT 0 0 2
OMIT -1 0 1
OMIT 1 0 1
SIZE 0.60 0.13 0.11
PLAN 20
ACTA 50
MERG 2
BOND $H
WGHT    0.055000    0.043600
FVAR       1.05884
O1    4    0.211787    0.471063    0.763954    11.00000    0.03705    0.07186 =
         0.04998    0.00758    0.01033    0.01203
O2    4    0.200483    0.695746    0.629464    11.00000    0.04985    0.10785 =
         0.05831    0.02478    0.00943    0.02678
N1    3    0.887593    0.037913    0.657753    11.00000    0.03631    0.06257 =
         0.05174    0.00389    0.00953    0.00875
N2    3    0.387022    0.258392    0.787699    11.00000    0.03988    0.05320 =
         0.04268    0.00345    0.00750    0.00555
C1    1    0.951525   -0.115325    0.734530    11.00000    0.04473    0.07054 =
         0.06685    0.00298    0.00240    0.01355
AFIX 137
H1A   2    0.922345   -0.335597    0.742161    11.00000   -1.50000
H1B   2    0.946051    0.020232    0.784591    11.00000   -1.50000
H1C   2    1.028761   -0.132672    0.727971    11.00000   -1.50000
AFIX   0
C2    1    0.945249    0.120103    0.586120    11.00000    0.04788    0.08073 =
         0.07273    0.00689    0.02568    0.01103
AFIX 137
H2A   2    0.950492    0.359819    0.581123    11.00000   -1.50000
H2B   2    0.904052    0.029832    0.532854    11.00000   -1.50000
H2C   2    1.019301    0.024969    0.597049    11.00000   -1.50000
AFIX   0
C3    1    0.777974    0.125752    0.654200    11.00000    0.03700    0.03876 =
         0.04248   -0.00573    0.00652   -0.00012
C4    1    0.720696    0.041645    0.722963    11.00000    0.04265    0.04410 =
         0.03832   -0.00081    0.00566    0.00464
AFIX  43
H4    2    0.758301   -0.076181    0.770855    11.00000   -1.20000
AFIX   0
C5    1    0.610691    0.130774    0.720261    11.00000    0.04085    0.04681 =
         0.03853   -0.00044    0.01032    0.00043
AFIX  43
H5    2    0.575056    0.070198    0.766242    11.00000   -1.20000
AFIX   0
C6    1    0.550673    0.310576    0.650073    11.00000    0.03749    0.03888 =
         0.03734   -0.00319    0.00505   -0.00016
C7    1    0.607704    0.389028    0.581746    11.00000    0.04236    0.04626 =
         0.03655    0.00102    0.00435    0.00319
AFIX  43
H7    2    0.569796    0.506598    0.533924    11.00000   -1.20000
AFIX   0
C8    1    0.717359    0.298908    0.582752    11.00000    0.04252    0.04624 =
         0.03979   -0.00037    0.01172   -0.00237
AFIX  43
H8    2    0.751791    0.353089    0.535660    11.00000   -1.20000
AFIX   0
C9    1    0.437269    0.425192    0.645335    11.00000    0.03866    0.04807 =
         0.04104   -0.00083    0.00477    0.00187
AFIX  43
H9    2    0.406855    0.531817    0.593450    11.00000   -1.20000
AFIX   0
C10   1    0.367660    0.403236    0.703997    11.00000    0.03719    0.04975 =
         0.04300   -0.00026    0.00295    0.00535
C11   1    0.255207    0.542940    0.688682    11.00000    0.03927    0.06896 =
         0.04480    0.00541    0.00726    0.00781
C12   1    0.296789    0.304263    0.818648    11.00000    0.03712    0.04763 =
         0.04587   -0.00079    0.00358    0.00414
C13   1    0.274325    0.206270    0.903617    11.00000    0.04673    0.04438 =
         0.04552   -0.00486    0.00877   -0.00346
C14   1    0.358190    0.050664    0.962319    11.00000    0.05439    0.05906 =
         0.05446    0.00509    0.01020    0.00467
AFIX  43
H14   2    0.427179    0.005361    0.946233    11.00000   -1.20000
AFIX   0
C15   1    0.340003   -0.037363    1.044376    11.00000    0.08190    0.06089 =
         0.05230    0.00841    0.00950    0.00539
AFIX  43
H15   2    0.396994   -0.137021    1.083990    11.00000   -1.20000
AFIX   0
C16   1    0.236482    0.023588    1.067308    11.00000    0.09606    0.05748 =
         0.04865   -0.00055    0.02373   -0.00478
AFIX  43
H16   2    0.223221   -0.040475    1.122017    11.00000   -1.20000
AFIX   0
C17   1    0.153213    0.178180    1.009710    11.00000    0.06982    0.06604 =
         0.06076   -0.00596    0.02917   -0.00375
AFIX  43
H17   2    0.084190    0.221028    1.026013    11.00000   -1.20000
AFIX   0
C18   1    0.170917    0.270664    0.927832    11.00000    0.05032    0.06028 =
         0.05330   -0.00271    0.01325    0.00123
AFIX  43
H18   2    0.114141    0.375326    0.889078    11.00000   -1.20000
AFIX   0
HKLF 4

REM  azl1                        New: P21
REM R1 =  0.0352 for    2503 Fo > 4sig(Fo)  and  0.0422 for all    2873 data
REM    201 parameters refined using      1 restraints

END

WGHT      0.0538      0.0458

REM Highest difference peak  0.135,  deepest hole -0.180,  1-sigma level  0.051
Q1    1   0.5402  0.6704  0.6469  11.00000  0.05    0.13
Q2    1   0.5130  0.4491  0.6576  11.00000  0.05    0.13
Q3    1   1.0248  0.0277  0.7516  11.00000  0.05    0.13
Q4    1   0.9805 -0.1477  0.5847  11.00000  0.05    0.13
Q5    1   0.5397  0.4248  0.5127  11.00000  0.05    0.13
Q6    1   1.0028  0.2669  0.7803  11.00000  0.05    0.13
Q7    1   1.0616  0.1980  0.7444  11.00000  0.05    0.12
Q8    1   1.0163 -0.3038  0.7068  11.00000  0.05    0.12
Q9    1   0.0975  0.4252  0.8610  11.00000  0.05    0.12
Q10   1   0.4872  0.2708  0.6348  11.00000  0.05    0.12
Q11   1   0.4423  0.1092  0.8032  11.00000  0.05    0.11
Q12   1   0.9391 -0.1320  0.8025  11.00000  0.05    0.11
Q13   1   0.4617 -0.0004  0.9035  11.00000  0.05    0.11
Q14   1   0.3940  0.6710  0.7827  11.00000  0.05    0.11
Q15   1   1.0405  0.2632  0.6102  11.00000  0.05    0.11
Q16   1   1.0533 -0.4898  0.7107  11.00000  0.05    0.11
Q17   1   0.9771 -0.4452  0.8206  11.00000  0.05    0.11
Q18   1   0.4671  0.1225  0.9648  11.00000  0.05    0.11
Q19   1   0.4746 -0.1269  0.9426  11.00000  0.05    0.11
Q20   1   0.5353 -0.1441  0.7620  11.00000  0.05    0.11
;
_shelx_res_checksum              57306
_shelx_hkl_file
;
  -2   0   0 1903.53   35.06   1
  -2   0   0 1432.99   36.47   3
   3   0   0  203.49    5.11   8
   3   0   0  196.01    5.53   4
  -3   0   0  205.11    5.32   6
  -3   0   0  195.83    4.71   7
   3   0   0  190.06    4.82   3
   3   0   0  196.53    4.71   3
  -3   0   0  198.44    5.57   4
  -3   0   0  206.28    4.64   5
  -3   0   0  207.23    4.87   3
  -3   0   0  200.81    4.79   3
  -3   0   0  200.72    4.50   1
  -3   0   0  193.07    4.54   1
   4   0   0   13.62    1.14   4
  -4   0   0    6.82    1.07   6
  -4   0   0   10.39    0.82   7
  -4   0   0   10.09    0.72   1
  -4   0   0   11.30    0.83   1
   4   0   0   10.35    0.81   3
   4   0   0    9.87    0.71   3
   4   0   0   10.59    1.04   8
  -4   0   0   11.42    0.75   5
  -4   0   0    9.97    0.79   3
  -5   0   0  805.61   17.44   7
  -5   0   0  782.63   16.80   1
  -5   0   0  797.85   16.72   1
  -5   0   0  774.50   18.49   6
   5   0   0  811.09   17.74   3
   5   0   0  809.65   17.53   3
   5   0   0  805.25   19.71   4
   5   0   0  804.29   17.99   8
  -5   0   0  778.45   16.79   1
   6   0   0  682.51   15.96   8
  -6   0   0  664.57   15.25   7
   6   0   0  697.49   15.23   3
   6   0   0  683.44   17.44   4
   6   0   0  703.53   15.06   5
  -6   0   0  681.04   14.63   1
  -6   0   0  681.15   16.42   6
   6   0   0  659.18   15.39   3
  -6   0   0  688.42   14.76   1
  -6   0   0  677.70   14.70   1
   7   0   0   29.45    1.55   3
  -7   0   0   28.12    1.58   1
  -7   0   0   28.83    2.24   6
   7   0   0   30.02    1.40   3
   7   0   0   29.41    2.07   8
  -7   0   0   29.60    1.64   7
  -7   0   0   29.20    1.50   1
   7   0   0   34.27    1.68   5
   7   0   0   31.31    2.18   4
  -8   0   0    1.97    0.64   1
   8   0   0    1.55    0.68   3
   8   0   0    1.55    0.98   8
   8   0   0    0.90    0.85   4
  -8   0   0    1.72    0.69   7
  -8   0   0    2.49    1.25   6
  -8   0   0    0.85    0.67   1
   8   0   0    1.92    0.59   3
   9   0   0   62.91    3.59   4
  -9   0   0   75.47    3.97   6
  -9   0   0   57.78    2.52   1
  -9   0   0   62.67    2.72   1
   9   0   0   65.21    2.26   3
  -9   0   0   62.43    2.80   7
   9   0   0   63.36    3.47   8
   9   0   0   57.95    2.35   3
 -10   0   0    1.37    0.86   1
  10   0   0    1.24    1.21   8
  10   0   0   -0.37    0.87   4
 -10   0   0   -2.17    1.36   6
 -10   0   0    0.55    0.80   7
  10   0   0    0.29    0.53   3
  10   0   0    0.40    0.63   3
 -10   0   0    0.54    0.71   1
  11   0   0   16.17    2.26   4
 -11   0   0   14.00    2.39   6
 -11   0   0   16.63    1.57   1
 -11   0   0   15.46    1.67   7
 -11   0   0   18.06    1.72   1
 -12   0   0  151.26    5.61   7
 -12   0   0  161.43    5.36   1
  12   0   0  158.75    7.08   4
  13   0   0    0.26    1.27   4
 -13   0   0   -0.25    0.94   7
 -13   0   0    0.63    1.03   1
 -14   0   0    2.51    1.28   7
 -14   0   0    1.91    1.34   1
   0   1   0    0.13    0.53   2
   0  -1   0    0.64    0.45   2
   0   1   0    0.34    0.52   7
   0   1   0   -1.00    0.56   3
   0  -1   0   -2.26    0.62   6
   0  -1   0   -0.47    0.48   5
   0  -1   0   -1.21    0.47   7
   1   1   0 1016.33   21.73   7
  -1  -1   0 1022.82   21.90   7
  -1  -1   0 1013.40   22.38   3
  -1  -1   0  982.17   21.56   2
   1   1   0  967.83   22.31   3
  -1  -1   0  985.83   22.33   6
   1   1   0  979.02   21.58   2
  -1   1   0  982.58   22.19   3
   1  -1   0 1003.24   21.35   2
   1  -1   0  986.34   21.84   6
  -1   1   0 1001.53   21.03   1
  -1   1   0 1003.96   21.61   7
  -1  -1   0 1001.27   21.56   5
  -1   1   0 1004.24   21.50   2
  -2  -1   0  715.15   15.95   7
   2  -1   0  711.81   16.03   3
  -2   1   0  707.28   15.09   1
   2   1   0  708.45   15.69   7
  -2  -1   0  712.64   15.61   2
  -2   1   0  703.59   15.18   1
   2  -1   0  722.38   15.17   2
   2   1   0  704.90   16.30   3
  -2  -1   0  670.23   15.29   1
   2   1   0  686.32   15.60   2
  -2  -1   0  716.51   16.35   3
  -2   1   0  704.87   15.42   2
  -2  -1   0  702.20   16.49   6
  -2   1   0  703.59   16.04   3
   2  -1   0  694.25   15.83   3
  -2  -1   0  702.92   15.66   5
  -2   1   0  695.22   15.51   7
   3   1   0   36.87    1.89   3
   3   1   0   40.53    1.76   7
  -3  -1   0   39.19    1.98   7
  -3  -1   0   40.10    1.88   5
  -3   1   0   39.24    1.59   7
  -3   1   0   38.54    1.90   3
  -3  -1   0   36.48    1.92   1
   3   1   0   35.79    1.72   2
  -3  -1   0   40.90    1.86   1
  -3  -1   0   41.19    2.18   3
  -3   1   0   35.74    1.71   1
  -3  -1   0   41.40    2.42   6
   3  -1   0   39.85    1.11   2
  -3   1   0   37.37    1.59   2
   3   1   0   40.63    2.10   3
   3  -1   0   33.67    1.70   3
   3  -1   0   37.73    1.60   3
  -3  -1   0   37.93    1.68   2
  -3   1   0   37.26    1.73   4
  -3   1   0   38.84    1.61   1
   3   1   0   40.37    2.15   8
  -4  -1   0   78.27    3.49   6
  -4   1   0   76.92    2.49   7
  -4   1   0   77.67    2.75   3
  -4   1   0   76.16    2.90   4
  -4  -1   0   75.14    2.95   7
  -4  -1   0   73.62    2.78   1
   4   1   0   75.59    3.16   8
  -4  -1   0   76.30    2.70   2
  -4   1   0   77.71    2.48   1
   4  -1   0   79.40    2.48   3
  -4  -1   0   77.21    2.80   5
   4   1   0   77.66    2.92   3
   4  -1   0   83.51    2.77   3
  -4  -1   0   85.96    3.06   1
  -4   1   0   80.27    2.47   2
   4   1   0   77.67    2.57   2
  -4   1   0   73.79    2.57   1
   4   1   0   77.39    3.10   3
   5   1   0  629.06   15.45   8
   5  -1   0  643.40   14.48   3
  -5   1   0  669.75   16.21   4
  -5   1   0  644.42   14.10   1
  -5  -1   0  661.67   14.70   1
  -5  -1   0  649.32   14.66   5
   5   1   0  634.04   15.08   3
   5   1   0  638.89   14.94   5
  -5   1   0  648.76   14.40   6
  -5  -1   0  650.17   14.53   1
  -5  -1   0  627.63   16.11   6
   5   1   0  642.38   15.47   3
  -5  -1   0  622.01   15.13   7
   5  -1   0  652.23   14.78   3
  -5   1   0  655.44   13.97   1
  -5   1   0  649.00   14.39   7
   5   1   0  642.64   14.20   2
  -5  -1   0  647.60   14.65   2
  -6  -1   0   38.68    2.27   7
   6   1   0   44.46    2.42   3
  -6   1   0   43.61    1.85   6
  -6   1   0   42.53    1.83   7
  -6  -1   0   43.57    2.01   2
  -6  -1   0   41.43    2.39   3
  -6  -1   0   40.43    2.03   5
  -6  -1   0   38.52    2.80   6
  -6  -1   0   41.95    2.32   1
  -6  -1   0   40.91    2.08   1
   6  -1   0   41.12    2.26   4
   6  -1   0   39.45    1.86   3
   6   1   0   40.15    1.42   2
   6   1   0   44.10    2.32   5
   6   1   0   37.58    2.48   8
   6  -1   0   41.31    1.69   3
   6   1   0   41.26    2.08   3
  -6   1   0   44.18    1.93   1
  -6   1   0   47.72    2.44   4
  -6   1   0   41.03    1.78   1
  -7   1   0   31.91    1.64   1
   7  -1   0   30.02    1.42   3
  -7   1   0   30.88    1.81   6
  -7  -1   0   29.33    1.80   2
   7   1   0   29.17    2.43   8
   7   1   0   28.16    2.06   3
  -7  -1   0   29.72    2.02   1
  -7   1   0   30.62    1.69   1
   7  -1   0   30.42    2.09   4
  -7  -1   0   27.82    2.55   6
  -7  -1   0   29.88    2.08   7
  -7   1   0   31.60    1.66   7
  -7  -1   0   32.11    1.94   1
   7   1   0   33.04    1.84   3
   7  -1   0   31.12    1.63   3
   7   1   0   33.79    2.70   4
  -8   1   0   70.85    2.75   7
  -8   1   0   69.79    2.76   1
   8   1   0   66.10    3.71   8
  -8  -1   0   70.59    4.17   6
   8  -1   0   71.90    2.34   3
  -8   1   0   70.54    2.71   1
  -8  -1   0   72.24    3.13   1
   8  -1   0   71.29    2.42   3
   8  -1   0   71.16    3.54   4
   8   1   0   71.69    2.92   3
  -8  -1   0   73.64    3.30   1
   8   1   0   72.31    3.31   3
  -8  -1   0   68.59    3.31   7
   8   1   0   68.32    4.01   4
  -8  -1   0   67.44    2.90   2
  -9  -1   0   27.17    3.02   6
   9   1   0   24.85    2.76   4
  -9  -1   0   23.70    2.15   7
  -9  -1   0   24.97    1.98   1
  -9   1   0   24.32    1.69   1
  -9   1   0   27.39    1.75   7
   9   1   0   21.09    2.47   8
   9   1   0   22.99    2.03   3
   9   1   0   28.05    1.83   3
  -9   1   0   23.23    1.66   1
   9  -1   0   24.47    2.19   4
  -9  -1   0   27.63    2.24   1
 -10  -1   0   27.41    2.32   7
  10   1   0   28.28    2.89   8
  10  -1   0   31.01    2.57   4
 -10  -1   0   25.91    3.14   6
 -10   1   0   27.45    1.89   1
 -10   1   0   25.09    1.82   7
  10   1   0   29.35    3.07   4
 -10   1   0   30.73    1.96   1
 -10  -1   0   25.12    2.11   1
  10   1   0   25.50    2.16   3
  10   1   0   22.69    1.71   3
  11   1   0   30.73    1.92   3
  11   1   0   28.22    2.23   3
  11  -1   0   35.42    2.92   4
 -11  -1   0   33.61    2.53   1
 -11   1   0   28.41    2.04   1
  11   1   0   25.46    3.07   4
 -11   1   0   28.77    2.04   1
  11   1   0   31.53    3.24   8
 -11  -1   0   32.93    3.48   6
 -11  -1   0   26.87    2.49   7
 -11   1   0   28.60    2.06   7
 -12  -1   0   -2.55    1.82   6
 -12  -1   0    0.69    1.12   1
 -12   1   0    0.20    0.85   7
  12   1   0    1.49    1.09   3
 -12   1   0    1.10    1.00   1
 -12  -1   0    0.65    1.18   7
 -12   1   0    2.29    1.05   1
  12   1   0    2.14    1.49   8
  12   1   0    1.72    0.86   3
 -13  -1   0   18.28    3.37   6
  13   1   0   15.59    2.80   8
 -13  -1   0   16.28    2.31   7
 -13   1   0   15.03    1.83   7
  13   1   0   18.41    1.45   3
 -13  -1   0   17.27    2.23   1
 -13   1   0   18.67    1.91   1
 -14  -1   0    4.55    1.76   1
 -14   1   0    6.70    1.50   7
  14   1   0    7.89    2.46   8
 -14   1   0    5.27    1.41   1
 -14  -1   0    4.26    1.65   7
 -14  -1   0    5.21    2.75   6
   0  -2   0   60.78    2.81   6
   0  -2   0   56.21    2.85   5
   0   2   0   58.41    3.14   3
   0   2   0   58.66    2.95   1
   0  -2   0   56.52    2.88   7
   0  -2   0   59.72    2.71   2
   0   2   0   56.90    2.80   2
   1  -2   0  213.70    5.94   6
  -1  -2   0  215.11    6.61   7
  -1  -2   0  209.20    6.47   5
   1   2   0  217.05    6.45   7
  -1   2   0  204.78    6.32   1
  -1   2   0  211.42    6.34   7
  -1  -2   0  204.31    6.20   2
   1  -2   0  210.33    6.39   7
  -1   2   0  203.57    6.23   2
  -1  -2   0  212.91    6.53   6
   1  -2   0  202.71    6.39   5
   1   2   0  202.39    6.26   2
   1   2   0  219.33    6.94   3
   1  -2   0  207.26    5.98   2
  -1  -2   0  228.03    7.07   3
  -1   2   0  210.29    6.80   3
  -2  -2   0  138.87    5.02   7
  -2  -2   0  147.07    5.45   3
  -2  -2   0  129.65    4.60   2
  -2   2   0  148.68    4.87   1
  -2   2   0  139.18    5.12   3
   2  -2   0  128.05    4.94   3
  -2  -2   0  136.54    4.89   5
  -2  -2   0  135.60    5.12   6
   2   2   0  133.79    4.68   2
   2   2   0  139.66    5.24   3
   2  -2   0  140.03    4.73   7
   2  -2   0  138.43    4.86   3
   2  -2   0  135.71    4.23   2
  -2   2   0  135.52    4.64   2
   2   2   0  145.50    4.85   7
  -2  -2   0  136.27    4.88   1
  -2   2   0  133.93    4.75   1
  -2   2   0  134.79    4.68   7
   2  -2   0  135.66    3.98   6
   3  -2   0   82.32    3.44   3
  -3  -2   0   81.32    3.43   2
  -3  -2   0   84.68    3.69   1
  -3   2   0   85.54    3.40   2
   3  -2   0   78.44    3.56   3
   3   2   0   76.74    3.81   3
   3   2   0   79.60    3.41   7
  -3  -2   0   75.26    3.91   3
  -3  -2   0   81.55    3.93   6
  -3   2   0   75.31    3.34   1
  -3   2   0   78.33    3.42   1
  -3  -2   0   79.68    3.69   7
  -3   2   0   78.89    3.28   7
   3  -2   0   80.96    2.32   6
  -3   2   0   82.82    3.75   3
   3   2   0   76.37    3.31   2
  -3  -2   0   82.05    3.65   5
   3  -2   0   78.08    2.76   2
   4   2   0    6.33    1.57   8
  -4  -2   0    7.17    1.58   6
  -4  -2   0    8.87    1.52   7
  -4   2   0    9.18    1.34   1
  -4   2   0   11.72    1.57   3
   4  -2   0    9.00    1.37   3
   4   2   0   12.29    1.77   3
  -4   2   0   10.21    1.28   2
  -4   2   0    6.70    1.15   7
  -4  -2   0   10.62    1.50   1
   4   2   0   13.69    1.50   7
   4  -2   0    8.98    0.82   2
   4   2   0    7.93    1.25   2
  -4  -2   0    7.13    1.23   2
  -4   2   0    9.48    1.23   7
  -4  -2   0    9.28    1.39   5
  -4   2   0    6.08    1.18   1
   4  -2   0    9.30    1.22   3
   4   2   0    8.33    1.42   3
   5   2   0    0.83    1.25   8
  -5   2   0   -0.10    0.72   1
  -5  -2   0    0.05    0.91   1
   5   2   0    0.25    1.00   3
  -5   2   0    1.44    1.02   1
   5  -2   0   -0.09    0.81   3
   5  -2   0    0.41    0.63   3
  -5  -2   0    0.43    0.95   7
  -5   2   0    0.19    0.64   7
  -5  -2   0   -0.34    0.61   2
  -5   2   0    0.06    0.70   2
  -5  -2   0    1.02    0.74   5
   5   2   0    1.03    0.80   2
   5   2   0   -0.32    0.69   7
   5   2   0    0.36    0.89   3
  -5  -2   0    1.70    1.36   6
   6   2   0   39.99    2.68   3
  -6   2   0   37.21    2.26   2
  -6  -2   0   33.54    2.36   2
   6  -2   0   39.22    2.40   3
   6   2   0   38.71    2.90   3
  -6  -2   0   33.26    2.98   6
  -6  -2   0   33.11    2.64   7
  -6  -2   0   37.57    2.66   1
  -6   2   0   39.65    2.37   1
  -6   2   0   33.90    2.12   7
   6   2   0   36.36    2.20   2
  -6   2   0   34.59    2.29   1
   6  -2   0   36.26    2.00   3
   6   2   0   34.11    2.94   8
   7  -2   0   86.32    3.20   3
  -7  -2   0   83.05    3.79   2
  -7   2   0   85.29    3.63   1
   7   2   0   78.40    3.16   2
   7  -2   0   78.70    3.48   3
  -7   2   0   87.97    3.70   1
   7   2   0   89.29    4.57   8
   7   2   0   87.65    4.42   3
  -7  -2   0   85.26    4.15   1
  -7  -2   0   85.87    4.34   7
  -7  -2   0   91.46    5.09   6
  -7   2   0   85.52    3.52   7
  -8  -2   0   64.31    3.64   1
   8   2   0   58.98    2.39   2
   8  -2   0   56.22    2.47   3
  -8  -2   0   57.27    3.63   7
  -8   2   0   59.58    3.08   1
   8  -2   0   58.91    2.87   3
  -8  -2   0   58.87    3.28   2
  -8  -2   0   56.71    4.37   6
   8   2   0   60.53    3.76   3
  -8   2   0   56.13    2.92   7
  -8   2   0   57.92    2.98   1
   8   2   0   50.47    3.75   8
  -9  -2   0  102.38    4.92   1
  -9  -2   0   97.12    4.85   7
  -9   2   0  100.61    4.15   1
   9   2   0   89.15    5.64   4
  -9  -2   0   98.52    5.72   6
   9  -2   0  112.08    3.74   3
   9   2   0  100.69    5.29   8
  -9  -2   0  102.64    4.53   2
   9  -2   0  104.41    3.41   3
  -9   2   0  105.31    4.15   1
  -9   2   0   95.52    4.01   7
   9   2   0  101.51    4.96   3
  10   2   0   15.85    2.64   8
 -10  -2   0   11.34    2.02   1
 -10   2   0   12.02    1.61   7
  10   2   0   10.26    2.49   4
 -10   2   0   10.08    1.62   1
 -10  -2   0   12.20    2.16   7
  10   2   0   11.57    2.11   3
 -10  -2   0   11.72    2.66   6
  10  -2   0   11.01    0.98   3
 -11   2   0    5.83    1.44   1
  11   2   0    5.93    2.05   8
 -11  -2   0    5.00    2.48   6
 -11  -2   0   11.02    2.18   7
  11   2   0    3.04    1.69   3
 -11   2   0    4.92    1.37   7
 -12   2   0    7.72    1.60   1
 -12   2   0    5.83    1.50   7
  12   2   0    3.88    2.07   8
 -12  -2   0    4.92    1.80   7
 -12  -2   0    3.58    2.44   6
 -13   2   0   11.40    1.89   7
 -13   2   0    7.50    1.73   1
 -13  -2   0   14.17    3.45   6
  13   2   0    8.38    2.41   8
 -13  -2   0   11.58    2.32   7
   0   3   0    1.70    1.18   7
   0  -3   0   -0.67    0.98   5
   0  -3   0    0.07    0.86   2
   0   3   0    0.00    1.00   2
   0  -3   0    0.28    1.06   7
   0  -3   0   -1.06    1.33   6
   1  -3   0   56.43    3.16   6
  -1  -3   0   59.66    3.31   2
   1   3   0   63.78    3.63   7
   1  -3   0   58.53    3.54   7
  -1   3   0   59.09    3.50   7
  -1  -3   0   67.76    3.80   6
   1  -3   0   52.07    2.98   2
   1   3   0   58.37    3.44   2
   1  -3   0   59.89    3.65   5
  -1   3   0   62.73    3.53   2
  -1  -3   0   60.44    3.72   5
  -1  -3   0   59.58    3.69   7
  -2  -3   0    9.43    1.89   7
   2  -3   0    7.45    1.29   2
   2   3   0    7.54    1.67   7
  -2   3   0    8.28    1.68   7
   2   3   0    9.37    1.71   2
  -2  -3   0    8.32    1.57   2
  -2   3   0    5.56    1.43   2
   2  -3   0    8.66    1.83   3
  -2  -3   0    9.53    1.79   5
   2  -3   0    5.75    1.54   5
  -2  -3   0    7.79    1.93   6
  -3   3   0    2.99    1.26   2
   3  -3   0    6.28    1.61   3
  -3   3   0    2.13    1.16   7
   3   3   0    4.23    1.42   2
  -3  -3   0    1.13    1.57   6
  -3   3   0    1.94    1.44   1
  -3  -3   0    2.60    1.49   7
   3  -3   0    2.75    0.95   2
   3  -3   0    3.78    1.31   5
   3   3   0    1.86    1.32   7
  -3  -3   0    3.70    1.43   5
  -3  -3   0    1.77    1.10   2
  -4  -3   0   14.95    2.51   6
  -4  -3   0   15.18    2.14   5
  -4   3   0   18.06    2.10   2
  -4  -3   0   17.70    2.44   7
   4   3   0   12.63    1.88   2
  -4   3   0   13.30    1.96   7
  -4   3   0   14.94    2.16   1
   4  -3   0   10.92    1.96   5
   4   3   0   13.65    1.99   7
  -4  -3   0   15.81    2.03   2
   4  -3   0   14.82    1.40   2
   4  -3   0   15.94    2.00   3
   5  -3   0   27.94    2.40   3
  -5  -3   0   25.25    2.52   2
  -5   3   0   20.91    2.52   1
   5   3   0   28.61    2.97   8
   5   3   0   25.89    2.43   2
  -5  -3   0   21.35    2.97   6
  -5   3   0   25.61    2.49   7
  -5   3   0   24.90    2.37   2
   6  -3   0  119.90    4.83   3
   6   3   0  113.72    4.84   2
  -6  -3   0  119.30    6.33   6
  -6   3   0  123.75    5.23   1
  -6   3   0  113.89    5.07   7
   6   3   0  117.77    5.76   8
  -6  -3   0  115.79    5.82   7
  -6  -3   0  120.79    5.41   2
  -7  -3   0   47.17    4.26   6
   7   3   0   48.52    2.98   2
   7   3   0   51.19    4.07   8
   7  -3   0   49.66    2.92   3
  -7   3   0   46.88    3.36   1
  -7   3   0   45.77    3.20   7
  -7  -3   0   50.83    3.94   7
  -7  -3   0   48.95    3.48   2
  -8   3   0   41.49    3.16   1
  -8  -3   0   35.93    3.52   7
   8  -3   0   36.28    2.44   3
  -8   3   0   37.02    2.90   7
   8   3   0   39.69    2.65   2
  -8   3   0   42.11    3.07   7
  -8  -3   0   38.22    4.18   6
   8   3   0   40.74    3.84   8
  -8  -3   0   38.21    3.23   2
   8   3   0   32.15    2.50   2
  -9  -3   0    0.52    1.36   2
  -9  -3   0   -0.24    2.04   6
  -9   3   0    0.83    1.19   7
   9   3   0    1.96    1.83   3
  -9  -3   0    0.77    1.48   7
  -9   3   0    1.74    1.46   1
   9  -3   0    2.67    1.45   3
   9   3   0    2.70    1.74   8
  -9   3   0    1.68    1.37   7
   9  -3   0    3.43    1.12   3
 -10   3   0   12.22    2.10   7
  10  -3   0   10.18    1.59   3
 -10  -3   0   10.76    3.17   6
 -10   3   0   13.78    2.14   7
 -10  -3   0   11.15    2.49   7
 -10   3   0   11.22    2.04   1
  10   3   0   14.11    2.88   8
 -10  -3   0    9.00    2.12   2
  10   3   0    7.50    2.35   3
 -11   3   0    2.82    1.65   1
 -11   3   0    4.04    1.53   7
  11   3   0    3.58    2.08   8
 -11  -3   0    1.24    2.36   6
 -11  -3   0    3.60    2.03   7
   0  -4   0    5.47    1.99   5
   0   4   0   10.25    2.19   2
   0   4   0   10.91    2.31   7
   0  -4   0    4.67    1.57   2
   1   4   0    0.01    1.35   7
   1  -4   0    1.19    1.51   5
  -1  -4   0    1.86    1.42   5
   1  -4   0   -0.56    1.05   2
  -1   4   0    1.83    1.52   7
   1   4   0    3.06    1.54   2
  -1   4   0    0.87    1.45   2
  -1  -4   0   -0.86    1.05   2
  -2  -4   0   27.84    3.24   5
  -2  -4   0   25.40    2.81   2
   2   4   0   26.68    2.94   2
   2  -4   0   31.78    2.58   2
  -2   4   0   33.34    3.39   7
   2   4   0   27.24    3.12   7
  -2  -4   0   29.67    3.39   6
  -2   4   0   33.97    3.27   2
   2  -4   0   22.22    2.93   5
  -3  -4   0    4.72    2.25   6
  -3   4   0    4.20    1.72   7
  -3  -4   0    2.96    1.51   2
  -3  -4   0    2.72    1.75   7
   3  -4   0    4.20    1.74   5
  -3   4   0    1.04    1.46   2
   3   4   0    1.14    1.46   2
   3  -4   0    1.80    1.12   2
   4  -4   0   14.65    2.48   3
  -4  -4   0    9.99    2.22   2
  -4   4   0   13.96    2.39   2
   4   4   0   16.12    2.93   8
  -4  -4   0   11.81    2.95   6
  -4  -4   0    7.33    2.44   7
  -4   4   0   10.83    2.39   7
   4   4   0   11.21    2.25   2
   4  -4   0    9.62    2.23   5
   5  -4   0   34.30    3.56   5
  -5  -4   0   25.39    3.05   2
  -5  -4   0   28.81    3.67   7
  -5   4   0   30.92    3.37   7
  -5   4   0   28.13    3.09   2
   5  -4   0   33.53    3.25   3
  -5  -4   0   34.77    4.15   6
   5   4   0   24.32    3.42   8
   5   4   0   30.25    3.08   2
  -6  -4   0    3.69    1.84   2
  -6   4   0    7.14    2.16   7
  -6  -4   0    6.14    2.79   6
   6   4   0    5.93    1.90   2
   6  -4   0    5.34    1.86   3
   6   4   0    5.63    2.38   8
  -6  -4   0    4.52    2.17   7
   6  -4   0    4.29    1.97   5
  -7  -4   0    8.54    3.07   6
   7   4   0   14.82    2.35   2
   7  -4   0   10.45    2.43   5
  -7   4   0   13.40    2.55   7
  -7  -4   0   12.30    2.49   2
   7   4   0    9.41    2.67   8
  -7  -4   0   10.35    2.75   7
   7   4   0    7.62    2.02   2
  -8  -4   0    0.11    2.44   6
   8  -4   0    2.97    1.84   5
   8   4   0   -0.45    1.44   2
   8   4   0    1.22    2.08   8
   8   4   0    0.45    1.55   2
  -8   4   0    0.13    1.45   7
  -8  -4   0   -2.26    1.47   2
  -8  -4   0   -0.07    1.86   7
 -14   0   1    1.06    1.15   7
 -14   0   1    3.92    1.44   1
 -13   0   1    4.01    1.33   7
 -13   0   1    5.45    1.42   1
 -12   0   1    7.12    1.35   1
  12   0  -1    3.55    1.59   4
  12   0  -1    8.65    1.11   3
 -12   0   1    5.71    1.44   7
  12   0  -1    7.24    0.98   3
  11   0  -1   -1.16    0.76   3
  11   0  -1    0.58    0.71   3
 -11   0   1   -0.13    0.75   1
 -11   0   1   -0.61    0.79   7
  11   0  -1    0.98    1.19   8
 -11   0   1    0.10    0.87   1
 -11   0   1   -0.38    1.55   6
  11   0  -1   -0.51    0.90   4
 -10   0   1    5.88    1.24   7
  10   0  -1    3.76    1.03   3
  10   0  -1    3.95    1.33   4
 -10   0   1    5.50    1.86   6
  10   0  -1    4.99    1.44   8
 -10   0   1    4.24    0.97   1
  10   0  -1    3.68    0.90   3
 -10   0   1    4.39    1.04   1
  -9   0   1    0.18    0.70   7
   9   0  -1    1.70    1.05   4
   9   0  -1    1.36    0.83   3
   9   0  -1    0.62    0.66   3
  -9   0   1   -0.11    1.34   6
   9   0  -1    0.77    0.92   8
  -9   0   1   -0.20    0.69   1
  -9   0   1   -0.12    0.58   1
  -8   0   1   63.81    2.57   1
   8   0  -1   63.70    3.31   4
  -8   0   1   66.78    3.46   6
  -8   0   1   62.21    2.76   7
   8   0  -1   59.37    3.12   8
  -8   0   1   68.52    2.52   2
   8   0  -1   65.32    2.52   3
  -8   0   1   65.06    2.66   1
   8   0  -1   60.05    2.65   3
   7   0  -1    6.23    1.15   8
  -7   0   1    9.94    1.48   6
  -7   0   1    7.97    0.86   2
  -7   0   1    8.35    0.93   1
  -7   0   1    7.91    0.99   7
   7   0  -1    9.02    1.25   4
   7   0  -1    7.37    0.99   3
   7   0  -1    8.32    0.91   3
  -7   0   1    8.08    1.01   1
   6   0  -1  116.43    4.21   4
  -6   0   1  109.35    3.22   2
   6   0  -1  109.73    3.90   8
   6   0  -1  111.32    3.57   3
  -6   0   1  106.25    3.49   7
   6   0  -1  113.80    3.38   3
  -6   0   1  111.74    3.41   1
  -6   0   1  108.89    4.11   6
  -6   0   1  108.99    3.28   1
  -5   0   1   91.21    2.99   7
   5   0  -1  103.04    3.59   4
  -5   0   1   94.14    3.50   6
  -5   0   1   99.46    2.87   1
   5   0  -1   96.50    2.94   3
   5   0  -1   95.81    3.10   3
  -5   0   1   96.03    3.06   3
   5   0  -1   99.62    3.37   8
  -5   0   1   98.97    2.96   1
  -5   0   1   98.35    2.80   2
  -4   0   1  142.29    3.83   3
   4   0  -1  140.15    3.29   2
   4   0  -1  136.15    3.86   3
   4   0  -1  137.98    4.31   4
  -4   0   1  138.38    3.65   1
  -4   0   1  142.93    3.80   7
  -4   0   1  142.84    4.25   6
  -4   0   1  139.50    3.69   5
   4   0  -1  136.09    3.74   3
   4   0  -1  141.49    4.04   8
  -4   0   1  135.72    3.57   1
  -3   0   1 1052.80   22.14   5
   3   0  -1 1032.92   22.44   8
  -3   0   1 1052.13   23.28   6
  -3   0   1 1056.97   22.91   3
  -3   0   1 1084.72   21.69   1
   3   0  -1 1039.49   22.82   3
   3   0  -1 1050.36   24.70   4
  -3   0   1 1060.79   21.72   1
   3   0  -1 1026.52   22.25   2
  -3   0   1 1082.21   22.89   3
  -3   0   1 1037.10   22.47   7
   3   0  -1 1020.70   22.89   3
   2   0  -1  186.70    4.54   3
  -2   0   1  201.78    4.63   3
  -2   0   1  183.20    4.47   7
   2   0  -1  180.97    4.38   2
   1   0  -1    0.13    0.10   2
  -1   0   1   -0.10    0.08   3
   1   0   1    0.14    0.12   4
  -1   0  -1   -0.02    0.11   4
   2   0   1 2311.40   49.48   5
  -2   0  -1 2306.55   53.04   3
  -2   0  -1 2278.39   52.33   3
   2   0   1 2219.23   47.54   8
  -2   0  -1 2334.28   52.48   4
   2   0   1 2249.91   52.51   4
   3   0   1  520.45   12.21   8
  -3   0  -1  548.99   11.60   1
   3   0   1  531.28   13.47   4
  -3   0  -1  546.55   13.51   4
  -3   0  -1  529.67   11.52   1
   3   0   1  557.50   11.62   5
  -3   0  -1  547.66   12.62   6
  -3   0  -1  549.96   11.98   3
  -3   0  -1  557.51   12.08   3
  -4   0  -1 1381.21   31.74   4
  -4   0  -1 1273.45   29.56   6
  -4   0  -1 1323.24   28.31   7
  -4   0  -1 1333.54   27.30   1
  -4   0  -1 1338.08   27.39   1
   4   0   1 1354.18   27.82   5
   4   0   1 1322.68   29.53   3
   4   0   1 1312.12   29.60   3
   4   0   1 1349.67   28.78   8
   4   0   1 1349.10   31.68   4
   5   0   1  478.18   10.52   5
  -5   0  -1  497.12   12.78   4
   5   0   1  491.27   11.60   8
   5   0   1  485.51   12.71   4
   5   0   1  463.02   10.73   3
  -5   0  -1  492.44   10.70   7
  -5   0  -1  460.58   10.17   1
   5   0   1  466.18   10.64   3
  -5   0  -1  463.00   11.80   6
  -5   0  -1  481.60   10.33   1
   6   0   1 1111.78   27.62   4
   6   0   1 1130.41   24.49   3
   6   0   1 1103.55   24.56   3
  -6   0  -1 1114.48   23.36   1
  -6   0  -1 1136.35   25.91   6
  -6   0  -1 1100.36   23.22   1
  -6   0  -1 1121.88   24.18   7
   6   0   1 1151.21   23.84   5
   6   0   1 1133.43   25.16   8
   7   0   1   10.58    1.45   4
  -7   0  -1   11.43    1.00   1
  -7   0  -1   11.74    1.03   1
   7   0   1    9.26    0.90   5
  -7   0  -1   13.86    1.12   7
   7   0   1   12.89    1.56   8
  -7   0  -1   11.87    0.93   1
  -7   0  -1   13.33    1.71   6
  -8   0  -1    0.89    1.20   6
   8   0   1    0.61    0.88   4
  -8   0  -1    0.18    0.47   1
  -8   0  -1    0.92    0.65   1
  -8   0  -1    0.27    0.60   1
   8   0   1    0.91    0.91   8
  -8   0  -1   -0.60    0.53   7
  -9   0  -1   39.07    2.12   7
  -9   0  -1   38.08    1.90   1
  -9   0  -1   36.99    2.96   6
  -9   0  -1   39.80    2.06   1
   9   0   1   35.18    2.83   4
  10   0   1   40.09    3.21   4
 -10   0  -1   48.57    2.49   7
 -10   0  -1   45.74    2.38   1
 -10   0  -1   42.26    2.18   1
 -10   0  -1   47.98    3.55   6
  11   0   1    3.86    1.54   4
 -11   0  -1    5.26    1.08   1
 -11   0  -1    7.68    2.13   6
 -11   0  -1    4.61    1.17   7
 -11   0  -1    5.93    1.15   1
 -12   0  -1   66.59    3.19   1
 -12   0  -1   66.49    3.18   1
 -12   0  -1   67.58    3.40   7
  12   0   1   66.29    4.52   4
 -13   0  -1    0.02    0.97   7
 -13   0  -1    1.52    1.08   1
 -14   0  -1    6.36    1.56   1
 -14   0  -1    7.96    1.65   7
 -14   1   1    8.26    1.64   1
 -14   1   1    5.28    1.51   7
 -14  -1   1    6.91    1.89   7
 -14  -1   1    3.82    2.73   6
  14   1  -1    5.97    2.16   8
 -14  -1   1    4.78    1.74   1
 -13   1   1   13.93    1.81   7
 -13   1   1   16.73    1.87   1
 -13  -1   1   16.20    2.15   1
  13   1  -1   15.91    1.63   3
 -13  -1   1   14.50    3.13   6
  13   1  -1   18.20    2.90   8
 -13  -1   1   15.35    2.29   7
 -12  -1   1   28.97    2.55   1
  12   1  -1   24.32    2.01   3
  12   1  -1   21.69    2.25   3
  12   1  -1   23.56    3.06   4
  12   1  -1   27.72    3.19   8
 -12   1   1   24.02    2.16   7
 -12  -1   1   31.02    3.65   6
 -12   1   1   25.66    2.13   1
 -12  -1   1   25.90    2.63   7
  11   1  -1   72.16    4.44   8
 -11   1   1   69.46    3.25   1
 -11   1   1   69.45    3.31   7
  11   1  -1   71.53    4.71   4
  11   1  -1   71.97    3.63   3
  11  -1  -1   70.20    2.39   3
  11   1  -1   74.63    3.21   3
 -11   1   1   73.89    3.33   1
 -11  -1   1   69.24    3.82   7
 -11  -1   1   71.59    4.91   6
 -11  -1   1   71.53    3.66   1
 -10   1   1   12.36    1.43   7
  10  -1  -1   11.25    1.16   3
  10   1  -1   11.73    1.40   3
 -10  -1   1   15.41    2.58   6
 -10  -1   1   12.07    1.80   7
 -10  -1   1   12.78    1.64   1
  10   1  -1    8.92    2.06   4
 -10   1   1   10.37    1.37   1
 -10   1   1   13.69    1.48   1
  10  -1  -1   12.97    1.78   4
  10   1  -1   15.73    2.33   8
  10  -1  -1   11.79    1.26   3
  10   1  -1   15.74    1.83   3
  -9   1   1   50.17    2.49   1
  -9  -1   1   50.70    3.74   6
   9  -1  -1   49.51    2.95   4
  -9  -1   1   55.75    3.01   1
   9   1  -1   53.46    3.11   3
  -9   1   1   45.79    2.36   1
   9   1  -1   50.00    2.60   3
  -9  -1   1   56.99    3.06   1
   9  -1  -1   51.21    2.27   3
   9  -1  -1   51.12    2.41   3
  -9  -1   1   51.56    2.80   1
  -9  -1   1   52.13    3.05   7
   9   1  -1   46.16    3.42   4
   9   1  -1   45.89    3.26   8
  -9   1   1   48.56    2.47   7
   8  -1  -1  138.70    4.21   3
   8   1  -1  133.26    4.55   3
  -8   1   1  137.06    4.36   1
  -8  -1   1  137.21    5.05   7
   8   1  -1  131.11    5.03   3
  -8  -1   1  143.08    4.80   1
  -8  -1   1  136.88    5.94   6
  -8   1   1  140.64    4.36   1
   8  -1  -1  134.35    5.08   4
   8   1  -1  143.16    5.57   8
   8   1  -1  143.02    6.00   4
   8  -1  -1  143.89    4.43   3
  -8  -1   1  152.11    5.00   1
  -8   1   1  134.04    4.43   7
  -7   1   1   68.26    2.79   1
  -7  -1   1   71.48    3.07   1
  -7   1   1   80.39    2.77   2
  -7  -1   1   71.40    3.97   6
   7   1  -1   72.64    3.01   3
  -7  -1   1   74.97    3.25   1
   7  -1  -1   70.78    2.87   3
  -7   1   1   75.27    2.78   1
  -7   1   1   75.80    2.77   6
  -7  -1   1   75.05    2.99   2
   7  -1  -1   74.47    3.24   4
   7   1  -1   75.81    2.30   2
   7   1  -1   85.20    3.88   8
   7   1  -1   72.32    3.35   3
   7  -1  -1   75.30    2.73   3
  -7   1   1   70.96    2.79   7
  -7  -1   1   77.91    3.06   5
  -7  -1   1   67.31    3.19   7
  -6  -1   1   67.26    3.70   6
  -6   1   1   72.14    2.73   1
  -6   1   1   77.98    2.68   2
  -6   1   1   80.16    2.70   2
  -6   1   1   77.48    3.10   4
   6  -1  -1   77.14    2.90   3
  -6  -1   1   76.73    3.25   7
  -6   1   1   75.15    2.48   6
   6  -1  -1   73.16    3.01   4
   6   1  -1   73.06    2.96   3
   6   1  -1   74.23    2.55   2
  -6   1   1   76.09    2.67   1
  -6  -1   1   82.83    3.38   3
   6   1  -1   78.20    3.40   3
  -6  -1   1   76.47    2.97   5
  -6  -1   1   76.53    3.14   1
  -6  -1   1   69.69    2.91   1
  -6  -1   1   76.31    2.89   2
  -6   1   1   71.88    2.69   7
   6  -1  -1   70.55    2.62   3
   6   1  -1   69.38    3.42   8
  -5   1   1  365.33    8.58   1
  -5   1   1  362.74    9.12   3
  -5  -1   1  378.72    9.67   3
  -5   1   1  379.05    8.75   2
  -5  -1   1  362.47   10.27   6
   5  -1  -1  367.03    8.88   3
  -5  -1   1  362.19    8.97   1
   5  -1  -1  355.60    9.12   3
  -5  -1   1  366.92    9.00   2
  -5   1   1  365.59    8.69   1
   5   1  -1  364.91    9.34   3
  -5  -1   1  372.18    9.13   5
  -5   1   1  359.56    8.80   7
   5   1  -1  361.00    8.80   2
  -5   1   1  380.64    8.75   2
   5   1  -1  357.43    9.69   8
   5   1  -1  346.84    9.62   3
  -5  -1   1  380.55    9.18   1
  -5   1   1  381.68    9.66   4
  -5   1   1  370.25    8.42   6
  -5  -1   1  367.63    9.47   7
   4  -1  -1  319.00    7.00   2
  -4   1   1  312.54    7.59   7
   4   1  -1  311.56    7.73   2
   4   1  -1  303.55    7.71   7
   4   1  -1  307.15    8.06   3
   4  -1  -1  312.29    7.68   3
  -4   1   1  315.30    7.92   3
  -4   1   1  309.79    7.38   1
  -4   1   1  313.62    8.14   4
   4   1  -1  304.53    8.36   3
  -4  -1   1  302.16    8.12   7
  -4  -1   1  308.49    7.83   5
  -4  -1   1  320.06    7.89   1
  -4  -1   1  319.37    8.31   3
   4  -1  -1  312.21    7.95   3
  -4  -1   1  316.84    7.78   2
  -4  -1   1  307.85    8.77   6
  -4   1   1  322.78    7.55   2
   4   1  -1  312.72    8.34   8
  -4  -1   1  308.01    7.73   1
  -4  -1   1  326.48    8.46   3
  -4   1   1  303.54    7.50   1
  -3   1   1  238.95    6.14   3
   3  -1  -1  228.07    5.95   3
   3   1  -1  238.27    6.02   7
  -3  -1   1  230.96    5.94   2
   3   1  -1  214.37    6.38   3
   3   1  -1  225.96    6.01   2
  -3   1   1  229.24    5.80   1
  -3  -1   1  235.29    6.11   5
  -3  -1   1  228.17    5.99   1
  -3   1   1  224.54    5.70   1
  -3  -1   1  228.61    6.73   6
  -3  -1   1  246.71    6.59   3
  -3   1   1  231.49    5.81   2
   3  -1  -1  231.67    6.20   3
  -3   1   1  231.54    5.85   7
  -3   1   1  223.75    6.07   4
  -3   1   1  237.28    6.18   3
  -3  -1   1  239.15    6.38   7
  -2   1   1  385.82    9.00   7
  -2  -1   1  379.02    9.67   6
  -2   1   1  380.08    8.85   1
  -2  -1   1  371.47    8.96   1
  -2  -1   1  379.23    9.12   5
   2  -1  -1  387.76    8.71   6
  -2   1   1  381.91    8.81   1
  -2  -1   1  387.88    9.38   7
   2   1  -1  390.39    9.14   7
  -2  -1   1  388.72    9.05   2
   2  -1  -1  388.60    8.78   2
  -2   1   1  375.20    9.30   3
  -2   1   1  368.32    9.32   3
   2  -1  -1  386.24    9.43   3
   2   1  -1  378.87    9.59   3
  -2   1   1  396.31    8.98   2
  -2  -1   1  393.26    9.63   3
   2  -1  -1  375.97    9.20   3
   2   1  -1  389.37    9.18   2
   1  -1  -1 4417.77   91.06   7
   1   1  -1 4225.15   92.77   3
  -1   1   1 4414.34   92.76   3
  -1  -1   1 4443.49   90.67   2
  -1  -1   1 4265.72   89.78   5
   1  -1  -1 4336.70   90.53   2
   1  -1  -1 4291.48   93.35   6
  -1  -1   1 4360.79   93.45   6
  -1  -1   1 4451.48   92.85   3
  -1  -1   1 4566.09   91.22   7
   1   1  -1 4340.82   90.96   7
   1  -1  -1 4293.55   92.65   3
  -1   1   1 4318.70   87.99   1
  -1   1   1 4375.90   90.62   2
   1   1  -1 4415.55   90.73   2
  -1   1   1 4294.69   90.92   7
  -1   1   1 4319.48   90.94   7
   0  -1  -1 3168.99   67.83   6
   0   1  -1 3185.07   65.91   2
   0  -1   1 3133.02   65.33   5
   0  -1   1 3277.32   66.27   7
   0  -1   1 3139.74   67.79   6
   0   1   1 3077.13   66.16   7
   0  -1  -1 3193.26   65.95   2
   0   1  -1 3196.80   64.08   1
   0   1   1 3178.70   65.91   2
   0  -1  -1 3156.67   66.29   7
   0  -1  -1 3132.63   67.54   3
   0   1  -1 3070.78   66.12   7
   0  -1   1 3195.80   65.84   2
   0   1   1 3149.41   67.57   3
   0   1  -1 3095.18   67.50   3
  -1   1  -1 7437.57  153.98   2
  -1  -1  -1 7398.28  152.21   5
   1  -1   1 7417.79  159.83   6
  -1   1  -1 7175.55  156.74   7
  -1   1  -1 7518.57  151.21   1
  -1   1  -1 7574.15  150.02   1
  -1   1  -1 7449.20  158.94   3
  -1  -1  -1 7445.72  159.66   6
   1  -1   1 7322.39  158.75   3
  -1  -1  -1 7612.79  155.65   7
   1  -1   1 7436.19  154.13   2
  -1  -1  -1 7157.90  149.13   1
  -1  -1  -1 7463.36  155.66   2
   1  -1   1 7598.56  152.73   5
  -1  -1  -1 7480.39  157.93   3
   1   1   1 7581.86  155.82   7
   1   1   1 7442.60  158.83   3
   1   1   1 7280.72  155.07   2
   2  -1   1  607.90   13.36   6
  -2   1  -1  601.13   13.00   1
  -2   1  -1  620.14   13.86   3
  -2  -1  -1  585.43   13.58   5
  -2  -1  -1  602.58   14.39   6
   2   1   1  590.44   13.39   2
  -2   1  -1  615.69   13.22   2
  -2  -1  -1  596.59   13.83   7
  -2   1  -1  601.88   13.35   7
   2  -1   1  618.40   12.97   2
  -2  -1  -1  618.56   13.42   1
   2   1   1  587.32   14.12   3
  -2  -1  -1  568.48   13.29   1
  -2  -1  -1  598.36   13.52   2
  -2   1  -1  599.55   13.04   1
  -2   1  -1  595.32   13.32   7
   2   1   1  607.35   13.75   8
   2  -1   1  599.34   13.76   3
   2  -1   1  606.58   13.65   3
  -2  -1  -1  614.80   14.22   3
   2   1   1  616.09   13.61   7
  -3  -1  -1  435.72   10.28   1
   3   1   1  425.84   10.86   3
  -3   1  -1  451.99    9.91   1
  -3  -1  -1  453.37   10.31   2
   3   1   1  456.57   10.86   8
  -3   1  -1  446.02   10.03   7
  -3   1  -1  437.34    9.77   1
  -3  -1  -1  449.16   11.04   3
  -3   1  -1  457.03   11.47   4
  -3   1  -1  466.29   10.58   3
   3   1   1  432.42   10.54   5
   3   1   1  451.41   10.10   2
   3  -1   1  452.96   10.39   3
  -3  -1  -1  449.59   10.40   1
  -3  -1  -1  443.81   11.39   6
  -3  -1  -1  440.73   10.67   7
  -3  -1  -1  424.47   10.39   5
   3  -1   1  441.94   10.17   3
   4   1   1  118.75    4.06   8
   4   1   1  110.66    3.69   5
  -4  -1  -1  111.22    3.71   1
  -4  -1  -1  107.89    4.30   6
  -4   1  -1  113.82    3.09   1
   4   1   1  110.03    3.08   2
  -4  -1  -1  110.47    3.74   7
   4  -1   1  113.57    3.26   3
  -4   1  -1  114.91    3.12   7
   4   1   1  114.07    3.10   2
  -4   1  -1  115.61    3.05   6
  -4  -1  -1  119.31    3.48   2
  -4  -1  -1  109.78    3.56   1
   4   1   1  114.89    3.68   3
  -4   1  -1  112.27    3.26   1
  -4   1  -1  112.99    3.96   4
  -4  -1  -1  120.29    3.63   5
   4   1   1  108.08    3.80   3
   4  -1   1  113.84    3.04   3
  -5   1  -1  204.68    5.06   7
   5  -1   1  204.50    4.91   3
   5   1   1  207.88    4.65   2
  -5   1  -1  207.47    5.22   6
  -5   1  -1  202.02    4.97   1
  -5   1  -1  200.93    5.11   1
  -5  -1  -1  206.90    6.80   6
   5   1   1  201.67    5.64   3
  -5   1  -1  204.57    6.30   4
  -5  -1  -1  203.48    5.61   1
  -5  -1  -1  200.99    5.73   1
   5  -1   1  199.52    5.07   3
   5   1   1  199.56    6.25   8
  -5  -1  -1  212.59    5.59   5
  -5  -1  -1  200.52    5.85   7
  -5  -1  -1  215.33    5.49   2
   5   1   1  189.22    5.85   3
   6   1   1   86.99    3.87   8
  -6  -1  -1   88.16    3.09   5
   6  -1   1   87.42    2.34   3
  -6  -1  -1   84.30    2.99   2
   6   1   1   85.41    3.10   3
  -6   1  -1   86.07    2.67   1
   6  -1   1   84.84    3.67   4
  -6  -1  -1   86.13    3.35   1
  -6  -1  -1   88.78    3.41   7
  -6   1  -1   87.93    2.71   7
  -6   1  -1   89.02    2.82   1
  -6  -1  -1   86.62    4.15   6
   6   1   1   85.51    3.38   3
  -6   1  -1   91.64    3.01   6
  -6  -1  -1   91.08    3.24   1
   6   1   1   85.41    4.15   4
  -7   1  -1   63.17    2.35   1
  -7  -1  -1   55.46    2.84   7
  -7  -1  -1   59.91    2.49   2
   7   1   1   56.76    2.76   3
   7   1   1   61.68    3.35   8
   7   1   1   61.73    2.48   3
  -7  -1  -1   55.96    2.64   1
   7   1   1   62.80    3.72   4
  -7   1  -1   66.68    2.66   6
  -7   1  -1   61.01    2.23   1
  -7  -1  -1   67.83    3.86   6
  -7  -1  -1   60.77    2.90   1
   7  -1   1   57.39    3.09   4
  -7   1  -1   61.43    2.25   7
  -8   1  -1   85.12    2.87   1
   8  -1   1   82.76    3.99   4
  -8   1  -1   81.34    2.88   1
   8   1   1   84.14    3.43   3
  -8  -1  -1   83.52    3.54   1
  -8  -1  -1   79.46    3.60   7
  -8  -1  -1   75.26    4.32   6
   8   1   1   80.55    4.47   4
  -8  -1  -1   83.29    3.34   1
   8   1   1   79.09    4.07   8
  -8   1  -1   80.77    2.86   7
   8   1   1   84.42    3.06   3
  -9  -1  -1  100.44    4.19   7
  -9   1  -1  101.11    3.46   7
  -9  -1  -1  115.02    5.55   6
  -9  -1  -1  100.52    3.93   1
  -9   1  -1   94.74    3.33   1
   9  -1   1  102.67    4.78   4
  -9   1  -1   97.24    3.38   1
   9   1   1  101.46    5.28   4
   9   1   1  100.55    3.44   3
  -9  -1  -1  102.44    4.09   1
   9   1   1   95.19    4.79   8
   9   1   1  100.07    3.86   3
 -10   1  -1   72.10    2.99   7
  10   1   1   74.59    4.41   8
 -10  -1  -1   72.00    3.40   1
 -10   1  -1   73.69    2.95   1
 -10  -1  -1   78.99    3.80   7
  10  -1   1   74.69    4.21   4
  10   1   1   74.71    2.83   3
 -10   1  -1   72.90    2.95   1
  10   1   1   75.15    3.23   3
  10   1   1   78.69    4.74   4
 -10  -1  -1   73.55    3.62   1
 -10  -1  -1   78.79    4.82   6
  11   1   1    0.96    1.42   4
  11   1   1    1.03    0.74   3
 -11  -1  -1    2.32    1.96   6
 -11   1  -1    2.86    0.94   1
 -11   1  -1    1.30    0.85   7
  11   1   1    0.73    0.93   3
 -11  -1  -1    1.53    1.04   1
 -11   1  -1    0.71    0.81   1
 -11  -1  -1    1.12    1.11   7
  11   1   1    0.94    1.40   8
  11  -1   1    1.13    1.17   4
 -12   1  -1   35.13    2.23   1
 -12   1  -1   38.83    2.37   1
  12   1   1   37.71    1.79   3
 -12  -1  -1   41.36    4.08   6
 -12   1  -1   35.51    2.27   7
 -12  -1  -1   32.62    2.71   7
 -12  -1  -1   36.13    2.73   1
  12   1   1   34.83    3.52   8
  13   1   1   34.97    3.79   8
 -13  -1  -1   27.77    3.75   6
 -13  -1  -1   36.01    2.88   1
 -13   1  -1   30.51    2.32   1
 -13   1  -1   33.69    2.30   1
 -13   1  -1   29.31    2.29   7
 -13  -1  -1   35.07    2.95   7
 -14  -1  -1    0.21    1.29   1
 -14  -1  -1    1.59    1.37   7
 -14   1  -1    2.09    1.21   1
 -14   1  -1    0.42    0.98   7
 -14  -1  -1    1.60    2.64   6
  14   1   1    2.43    1.92   8
 -13   2   1   -0.16    1.20   1
 -13   2   1    3.39    1.35   7
 -13  -2   1    3.75    2.76   6
 -13  -2   1    0.70    1.51   7
  13   2  -1    2.87    1.87   8
 -12   2   1    4.28    1.31   7
  12   2  -1    7.07    1.98   3
 -12  -2   1    0.27    1.34   7
 -12   2   1    4.38    1.46   1
 -12  -2   1    4.31    2.53   6
  12   2  -1    5.37    2.32   8
 -11  -2   1   62.26    5.04   6
  11  -2  -1   53.24    2.46   3
  11   2  -1   47.53    4.00   8
 -11  -2   1   62.88    4.10   7
  11   2  -1   54.21    3.82   3
 -11   2   1   54.53    3.16   1
  11  -2  -1   53.08    2.31   3
 -11   2   1   56.10    3.28   7
  10   2  -1   22.85    2.70   3
 -10   2   1   17.63    1.94   1
  10   2  -1   15.43    2.81   4
  10  -2  -1   16.13    1.47   3
  10   2  -1   17.61    2.68   8
  10  -2  -1   14.06    1.57   3
 -10  -2   1   14.93    2.33   7
 -10  -2   1   18.90    3.21   6
 -10   2   1   18.00    1.95   7
  -9  -2   1   23.88    2.26   2
   9  -2  -1   23.89    1.81   3
  -9  -2   1   19.34    2.44   7
   9   2  -1   21.60    2.71   8
  -9   2   1   28.47    2.34   1
  -9  -2   1   21.81    3.05   6
   9  -2  -1   28.29    2.17   3
  -9   2   1   28.11    2.16   7
   9   2  -1   24.37    2.70   3
  -8  -2   1   27.10    2.65   7
   8   2  -1   28.58    2.77   3
   8   2  -1   27.55    1.93   2
   8  -2  -1   30.48    2.30   3
  -8   2   1   26.04    2.07   7
   8  -2  -1   29.39    1.91   3
  -8  -2   1   31.69    2.69   1
   8   2  -1   20.80    2.67   8
  -8   2   1   25.35    2.17   1
  -8  -2   1   26.17    3.18   6
  -8   2   1   31.08    2.33   1
  -8  -2   1   27.92    2.34   2
   7  -2  -1  135.65    4.54   3
  -7  -2   1  132.94    6.27   6
  -7  -2   1  143.63    5.53   1
  -7  -2   1  134.55    5.11   2
  -7   2   1  139.21    4.90   1
   7   2  -1  142.77    5.99   8
   7  -2  -1  142.30    5.13   3
  -7  -2   1  138.68    5.61   7
   7   2  -1  138.93    4.67   2
  -7   2   1  132.69    4.81   1
  -7   2   1  136.51    4.85   7
   7   2  -1  131.81    5.70   3
  -6   2   1    5.88    1.32   1
  -6   2   1    3.18    1.06   1
   6   2  -1    6.39    1.77   8
  -6   2   1    2.76    0.95   7
  -6  -2   1    3.64    1.06   2
   6   2  -1    5.37    1.54   3
   6  -2  -1    3.64    1.18   3
  -6   2   1    2.35    0.99   2
   6  -2  -1    4.69    1.00   3
  -6  -2   1    5.42    1.27   5
   6   2  -1    3.02    1.18   3
  -6  -2   1    5.11    1.43   7
  -6  -2   1    4.33    1.34   1
  -6  -2   1    6.30    1.91   6
   6   2  -1    5.04    1.14   2
  -5   2   1   17.75    1.73   1
  -5   2   1   16.22    1.54   4
  -5  -2   1   17.47    1.72   2
   5  -2  -1   17.53    1.10   2
  -5  -2   1   17.79    1.90   1
  -5   2   1   15.02    1.56   7
   5   2  -1   16.67    1.68   7
   5   2  -1   17.24    2.07   3
  -5  -2   1   19.77    2.31   6
   5  -2  -1   17.02    1.79   3
   5   2  -1   21.03    2.30   8
   5   2  -1   17.37    1.93   3
   5   2  -1   17.54    1.71   2
  -5   2   1   19.22    1.67   2
  -5  -2   1   16.48    1.95   7
   5  -2  -1   19.48    1.65   3
  -5  -2   1   17.89    1.85   5
  -5   2   1   19.74    1.73   1
  -4   2   1  255.93    7.19   1
   4   2  -1  256.32    7.36   7
  -4   2   1  266.01    7.67   3
  -4  -2   1  243.33    7.24   2
  -4   2   1  233.76    7.07   7
   4   2  -1  255.47    7.28   2
  -4   2   1  248.90    7.14   7
  -4  -2   1  248.87    7.45   1
  -4   2   1  240.27    7.00   2
   4  -2  -1  247.58    6.34   2
  -4   2   1  248.07    7.12   1
  -4  -2   1  241.07    7.71   7
   4   2  -1  245.40    7.98   3
  -4  -2   1  243.07    7.41   5
   4  -2  -1  240.25    7.50   3
   4  -2  -1  237.97    7.12   3
   3  -2  -1   83.86    3.51   3
  -3   2   1   81.45    3.39   2
   3   2  -1   84.35    3.51   7
  -3  -2   1   81.01    3.67   1
   3  -2  -1   79.42    3.72   3
   3  -2  -1   80.65    2.45   6
   3  -2  -1   84.33    3.00   2
  -3  -2   1   85.97    4.00   6
  -3  -2   1   82.55    3.78   7
  -3  -2   1   79.16    3.55   5
  -3   2   1   82.19    3.49   1
  -3   2   1   80.10    3.63   1
  -3  -2   1   89.70    4.16   3
  -3  -2   1   81.38    3.45   2
  -3   2   1   75.11    3.67   3
   3   2  -1   77.25    3.90   3
   3   2  -1   82.52    3.48   2
   3  -2  -1   86.59    3.53   7
  -3   2   1   83.76    3.40   7
  -2   2   1   11.96    1.49   1
  -2   2   1   12.77    1.57   3
   2   2  -1   13.74    1.47   2
   2  -2  -1   13.82    1.67   3
  -2   2   1   10.84    1.44   1
  -2  -2   1   12.59    1.37   2
   2  -2  -1   14.41    1.28   6
  -2   2   1   12.99    1.44   7
   2  -2  -1   11.81    1.49   3
  -2   2   1   15.35    1.50   2
  -2  -2   1   13.28    1.65   7
   2   2  -1   13.03    1.67   3
  -2  -2   1   14.19    1.80   3
  -2  -2   1   14.72    1.77   6
   2  -2  -1   12.63    1.27   2
  -2  -2   1   15.72    1.64   5
   2   2  -1   13.29    1.49   7
   2  -2  -1   14.36    1.55   7
  -1  -2   1    5.75    1.00   2
   1  -2  -1    8.52    1.13   6
   1   2  -1    8.11    1.42   3
  -1   2   1    5.53    1.21   1
  -1   2   1    6.97    1.20   7
   1  -2  -1    4.44    0.91   2
   1   2  -1    7.64    1.23   7
   1   2  -1    7.92    1.22   2
  -1  -2   1    6.74    1.17   5
   1  -2  -1    5.95    1.21   7
   1   2  -1    7.25    1.35   1
  -1  -2   1    7.98    1.31   7
  -1  -2   1    3.62    1.19   6
  -1   2   1    6.91    1.31   3
  -1   2   1    6.78    1.13   2
   0  -2   1   24.50    1.91   7
   0   2  -1   29.20    2.24   3
   0   2  -1   26.78    2.16   1
   0   2  -1   26.51    1.92   2
   0   2  -1   25.98    1.94   7
   0  -2  -1   28.89    2.10   7
   0   2   1   27.71    1.95   2
   0  -2  -1   28.17    2.05   5
   0   2   1   25.56    2.14   1
   0  -2  -1   26.32    1.82   2
   0  -2   1   24.49    1.89   5
   0  -2   1   27.59    1.81   2
   0  -2  -1   28.84    2.25   3
   0   2   1   28.12    2.20   3
   0  -2  -1   28.70    1.97   6
   0   2   1   25.39    1.95   7
   0  -2   1   29.54    2.07   6
  -1   2  -1  758.22   17.01   1
  -1  -2  -1  730.54   18.14   3
  -1  -2  -1  731.01   17.42   5
   1  -2   1  736.99   17.01   6
  -1  -2  -1  722.74   17.71   6
  -1  -2  -1  706.44   17.11   2
   1  -2   1  732.43   16.71   2
   1   2   1  711.23   18.04   3
   1   2   1  709.91   17.11   2
   1  -2   1  773.74   17.98   3
  -1   2  -1  718.26   17.22   7
   1  -2   1  719.46   17.19   5
  -1  -2  -1  748.41   17.64   7
  -1   2  -1  730.74   17.88   3
   1   2   1  707.31   17.30   7
  -1   2  -1  730.27   17.11   2
   1  -2   1  747.21   17.28   7
  -1   2  -1  752.68   17.02   1
  -2  -2  -1   73.34    3.69   3
  -2   2  -1   68.76    3.10   7
  -2  -2  -1   72.94    3.36   5
  -2   2  -1   70.73    3.24   1
   2  -2   1   72.90    3.10   7
  -2   2  -1   68.99    3.03   2
  -2  -2  -1   74.51    3.66   6
  -2   2  -1   71.85    3.27   1
   2  -2   1   74.35    3.31   5
   2  -2   1   71.15    2.65   2
   2   2   1   72.46    3.22   7
  -2   2  -1   71.01    3.43   3
  -2  -2  -1   70.32    3.34   1
  -2  -2  -1   70.33    3.35   7
   2   2   1   68.43    3.06   2
  -2  -2  -1   66.62    3.09   2
   2  -2   1   66.14    3.34   3
   2  -2   1   70.29    2.58   6
   2   2   1   71.51    3.61   3
  -3  -2  -1   41.44    2.59   1
   3   2   1   38.62    2.32   7
  -3   2  -1   33.83    2.25   1
   3   2   1   37.80    2.66   3
   3   2   1   37.20    2.18   2
   3  -2   1   34.83    1.62   2
  -3  -2  -1   38.15    2.29   2
  -3   2  -1   34.31    2.37   1
   3  -2   1   38.06    2.22   3
   3  -2   1   37.10    1.48   6
  -3   2  -1   32.51    2.14   2
  -3   2  -1   32.03    2.12   7
  -3  -2  -1   36.98    2.52   7
  -3  -2  -1   36.42    2.79   6
  -3   2  -1   37.31    2.62   3
  -3  -2  -1   37.59    2.38   5
   3  -2   1   32.81    2.31   3
   3   2   1   36.98    2.59   8
   4   2   1   10.64    1.63   8
   4   2   1    7.43    1.24   7
  -4  -2  -1    7.68    1.73   6
  -4   2  -1   10.78    1.26   7
   4  -2   1    9.00    1.19   3
  -4  -2  -1   10.29    1.39   2
  -4  -2  -1    8.19    1.42   1
  -4  -2  -1   10.38    1.54   7
  -4   2  -1    7.96    1.33   1
  -4   2  -1    6.48    1.13   7
  -4   2  -1    8.47    1.21   2
   4   2   1    9.74    1.61   3
   4   2   1    9.58    1.26   2
  -4   2  -1    8.74    1.25   1
   4  -2   1    7.40    1.33   3
  -4  -2  -1    8.88    1.36   5
   5   2   1   96.44    3.50   2
  -5   2  -1   94.97    3.61   7
   5  -2   1   87.92    3.66   3
  -5   2  -1   93.89    3.56   2
   5   2   1   92.43    4.10   3
  -5  -2  -1   96.24    4.74   6
   5   2   1  102.04    3.85   7
  -5   2  -1   93.83    3.74   1
  -5  -2  -1   90.21    4.18   7
  -5  -2  -1   93.02    3.87   2
  -5   2  -1   94.74    3.60   7
  -5  -2  -1   88.36    3.88   5
  -5   2  -1   92.86    3.63   1
   5  -2   1   87.82    3.33   3
  -5  -2  -1   95.84    4.10   1
   5   2   1   87.13    4.24   3
   5   2   1   92.77    4.29   8
  -6  -2  -1   31.52    3.03   6
  -6   2  -1   31.61    2.04   7
   6   2   1   35.83    2.00   2
   6   2   1   36.45    2.03   2
  -6  -2  -1   31.83    2.48   1
  -6  -2  -1   32.43    2.33   2
   6   2   1   35.95    2.54   3
   6   2   1   32.72    2.74   8
  -6  -2  -1   32.69    2.56   7
   6   2   1   32.99    2.66   3
   6  -2   1   33.30    1.80   3
  -6   2  -1   35.32    2.19   1
   6  -2   1   34.92    2.16   3
  -6   2  -1   33.00    2.40   1
   7   2   1  134.53    5.74   8
  -7  -2  -1  126.97    4.92   2
  -7   2  -1  137.43    4.67   1
  -7   2  -1  133.68    4.57   7
  -7   2  -1  133.98    4.62   1
   7   2   1  139.67    5.18   3
   7  -2   1  135.92    4.34   3
   7  -2   1  128.99    3.96   3
   7   2   1  127.18    5.38   3
   7   2   1  131.76    3.95   2
  -7  -2  -1  114.50    5.80   6
  -7  -2  -1  120.44    5.27   7
  -7  -2  -1  129.11    5.20   1
   8  -2   1   79.02    2.65   3
   8   2   1   80.24    4.58   8
  -8  -2  -1   70.39    4.71   6
  -8   2  -1   85.27    3.62   1
   8  -2   1   80.66    2.89   3
   8   2   1   77.00    4.18   3
  -8  -2  -1   83.63    3.86   2
  -8   2  -1   77.21    3.38   7
   8   2   1   76.01    4.93   4
  -8  -2  -1   87.74    4.24   1
  -8  -2  -1   72.63    4.11   7
  -8   2  -1   82.07    3.50   1
  -9  -2  -1   48.59    3.34   1
  -9   2  -1   47.51    2.78   1
  -9   2  -1   46.48    2.64   7
   9   2   1   41.27    3.16   3
   9   2   1   51.64    3.87   8
  -9  -2  -1   46.60    3.33   7
  -9   2  -1   52.62    2.86   1
   9   2   1   54.98    4.30   4
  -9  -2  -1   49.02    4.22   6
 -10   2  -1   14.59    1.63   7
  10   2   1   12.64    2.41   8
  10   2   1   12.94    2.00   3
 -10  -2  -1   13.27    2.20   7
 -10  -2  -1   11.66    2.82   6
 -10  -2  -1   12.85    2.14   1
 -10   2  -1   13.16    1.65   1
 -10   2  -1   13.43    1.65   1
 -11   2  -1   26.01    2.18   1
 -11   2  -1   28.08    2.23   7
  11   2   1   23.67    2.54   3
 -11  -2  -1   24.36    2.81   7
  11   2   1   28.21    3.33   8
 -11  -2  -1   29.20    3.86   6
 -12  -2  -1   -0.45    1.31   7
 -12  -2  -1    0.37    2.24   6
 -12   2  -1    2.05    1.21   1
 -12   2  -1    1.83    1.14   7
  12   2   1    2.07    1.68   8
 -13   2  -1   14.86    1.86   1
 -13  -2  -1    6.52    2.10   7
  13   2   1    6.29    2.47   8
 -13   2  -1   11.63    1.82   7
 -13  -2  -1   12.20    3.37   6
  11   3  -1   11.84    2.82   8
 -11  -3   1   12.45    2.76   7
 -11   3   1   15.10    2.31   7
 -11  -3   1   13.21    3.59   6
 -11   3   1   11.19    2.15   1
 -10   3   1   11.30    2.11   1
  10   3  -1   14.28    2.87   8
 -10  -3   1   10.32    2.28   2
 -10   3   1    8.74    1.94   7
 -10  -3   1   11.33    3.21   6
 -10  -3   1    7.00    2.24   7
  -9   3   1   28.39    2.82   1
  -9   3   1   22.13    2.52   7
  -9  -3   1   20.71    2.98   7
  -9  -3   1   28.46    3.84   6
  -9  -3   1   33.14    3.18   2
   9   3  -1   26.77    3.36   8
  -9   3   1   29.44    2.83   7
   9   3  -1   24.95    2.28   2
   9   3  -1   28.04    2.35   2
   9  -3  -1   28.24    2.29   3
  -8  -3   1   11.69    2.14   2
   8  -3  -1   10.53    1.63   3
  -8   3   1   11.93    1.96   7
  -8  -3   1    8.31    2.71   6
  -8   3   1   11.92    2.01   7
   8   3  -1   10.12    1.75   2
  -8  -3   1    7.66    2.04   7
  -8   3   1    9.25    1.92   1
   8   3  -1   15.00    2.78   8
   7   3  -1   91.30    5.27   8
  -7  -3   1   83.45    4.96   7
   7   3  -1  100.23    4.46   2
  -7   3   1   85.31    4.39   7
   7  -3  -1   90.47    4.16   3
  -7  -3   1   94.53    5.85   6
  -7  -3   1   95.53    4.87   2
  -7   3   1   94.60    4.55   7
  -7   3   1   85.09    4.46   1
  -6  -3   1   14.22    2.37   7
  -6   3   1    9.58    1.96   1
  -6   3   1   15.13    1.99   2
  -6  -3   1   16.81    2.23   2
   6  -3  -1   11.43    1.81   3
   6   3  -1   12.12    1.89   2
  -6  -3   1   10.21    2.63   6
  -6   3   1    9.48    1.80   7
   6   3  -1    9.61    2.38   8
   5  -3  -1   44.94    2.26   2
  -5   3   1   48.46    3.32   1
  -5  -3   1   52.13    4.10   6
  -5  -3   1   45.26    3.59   7
  -5  -3   1   49.63    3.31   2
   5   3  -1   46.15    3.15   2
   5  -3  -1   51.00    3.16   3
  -5   3   1   48.41    3.27   7
  -5   3   1   52.33    3.31   2
  -4  -3   1    8.02    1.75   5
   4  -3  -1    7.32    1.64   3
  -4  -3   1    7.37    1.62   2
   4   3  -1    9.20    1.84   7
  -4   3   1   10.19    1.80   7
  -4  -3   1    7.35    1.83   7
  -4   3   1   11.75    1.81   2
   4   3  -1   13.00    1.95   2
   4  -3  -1    9.05    1.26   2
  -4  -3   1    6.99    2.14   6
   3  -3  -1    2.19    1.25   5
  -3  -3   1    2.64    1.70   6
   3   3  -1    3.51    1.37   2
  -3   3   1    2.92    1.33   2
   3   3  -1    4.35    1.40   7
  -3  -3   1    2.90    1.41   5
   3  -3  -1    1.09    1.21   3
  -3  -3   1    2.84    1.55   7
  -3  -3   1   -0.24    0.82   2
  -3   3   1    0.27    0.93   7
   3  -3  -1    1.46    0.84   2
  -2  -3   1   27.51    2.71   7
   2  -3  -1   19.08    2.33   5
  -2   3   1   22.08    2.21   2
  -2  -3   1   19.17    2.09   2
   2   3  -1   21.67    2.35   7
  -2  -3   1   21.06    2.57   6
  -2  -3   1   22.96    2.42   5
   2   3  -1   21.64    2.31   2
   2  -3  -1   20.56    2.34   3
  -2   3   1   20.47    2.27   7
   2  -3  -1   19.86    1.89   2
  -1  -3   1   14.78    1.84   2
  -1   3   1   18.10    2.19   7
   1  -3  -1   14.09    1.73   2
  -1  -3   1   20.73    2.35   6
  -1   3   1   18.23    2.08   2
  -1  -3   1   18.17    2.19   5
   1  -3  -1   20.16    2.35   7
   1   3  -1   18.28    2.17   7
   1   3  -1   17.64    2.13   2
   1  -3  -1   20.70    2.09   6
  -1  -3   1   16.45    2.25   7
   1  -3  -1   17.68    2.18   5
   0  -3   1   23.16    2.08   2
   0   3  -1   30.60    2.62   2
   0  -3   1   27.49    2.48   6
   0  -3   1   28.67    2.66   7
   0  -3  -1   25.02    2.42   6
   0   3   1   24.36    2.43   7
   0   3  -1   30.76    2.67   7
   0  -3   1   30.29    2.70   5
   0  -3  -1   29.11    2.67   5
   0  -3  -1   27.68    2.62   7
   0   3   1   20.56    2.21   2
   0  -3  -1   26.95    2.31   2
  -1   3  -1   50.02    3.29   7
   1  -3   1   47.86    2.76   2
   1   3   1   43.94    3.14   7
   1  -3   1   48.43    3.23   5
  -1  -3  -1   52.55    3.46   6
  -1   3  -1   46.94    3.17   2
  -1  -3  -1   53.93    3.43   5
   1  -3   1   49.09    2.89   6
  -1  -3  -1   47.94    3.37   7
  -1  -3  -1   50.66    3.09   2
   1   3   1   50.80    3.19   2
  -2  -3  -1   76.42    3.93   2
  -2   3  -1   76.83    3.97   2
  -2  -3  -1   82.07    4.41   7
   2  -3   1   78.28    4.19   5
  -2   3  -1   71.26    3.84   7
  -2  -3  -1   72.96    4.18   5
   2   3   1   69.46    3.77   2
   2  -3   1   80.39    3.36   2
   2  -3   1   75.02    4.11   3
   2   3   1   82.01    4.14   7
  -2  -3  -1   80.19    4.50   6
  -3   3  -1   13.13    1.97   7
  -3  -3  -1   16.65    2.49   6
   3   3   1   15.30    1.97   2
  -3  -3  -1   15.75    1.99   2
  -3   3  -1   11.08    1.79   2
   3  -3   1   16.96    2.14   3
   3  -3   1   18.15    1.57   2
   3  -3   1   14.51    2.06   5
  -3  -3  -1   17.74    2.39   7
   3   3   1   16.86    2.15   7
  -3   3  -1   13.56    2.19   1
  -3  -3  -1   13.17    2.09   5
  -4   3  -1   54.71    3.34   2
   4   3   1   56.69    3.33   2
   4  -3   1   49.77    3.37   5
  -4  -3  -1   46.63    3.81   6
  -4   3  -1   57.11    3.68   1
  -4  -3  -1   52.65    3.70   7
  -4   3  -1   57.33    3.42   7
   4   3   1   54.30    3.80   8
   4  -3   1   54.05    2.25   2
   4  -3   1   57.91    3.34   3
  -4  -3  -1   50.76    3.30   2
  -5   3  -1   50.14    3.31   7
  -5   3  -1   58.13    3.40   2
   5  -3   1   52.03    3.48   5
  -5  -3  -1   55.75    3.57   2
   5  -3   1   55.45    3.23   3
  -5  -3  -1   53.68    4.24   6
  -5   3  -1   62.39    3.78   1
   5   3   1   58.95    3.33   2
   5   3   1   53.95    3.88   8
  -5  -3  -1   57.44    3.92   7
  -6   3  -1   62.06    3.68   7
   6  -3   1   71.15    4.12   5
   6   3   1   69.32    3.55   2
  -6  -3  -1   59.76    4.15   7
   6   3   1   69.38    4.47   3
  -6  -3  -1   73.25    4.11   2
   6   3   1   73.77    3.66   2
   6  -3   1   73.77    3.53   3
   6   3   1   66.95    4.40   8
  -6  -3  -1   63.17    4.79   6
  -6   3  -1   80.09    4.32   1
   7  -3   1   61.25    3.49   3
  -7   3  -1   58.73    3.55   7
  -7   3  -1   57.03    3.61   1
  -7  -3  -1   56.61    3.79   2
   7   3   1   58.26    4.25   8
   7   3   1   58.97    4.28   3
  -7  -3  -1   58.25    4.74   6
  -7  -3  -1   50.23    3.95   7
   7  -3   1   56.68    2.98   3
   7   3   1   67.60    3.31   2
   7   3   1   57.11    3.14   2
  -8  -3  -1    5.20    1.69   2
   8  -3   1    7.58    1.57   3
   8   3   1    7.82    1.43   2
   8   3   1    5.36    2.11   8
  -8  -3  -1    6.31    2.00   7
  -8  -3  -1    6.91    2.71   6
  -8   3  -1    8.81    1.89   1
  -8   3  -1    8.88    1.78   7
   8  -3   1    5.91    1.19   3
   8   3   1    7.93    2.21   3
  -9   3  -1    9.24    1.88   1
  -9   3  -1    6.01    1.55   7
   9  -3   1    9.90    1.50   3
  -9   3  -1   10.76    1.85   7
  -9  -3  -1    8.28    2.00   2
  -9  -3  -1    9.27    2.88   6
   9   3   1    6.99    2.23   3
  -9  -3  -1    4.26    1.96   7
   9   3   1   10.53    2.54   8
  10   3   1    4.32    2.01   8
 -10   3  -1    6.61    1.74   7
 -10  -3  -1    2.96    1.81   7
 -10   3  -1    5.47    1.74   1
 -10  -3  -1    5.30    2.68   6
 -10   3  -1    5.62    1.59   7
  10   3   1    6.25    2.23   3
  11   3   1   19.19    3.41   8
 -11   3  -1   15.30    2.30   7
 -11   3  -1   12.28    2.09   7
 -11   3  -1   13.17    2.17   1
 -11  -3  -1   23.36    3.98   6
 -11  -3  -1   13.12    2.78   7
  -8  -4   1    5.17    2.13   2
  -8   4   1    1.99    1.81   7
   8   4  -1    2.06    1.64   2
   8   4  -1    2.16    1.60   2
   8  -4  -1    1.81    1.81   5
  -8  -4   1    1.52    2.04   7
   8   4  -1    4.11    2.40   8
  -8  -4   1   -0.36    2.37   6
  -7  -4   1    4.91    2.28   7
  -7  -4   1    4.98    1.97   2
   7   4  -1    6.38    2.56   8
   7  -4  -1    6.25    2.25   5
  -7   4   1    3.63    1.91   7
   7   4  -1    6.17    1.97   2
  -7  -4   1    5.62    2.91   6
  -6   4   1   43.20    3.90   7
   6  -4  -1   39.69    3.85   5
  -6  -4   1   36.22    4.38   6
  -6   4   1   41.61    3.56   2
  -6  -4   1   25.79    3.54   7
   6  -4  -1   44.78    3.57   3
   6   4  -1   38.85    4.11   8
  -6  -4   1   29.61    3.33   2
   6   4  -1   44.69    3.59   2
  -6   4   1   41.03    3.59   2
  -5  -4   1   39.55    3.66   2
  -5  -4   1   41.00    4.03   7
  -5  -4   1   44.95    4.47   6
   5   4  -1   39.88    3.50   2
  -5   4   1   45.80    3.73   2
   5  -4  -1   45.88    4.01   5
  -5   4   1   39.66    3.70   7
   5  -4  -1   38.54    3.47   3
   5   4  -1   39.70    4.08   8
  -4  -4   1   22.27    3.12   7
   4   4  -1   16.94    2.54   2
  -4  -4   1   15.41    3.04   6
  -4   4   1   16.84    2.72   7
  -4  -4   1   14.96    2.45   2
   4  -4  -1   15.99    1.88   2
  -4   4   1   16.57    2.52   2
   4  -4  -1   14.41    2.63   5
   3  -4  -1   -0.10    1.41   5
  -3   4   1    0.77    1.50   7
  -3   4   1   -0.44    1.28   2
   3  -4  -1    1.16    1.11   2
  -3  -4   1    1.66    1.40   2
  -3  -4   1    3.03    1.59   5
   3   4  -1    1.60    1.56   7
   3   4  -1    0.26    1.43   2
  -3  -4   1    0.25    1.82   6
   2  -4  -1    2.16    1.31   2
  -2  -4   1    1.23    1.28   2
   2   4  -1    2.25    1.64   2
   2   4  -1    1.31    1.67   7
  -2   4   1    4.09    1.81   7
  -2  -4   1    2.84    1.71   5
  -2  -4   1    2.86    1.98   6
   2  -4  -1    1.27    1.58   5
  -2   4   1    0.05    1.39   2
  -1   4   1   26.04    2.94   2
  -1   4   1   24.86    3.12   7
  -1  -4   1   29.04    3.29   5
   1  -4  -1   23.87    2.58   2
  -1  -4   1   28.23    2.79   2
   1   4  -1   28.67    3.15   7
   1   4  -1   32.60    3.18   2
   1  -4  -1   27.36    3.20   5
   0  -4  -1   41.56    3.23   2
   0   4  -1   37.48    3.45   2
   0   4   1   39.89    3.42   7
   0  -4   1   39.77    3.60   5
   0   4  -1   38.47    3.66   7
   0  -4  -1   35.66    3.52   5
   0   4   1   38.41    3.31   2
   0  -4   1   35.92    2.96   2
   1  -4   1   20.61    2.90   5
   1   4   1   14.35    2.57   7
  -1   4  -1   21.42    2.90   7
   1   4   1   23.49    2.76   2
   1  -4   1   22.76    2.36   2
  -1  -4  -1   23.89    2.67   2
  -1   4  -1   20.14    2.72   2
  -1  -4  -1   20.46    2.92   5
   2  -4   1    6.55    1.52   2
   2   4   1    7.43    2.04   7
   2   4   1    3.58    1.68   2
  -2  -4  -1    2.51    1.91   6
  -2   4  -1    2.69    1.63   2
  -2  -4  -1    3.12    1.64   5
  -2   4  -1    5.53    1.95   7
  -2  -4  -1    5.69    2.01   7
   2  -4   1    6.47    1.90   5
  -2  -4  -1    4.93    1.68   2
  -3  -4  -1    7.40    1.96   2
  -3   4  -1    5.71    2.02   2
  -3  -4  -1    3.72    1.96   7
  -3  -4  -1    2.59    2.20   6
   3   4   1    2.42    1.46   2
   3  -4   1    2.09    1.57   5
  -3   4  -1    3.89    1.68   7
   3  -4   1    4.71    1.27   2
   3   4   1    0.99    1.89   8
  -4  -4  -1    6.05    1.87   2
   4  -4   1    6.49    2.08   5
  -4   4  -1    7.54    2.18   7
  -4  -4  -1    7.77    2.53   6
   4   4   1    9.16    2.52   8
   4   4   1    8.28    2.01   2
   4  -4   1    8.78    2.14   3
  -4  -4  -1    4.49    2.10   7
  -4   4  -1   12.00    2.30   2
  -5   4  -1   21.37    3.01   7
   5  -4   1   27.69    3.27   5
   5   4   1   26.82    3.46   8
   5   4   1   21.24    2.72   2
   5  -4   1   19.68    2.68   3
  -5  -4  -1   27.06    3.82   6
   5   4   1   20.98    2.67   2
  -5  -4  -1   27.36    3.53   7
  -5  -4  -1   24.38    3.02   2
   6  -4   1   31.84    2.95   3
  -6  -4  -1   28.53    3.74   7
  -6   4  -1   24.13    3.12   7
  -6  -4  -1   27.62    3.25   2
   6  -4   1   25.75    3.24   5
   6   4   1   25.48    3.45   8
  -6  -4  -1   25.62    3.86   6
   6   4   1   25.61    2.80   2
   6   4   1   29.09    2.95   2
   7   4   1   16.88    3.08   8
   7  -4   1   15.99    2.81   5
  -7  -4  -1   15.15    2.80   2
  -7  -4  -1   16.53    3.55   6
  -7  -4  -1   13.63    2.88   7
   7   4   1   17.53    2.38   2
  -7   4  -1   14.20    2.59   7
  -8  -4  -1    2.66    2.03   7
  -8   4  -1    0.70    1.55   7
  -8  -4  -1    1.08    1.77   2
   8   4   1    1.88    1.51   2
  -8  -4  -1    1.10    2.61   6
   8   4   1    2.25    1.96   8
 -14   0   2    0.24    1.24   1
 -14   0   2   -0.69    0.96   7
 -13   0   2    2.54    1.31   7
 -13   0   2    1.04    1.07   1
  13   0  -2    1.90    0.96   3
  12   0  -2  138.63    4.93   3
 -12   0   2  130.32    5.32   7
  12   0  -2  143.12    4.69   3
  12   0  -2  141.79    6.04   8
  12   0  -2  143.26    6.36   4
 -12   0   2  143.03    5.17   1
  11   0  -2   43.82    2.40   3
 -11   0   2   38.68    2.64   7
  11   0  -2   39.88    2.50   3
 -11   0   2   43.86    3.43   6
  11   0  -2   45.62    3.19   8
 -11   0   2   44.21    2.59   1
  11   0  -2   48.51    3.34   4
  10   0  -2    3.64    1.29   4
 -10   0   2    2.13    1.03   7
  10   0  -2    3.76    1.11   3
 -10   0   2    5.19    1.76   6
  10   0  -2    3.44    0.96   3
 -10   0   2    2.39    0.99   1
  10   0  -2    1.28    1.15   8
 -10   0   2    0.88    0.81   1
   9   0  -2    0.74    1.03   8
   9   0  -2    0.34    0.82   4
  -9   0   2    0.73    0.79   1
   9   0  -2    1.69    0.93   3
   9   0  -2    0.23    0.71   3
  -9   0   2    2.36    0.74   1
  -9   0   2    1.71    0.85   7
  -9   0   2   -0.07    1.32   6
  -8   0   2  221.66    6.04   1
   8   0  -2  215.98    6.36   3
   8   0  -2  219.14    7.15   4
   8   0  -2  216.89    6.12   3
  -8   0   2  215.96    6.37   7
  -8   0   2  216.42    5.97   2
  -8   0   2  209.26    7.02   6
  -8   0   2  222.18    6.14   1
   8   0  -2  219.30    6.69   8
   7   0  -2  175.28    5.49   8
  -7   0   2  184.14    5.91   6
  -7   0   2  176.56    4.91   2
  -7   0   2  168.41    4.97   1
  -7   0   2  173.20    5.24   7
   7   0  -2  179.08    5.88   4
   7   0  -2  165.97    4.99   3
  -7   0   2  172.56    4.93   1
   7   0  -2  171.82    5.25   3
   6   0  -2 1145.98   24.12   2
   6   0  -2 1128.82   25.22   3
  -6   0   2 1102.03   24.03   1
   6   0  -2 1124.98   27.48   4
  -6   0   2 1161.24   24.16   1
  -6   0   2 1116.16   25.04   7
  -6   0   2 1145.26   26.13   6
  -6   0   2 1127.57   24.59   2
   6   0  -2 1141.38   25.49   3
   6   0  -2 1135.21   25.13   8
   6   0  -2 1167.70   24.69   5
  -6   0   2 1166.28   25.45   3
  -5   0   2  357.41    8.27   1
   5   0  -2  350.58    8.09   2
  -5   0   2  352.33    8.39   5
  -5   0   2  337.80    9.04   6
   5   0  -2  371.23    8.52   5
   5   0  -2  351.49    8.67   8
  -5   0   2  348.73    8.28   2
  -5   0   2  343.96    8.20   1
   5   0  -2  352.95    8.59   3
   5   0  -2  343.38    8.72   3
  -5   0   2  361.97    8.73   3
  -5   0   2  354.55    8.63   7
   5   0  -2  357.81    9.40   4
   4   0  -2 1168.97   26.38   3
   4   0  -2 1270.51   25.75   5
  -4   0   2 1212.11   25.10   1
  -4   0   2 1214.30   25.74   2
   4   0  -2 1191.99   25.88   8
  -4   0   2 1199.51   26.07   7
  -4   0   2 1223.94   26.96   6
  -4   0   2 1205.68   25.66   5
  -4   0   2 1230.88   25.15   1
  -4   0   2 1242.65   26.56   3
   4   0  -2 1193.33   26.52   3
  -4   0   2 1209.78   26.48   3
   4   0  -2 1149.59   25.70   2
  -3   0   2  784.79   16.38   1
  -3   0   2  773.79   17.00   7
  -3   0   2  798.60   17.32   3
  -3   0   2  789.21   17.30   3
   3   0  -2  776.79   16.74   5
  -3   0   2  778.23   17.54   6
  -3   0   2  778.55   16.77   2
   3   0  -2  767.88   17.31   3
   3   0  -2  765.42   16.84   2
  -3   0   2  776.26   16.74   5
   3   0  -2  766.06   17.22   3
  -3   0   2  774.00   16.36   1
   3   0  -2  778.76   16.82   8
  -2   0   2    2.96    0.47   3
   2   0  -2    2.75    0.47   3
  -2   0   2    4.51    0.51   5
   2   0  -2    3.12    0.48   5
  -2   0   2    2.71    0.47   7
  -2   0   2    2.78    0.42   2
  -2   0   2    3.78    0.62   6
  -2   0   2    2.55    0.45   3
   2   0  -2    3.11    0.49   2
   0   0   2   -0.05    0.09   3
   0   0   2   -0.09    0.10   4
   0   0   2    0.03    0.09   2
   0   0   2    0.12    0.11   5
   0   0  -2   -0.17    0.10   7
   0   0   2   -0.06    0.11   3
   0   0  -2    0.01    0.12   1
   0   0  -2    0.02    0.10   3
  -1   0  -2 2062.44   44.80   3
  -1   0  -2 1930.46   45.83   4
  -2   0  -2    0.98    0.48   4
   2   0   2    2.39    0.26   5
   2   0   2    0.74    0.45   4
   3   0   2   75.47    1.91   5
  -3   0  -2   78.83    2.95   4
   3   0   2   74.60    2.89   4
   4   0   2   53.10    2.52   4
  -4   0  -2   53.64    2.46   6
  -4   0  -2   59.14    2.68   4
   4   0   2   52.45    1.56   5
  -5   0  -2   44.32    1.32   1
  -5   0  -2   42.47    2.34   6
   5   0   2   49.41    2.57   4
  -5   0  -2   46.12    1.28   7
  -5   0  -2   41.17    1.46   1
  -5   0  -2   44.49    1.36   7
   5   0   2   45.05    1.53   5
  -6   0  -2   31.97    2.18   6
  -6   0  -2   28.00    1.11   7
  -6   0  -2   27.79    1.14   1
   6   0   2   27.95    2.06   4
  -6   0  -2   27.24    1.30   1
   6   0   2   29.20    1.32   5
  -6   0  -2   27.25    1.25   7
  -7   0  -2    0.48    0.38   1
   7   0   2    0.16    0.71   4
  -7   0  -2    0.65    0.53   1
  -7   0  -2    0.40    0.55   7
   7   0   2    0.22    0.42   5
  -7   0  -2   -0.33    0.97   6
  -8   0  -2   40.53    3.00   6
   8   0   2   42.56    2.93   4
  -8   0  -2   44.94    1.81   1
  -8   0  -2   43.31    1.97   1
  -8   0  -2   44.96    2.02   7
  -9   0  -2   -0.30    0.51   1
  -9   0  -2    0.37    0.70   1
  -9   0  -2    0.53    0.72   7
  -9   0  -2    1.07    0.75   1
  -9   0  -2    1.10    1.49   6
   9   0   2    2.48    1.21   4
 -10   0  -2  137.46    4.27   1
  10   0   2  137.35    6.31   4
 -10   0  -2  150.32    6.12   6
 -10   0  -2  142.80    4.62   7
 -10   0  -2  138.26    4.41   1
 -11   0  -2   72.86    4.46   6
 -11   0  -2   77.03    3.32   7
 -11   0  -2   77.29    3.18   1
 -11   0  -2   73.16    3.01   1
  11   0   2   71.09    4.61   4
 -12   0  -2   35.29    2.27   1
 -12   0  -2   31.33    2.14   1
  12   0   2   29.25    3.24   4
 -12   0  -2   30.19    2.27   7
 -13   0  -2   13.73    1.69   1
 -13   0  -2   13.55    1.77   7
 -13   0  -2   14.85    1.70   1
 -14   0  -2    3.13    1.29   1
 -14   0  -2    1.84    1.14   7
 -14  -1   2   -1.74    2.14   6
 -14  -1   2    0.48    1.23   7
 -14   1   2    0.64    1.28   1
 -14   1   2    0.68    1.07   7
  14   1  -2    0.72    1.65   8
 -13   1   2   14.52    1.87   1
 -13  -1   2   12.46    3.01   6
  13   1  -2   14.01    2.67   8
 -13   1   2   10.76    1.79   7
 -13  -1   2   16.11    2.32   7
 -13  -1   2   17.46    2.26   1
 -12   1   2   16.20    1.85   1
  12  -1  -2   16.77    1.50   3
  12   1  -2   17.90    2.62   8
 -12  -1   2   15.76    2.23   7
 -12   1   2   16.80    1.92   7
  12   1  -2   21.17    2.90   4
 -12  -1   2   16.80    2.13   1
  12  -1  -2   19.08    1.61   3
 -12  -1   2   21.72    3.22   6
  12   1  -2   14.64    2.14   3
 -11  -1   2   97.90    5.58   6
 -11   1   2   88.38    3.93   7
  11   1  -2   86.97    4.87   8
 -11  -1   2   80.26    4.25   7
  11   1  -2   89.28    5.23   4
 -11   1   2   89.09    3.81   1
 -11  -1   2   92.70    4.27   1
  11   1  -2   81.38    4.18   3
  11  -1  -2   89.20    3.47   3
  11  -1  -2   89.74    3.58   3
  10   1  -2   53.98    3.24   3
 -10   1   2   52.34    2.79   1
  10  -1  -2   54.37    2.70   3
 -10   1   2   50.22    2.75   7
 -10  -1   2   48.95    3.14   7
  10  -1  -2   51.29    3.04   4
 -10   1   2   46.81    2.61   1
 -10  -1   2   45.41    3.86   6
  10   1  -2   53.94    3.71   8
  10  -1  -2   48.44    2.51   3
 -10  -1   2   49.31    2.98   1
  10   1  -2   51.08    3.78   4
  10   1  -2   50.48    2.74   3
  -9  -1   2    6.09    1.12   2
  -9   1   2    6.97    1.19   7
  -9  -1   2    6.27    1.23   1
  -9   1   2    2.71    0.92   1
   9  -1  -2    4.77    1.12   3
   9   1  -2    3.51    1.01   3
   9   1  -2    4.49    1.62   4
  -9  -1   2    3.20    1.86   6
   9   1  -2    5.34    1.66   8
   9  -1  -2    7.61    1.29   4
  -9  -1   2    5.14    1.33   7
   9   1  -2    5.08    1.41   3
  -9   1   2    4.71    1.06   1
   9  -1  -2    4.54    1.04   3
   8  -1  -2   20.14    1.73   3
  -8  -1   2   20.91    1.97   7
  -8  -1   2   23.11    1.97   1
  -8  -1   2   18.06    1.62   2
  -8   1   2   20.91    1.63   1
   8  -1  -2   23.77    1.66   3
  -8   1   2   20.88    1.64   7
  -8  -1   2   19.60    1.75   1
  -8  -1   2   20.21    1.88   1
   8   1  -2   18.07    1.95   3
   8   1  -2   21.98    1.78   3
   8  -1  -2   22.54    1.75   4
  -8  -1   2   17.87    2.47   6
   8   1  -2   19.90    1.27   2
   8   1  -2   20.46    2.21   8
  -8   1   2   21.17    1.64   1
  -7   1   2    2.36    0.81   1
  -7  -1   2    1.12    0.79   1
  -7  -1   2    3.28    0.98   1
   7  -1  -2    2.37    0.75   3
   7  -1  -2    2.76    0.92   3
  -7   1   2    1.95    0.81   4
  -7   1   2    3.41    0.85   2
  -7   1   2    2.43    0.74   7
  -7  -1   2    0.03    0.74   7
   7   1  -2    1.37    1.01   3
   7   1  -2    0.65    0.67   2
  -7  -1   2    3.11    0.99   1
  -7  -1   2    0.37    1.30   6
  -7  -1   2    1.87    0.88   3
  -7   1   2    2.35    0.75   1
   7   1  -2    0.89    0.72   3
  -7  -1   2    2.00    0.76   2
  -7  -1   2    0.10    0.54   5
   7   1  -2   -1.34    0.93   8
  -7   1   2    1.45    0.78   6
   7  -1  -2    2.37    0.73   4
   6  -1  -2  122.68    4.09   4
  -6   1   2  128.28    4.04   7
   6   1  -2  121.25    4.70   8
  -6  -1   2  135.70    4.66   3
  -6  -1   2  133.43    4.20   2
   6  -1  -2  132.15    4.28   3
   6  -1  -2  126.44    4.01   3
  -6   1   2  130.66    3.60   6
   6   1  -2  128.64    4.33   3
  -6  -1   2  130.17    4.36   1
  -6  -1   2  130.42    4.26   5
   6   1  -2  118.88    4.61   3
  -6   1   2  130.04    4.05   1
   6   1  -2  125.99    3.99   2
  -6  -1   2  116.85    5.01   6
  -6  -1   2  115.21    4.42   7
  -6   1   2  136.44    4.03   2
  -6  -1   2  130.40    4.29   1
  -6   1   2  131.76    4.23   4
  -6   1   2  126.20    3.93   1
   6   1  -2  127.08    4.03   7
   5   1  -2  199.09    6.28   3
   5  -1  -2  204.40    5.66   3
   5  -1  -2  212.95    5.04   2
   5   1  -2  204.79    5.97   3
  -5  -1   2  186.49    6.55   6
  -5   1   2  202.77    5.51   1
  -5  -1   2  211.58    5.88   1
  -5   1   2  209.81    5.63   7
  -5   1   2  205.26    5.84   3
  -5  -1   2  205.43    5.71   2
   5  -1  -2  196.61    5.80   3
  -5  -1   2  201.26    5.78   5
  -5  -1   2  222.06    6.29   3
   5   1  -2  204.50    5.72   2
   5   1  -2  197.48    6.29   8
  -5  -1   2  202.31    5.74   1
  -5   1   2  206.42    5.49   1
  -5   1   2  198.62    4.98   6
  -5   1   2  205.74    5.68   4
   5   1  -2  212.76    5.68   7
  -5  -1   2  209.30    6.12   7
  -5   1   2  211.55    5.53   2
   4  -1  -2  217.68    5.97   3
   4   1  -2  209.80    5.79   2
  -4  -1   2  206.02    6.11   3
  -4   1   2  211.71    5.88   3
   4   1  -2  210.06    6.28   3
  -4  -1   2  223.02    5.81   1
   4  -1  -2  207.95    5.71   3
  -4   1   2  202.65    5.55   1
  -4   1   2  214.33    5.51   1
  -4  -1   2  203.69    6.56   6
  -4  -1   2  212.63    6.06   7
  -4  -1   2  214.53    5.75   2
  -4   1   2  217.01    5.60   2
  -4  -1   2  211.76    5.84   5
  -4   1   2  202.62    5.59   7
  -4   1   2  207.81    5.56   4
  -4  -1   2  211.80    6.23   3
   4   1  -2  216.93    5.76   7
   3  -1  -2  130.81    3.95   3
  -3   1   2  132.04    4.09   3
  -3  -1   2  126.90    3.91   1
  -3   1   2  133.51    3.89   7
   3  -1  -2  131.25    3.69   2
  -3   1   2  133.71    3.83   2
  -3   1   2  135.40    3.84   1
  -3  -1   2  130.57    4.29   3
  -3  -1   2  136.22    4.21   7
   3   1  -2  125.54    4.30   3
  -3   1   2  134.36    3.83   2
  -3  -1   2  132.52    4.04   5
  -3   1   2  129.68    3.58   4
   3   1  -2  135.98    3.99   7
  -3   1   2  128.15    3.84   1
  -3  -1   2  125.43    4.54   6
   3  -1  -2  130.63    4.14   3
  -3  -1   2  128.37    4.24   3
  -3   1   2  128.82    4.02   3
   3   1  -2  134.25    4.05   2
   2   1  -2  157.90    4.67   3
   2  -1  -2  161.06    4.51   7
   2   1  -2  156.75    4.52   2
  -2   1   2  154.57    4.40   7
  -2   1   2  163.27    4.71   3
  -2  -1   2  157.97    4.38   2
  -2  -1   2  152.16    4.77   3
  -2   1   2  159.42    4.42   1
  -2  -1   2  158.23    4.63   7
  -2   1   2  154.94    4.36   2
   2   1  -2  164.42    4.88   3
  -2  -1   2  158.28    4.92   6
   2  -1  -2  156.70    4.29   2
  -2   1   2  160.84    4.38   2
   2  -1  -2  157.40    4.57   3
   2   1  -2  158.55    4.50   7
  -2  -1   2  153.89    4.50   5
  -2   1   2  155.52    4.65   3
  -1   1   2 1348.46   28.63   2
  -1  -1   2 1333.64   28.62   2
  -1  -1   2 1334.70   29.66   6
   1  -1  -2 1345.85   28.86   7
  -1   1   2 1342.98   28.63   2
   1  -1  -2 1332.92   28.61   2
   1   1  -2 1363.44   28.75   2
  -1  -1   2 1380.23   28.91   7
  -1   1   2 1336.91   28.81   7
  -1   1   2 1332.31   28.80   7
   1  -1  -2 1326.80   29.44   3
   1   1  -2 1340.33   29.57   3
  -1  -1   2 1333.24   28.49   5
   1   1  -2 1318.41   27.94   1
   1   1  -2 1334.55   28.79   7
  -1   1   2 1303.31   29.43   3
   0   1   2   28.61    1.43   8
   0   1   2   31.54    1.58   7
   0   1  -2   28.01    1.44   1
   0  -1   2   30.34    1.56   5
   0   1  -2   28.03    1.49   2
   0   1  -2   30.10    1.55   1
   0   1   2   25.88    1.65   3
   0  -1  -2   28.96    1.53   2
   0   1  -2   28.68    1.48   7
   0   1  -2   28.39    1.66   3
   0   1   2   31.04    1.54   2
   0  -1   2   31.86    1.65   3
   0   1   2   27.54    1.50   2
   0  -1   2   28.54    1.62   6
   0  -1  -2   31.21    1.68   7
   0  -1   2   29.92    1.36   2
   0  -1  -2   27.51    1.75   3
  -1   1  -2 9357.46  203.67   7
  -1  -1  -2 9812.20  202.84   2
   1  -1   2 9797.04  199.67   5
   1   1   2 9601.70  202.58   2
  -1   1  -2 9793.24  207.88   3
   1  -1   2 9598.17  208.32   3
  -1  -1  -2 9636.30  209.40   6
  -1  -1  -2 9818.25  207.18   3
  -1  -1  -2 9776.97  195.27   1
  -1   1  -2 9998.71  203.26   2
  -1   1  -2 9631.49  195.56   1
  -1  -1  -2 9979.36  203.79   7
   1  -1   2 9631.63  209.13   6
   1  -1   2 9666.87  202.16   2
   1   1   2 9910.51  201.32   7
   1   1   2 9692.33  206.32   3
  -1   1  -2 9428.35  196.36   1
   1   1   2 9760.96  201.85   8
  -1  -1  -2 9748.63  198.65   5
  -2  -1  -2 2422.86   48.48   1
  -2   1  -2 2349.91   49.62   7
  -2   1  -2 2399.75   48.12   1
   2  -1   2 2370.28   50.61   3
  -2   1  -2 2395.61   48.09   1
  -2  -1  -2 2291.36   49.39   5
   2   1   2 2324.76   49.45   2
   2  -1   2 2372.05   49.16   5
  -2  -1  -2 2397.69   50.12   7
  -2   1  -2 2455.96   50.78   3
   2  -1   2 2364.73   50.64   3
  -2  -1  -2 2266.88   51.60   6
  -2  -1  -2 2273.72   48.43   1
  -2  -1  -2 2429.06   51.16   3
  -2  -1  -2 2399.65   49.74   2
   2   1   2 2307.08   51.02   3
   2   1   2 2358.46   49.75   8
  -3   1  -2   91.28    2.59   1
  -3   1  -2   91.93    2.55   7
   3  -1   2   90.35    2.50   3
  -3   1  -2   93.46    3.47   4
  -3  -1  -2   91.20    3.06   5
  -3  -1  -2   88.62    3.13   7
   3   1   2   91.22    3.33   8
   3   1   2   93.08    3.21   5
  -3  -1  -2   92.47    2.90   2
  -3  -1  -2   90.32    3.05   1
  -3  -1  -2   89.41    3.61   6
  -3   1  -2   90.87    2.67   1
   3   1   2   87.57    2.57   2
  -3  -1  -2   91.52    3.17   1
   3  -1   2   90.43    2.60   3
   3   1   2   90.16    3.23   3
  -4  -1  -2  221.97    6.06   1
   4   1   2  237.40    5.26   2
  -4   1  -2  235.67    7.04   4
  -4  -1  -2  242.77    5.97   2
  -4  -1  -2  223.33    7.06   6
   4   1   2  236.06    6.71   8
   4   1   2  238.24    7.53   4
   4  -1   2  235.22    5.40   3
  -4  -1  -2  232.11    6.34   7
   4   1   2  230.92    6.42   3
  -4   1  -2  233.89    5.48   7
  -4  -1  -2  248.41    6.26   1
   4   1   2  235.87    6.27   3
  -4   1  -2  229.60    5.53   1
  -4  -1  -2  235.06    6.12   5
  -4   1  -2  232.05    5.42   1
  -5  -1  -2   68.27    2.84   7
  -5  -1  -2   67.56    2.69   1
  -5  -1  -2   74.51    2.67   5
   5   1   2   75.20    3.68   4
  -5   1  -2   72.38    2.11   7
  -5   1  -2   70.82    2.29   1
  -5   1  -2   68.72    2.11   1
  -5   1  -2   71.14    2.25   7
  -5  -1  -2   74.61    2.58   2
  -5  -1  -2   74.26    2.94   1
   5   1   2   66.57    2.79   3
  -5  -1  -2   73.36    3.62   6
   5   1   2   70.16    3.30   8
   5   1   2   68.36    2.61   3
   6   1   2  409.14   12.16   4
   6   1   2  386.19   10.85   8
  -6  -1  -2  415.97    9.88   1
   6  -1   2  397.44   11.48   4
  -6  -1  -2  417.99   10.02   1
  -6   1  -2  392.57    8.92   1
   6   1   2  398.17   10.16   3
  -6  -1  -2  420.17    9.72   5
  -6   1  -2  419.54    9.35   7
  -6  -1  -2  388.05   10.20   7
   6   1   2  406.68    9.85   3
  -6   1  -2  409.66    9.95   6
  -6  -1  -2  420.28   11.67   6
  -6  -1  -2  403.12    9.67   2
  -6   1  -2  409.38    9.20   7
  -6   1  -2  401.79    9.11   1
  -7  -1  -2  167.27    5.40   7
  -7  -1  -2  171.81    5.14   1
   7   1   2  165.07    5.12   3
  -7   1  -2  176.76    5.27   6
   7  -1   2  174.54    6.29   4
  -7   1  -2  173.51    4.44   7
   7   1   2  165.02    6.64   4
   7   1   2  173.70    4.80   3
  -7   1  -2  163.80    4.32   1
  -7  -1  -2  172.17    5.31   1
  -7  -1  -2  165.99    6.55   6
   7   1   2  163.01    6.04   8
  -7   1  -2  170.97    4.49   1
  -8   1  -2    0.51    0.53   7
  -8  -1  -2    2.11    1.57   6
   8   1   2    1.75    0.65   3
   8   1   2    1.24    1.27   8
   8   1   2    0.69    0.80   3
  -8   1  -2    1.30    0.58   1
  -8   1  -2    0.86    0.65   1
  -8  -1  -2    1.36    0.79   1
   8   1   2    2.38    1.34   4
  -8  -1  -2    2.02    1.02   7
  -8  -1  -2    1.79    1.00   1
   8  -1   2   -0.24    0.81   4
  -9  -1  -2   91.05    3.72   1
   9   1   2   93.55    3.06   3
   9  -1   2   93.68    4.72   4
  -9  -1  -2   87.45    3.96   7
  -9  -1  -2  101.32    4.03   1
  -9   1  -2   97.79    3.12   1
  -9   1  -2   95.43    3.20   7
  -9  -1  -2   90.05    5.09   6
   9   1   2   93.01    3.37   3
  -9   1  -2   93.35    3.13   1
   9   1   2   90.36    4.63   8
   9   1   2   89.15    5.00   4
  10   1   2   15.72    2.49   4
 -10   1  -2   19.33    1.48   1
 -10  -1  -2   19.01    1.96   1
 -10   1  -2   21.31    1.53   1
  10   1   2   18.41    1.22   3
  10   1   2   16.93    2.46   8
  10   1   2   21.83    1.48   3
 -10  -1  -2   18.06    1.81   1
 -10  -1  -2   19.10    1.99   7
 -10   1  -2   18.52    1.48   7
  10  -1   2   17.34    2.31   4
 -10  -1  -2   13.03    2.57   6
 -11   1  -2   26.73    1.83   7
 -11  -1  -2   28.67    3.43   6
 -11   1  -2   24.37    1.75   1
 -11  -1  -2   28.61    2.46   7
  11  -1   2   32.22    3.15   4
 -11  -1  -2   26.61    2.28   1
 -11   1  -2   29.43    1.88   1
  11   1   2   24.70    3.12   4
  11   1   2   26.68    3.05   8
 -12   1  -2   -0.30    0.80   1
  12  -1   2    0.80    1.24   4
 -12   1  -2    1.30    0.87   7
 -12  -1  -2    0.72    1.18   7
  12   1   2    2.85    1.68   8
 -12  -1  -2    0.14    1.08   1
 -12  -1  -2   -1.46    1.69   6
 -12   1  -2    2.16    0.96   1
 -13  -1  -2   22.08    2.41   1
 -13  -1  -2   21.93    2.47   7
 -13  -1  -2   28.99    3.91   6
 -13   1  -2   24.01    1.97   1
 -13   1  -2   21.93    1.88   1
  13   1   2   27.89    3.55   8
 -13   1  -2   22.11    1.94   7
 -14   1  -2    1.05    1.15   1
 -14  -1  -2    3.72    2.62   6
 -14  -1  -2    0.22    1.32   7
 -14   1  -2    1.27    1.06   1
 -14  -1  -2    1.84    1.55   1
 -14   1  -2    1.39    1.11   7
  13   2  -2    7.27    2.34   8
 -13  -2   2    7.03    3.11   6
 -13  -2   2    6.38    2.04   7
 -13   2   2    6.72    1.61   7
 -13   2   2    8.25    1.79   1
 -12   2   2   11.80    1.84   7
  12   2  -2   10.18    2.48   8
  12  -2  -2    9.47    1.43   3
 -12  -2   2   11.16    2.35   7
  12   2  -2    8.97    2.32   3
 -12   2   2   11.61    1.84   1
 -12  -2   2   10.37    2.92   6
  11  -2  -2   24.99    2.16   3
 -11  -2   2   20.81    2.71   7
  11   2  -2   20.36    2.73   3
 -11   2   2   17.71    2.08   1
  11  -2  -2   25.07    1.94   3
 -11   2   2   19.85    2.17   7
 -11  -2   2   19.51    3.54   6
  11   2  -2   17.16    2.86   8
  10   2  -2   72.66    4.43   3
 -10   2   2   64.29    3.56   7
 -10  -2   2   64.93    4.15   7
 -10  -2   2   71.04    3.95   2
  10  -2  -2   71.11    3.25   3
  10  -2  -2   75.96    3.67   3
 -10   2   2   74.54    3.71   1
  10   2  -2   75.93    4.64   8
 -10  -2   2   71.86    5.27   6
   9   2  -2   13.58    1.48   2
  -9  -2   2   15.25    2.24   7
   9  -2  -2   15.99    1.63   3
  -9   2   2   13.48    1.72   7
   9  -2  -2   16.10    1.95   3
   9   2  -2   16.64    2.52   8
  -9   2   2   18.26    1.97   1
   9   2  -2   12.02    2.21   3
  -9  -2   2   14.52    2.83   6
  -9  -2   2   12.86    1.87   2
  -8   2   2   56.06    3.13   1
   8  -2  -2   65.26    3.53   3
  -8  -2   2   58.60    3.62   7
   8   2  -2   61.40    3.02   2
   8   2  -2   62.56    3.95   3
   8   2  -2   66.48    4.19   8
   8  -2  -2   56.93    2.86   3
  -8  -2   2   63.32    3.42   2
  -8  -2   2   71.58    4.75   6
  -8   2   2   60.84    3.15   7
  -7  -2   2   10.86    1.57   2
  -7  -2   2    9.31    2.20   6
  -7  -2   2    8.46    1.73   7
   7  -2  -2   11.02    1.69   3
  -7   2   2   11.63    1.54   2
   7   2  -2   11.56    1.54   2
   7   2  -2   11.71    2.19   8
  -7   2   2    9.40    1.50   1
  -7   2   2    9.63    1.40   7
   7  -2  -2    8.54    1.28   3
   7   2  -2   10.30    1.92   3
  -7  -2   2    7.57    1.59   1
   6  -2  -2   21.51    1.73   3
  -6   2   2   21.12    1.91   1
   6  -2  -2   25.72    1.31   2
   6   2  -2   21.92    2.43   8
  -6  -2   2   24.09    2.73   6
  -6   2   2   22.14    1.83   7
  -6   2   2   18.29    1.82   1
  -6  -2   2   25.30    2.34   7
   6   2  -2   23.07    1.96   7
  -6  -2   2   19.48    1.96   5
   6   2  -2   20.02    2.32   3
  -6   2   2   21.38    1.86   2
  -6  -2   2   20.36    2.07   1
  -6  -2   2   23.78    2.01   2
   6  -2  -2   20.21    2.07   3
  -6   2   2   22.82    1.94   2
   6   2  -2   24.50    2.04   2
  -5  -2   2  129.45    4.77   2
  -5  -2   2  131.70    5.05   1
  -5   2   2  123.60    4.63   1
  -5  -2   2  131.49    5.19   7
  -5   2   2  128.59    4.35   4
  -5  -2   2  124.82    4.85   5
   5  -2  -2  131.54    3.91   2
   5   2  -2  124.88    4.69   7
  -5   2   2  127.63    4.57   2
   5  -2  -2  130.29    4.62   3
   5   2  -2  132.41    5.50   3
  -5  -2   2  130.66    5.67   6
   5  -2  -2  125.50    4.97   3
  -5   2   2  129.17    4.64   7
  -5   2   2  122.47    4.58   1
  -5   2   2  127.95    4.56   2
   5   2  -2  131.92    4.76   2
  -4  -2   2  132.63    4.80   2
  -4   2   2  137.89    4.83   1
  -4  -2   2  133.72    5.59   6
  -4  -2   2  134.40    5.40   3
  -4   2   2  134.30    5.10   3
   4  -2  -2  134.36    4.79   3
   4   2  -2  148.94    5.02   7
   4  -2  -2  137.57    5.20   3
  -4   2   2  140.99    4.72   2
   4  -2  -2  138.18    4.24   2
  -4  -2   2  135.43    4.98   5
  -4  -2   2  146.28    5.13   1
  -4  -2   2  134.74    5.16   7
   4   2  -2  136.93    4.87   2
  -4   2   2  138.69    4.82   7
  -4   2   2  129.88    4.74   1
   4  -2  -2  143.71    4.87   7
   4   2  -2  128.83    5.38   3
  -3   2   2   65.95    3.31   3
   3   2  -2   68.97    3.22   2
  -3  -2   2   65.60    3.09   2
  -3   2   2   68.63    3.11   7
  -3  -2   2   70.57    3.30   5
   3   2  -2   69.75    3.23   7
   3  -2  -2   69.39    3.23   3
  -3  -2   2   65.29    3.34   7
  -3   2   2   71.74    3.27   1
   3   2  -2   70.55    3.64   3
  -3   2   2   72.07    3.14   2
  -3   2   2   62.48    3.04   7
   3  -2  -2   68.87    2.80   2
  -3  -2   2   72.65    3.77   3
   3  -2  -2   69.99    3.52   3
  -3  -2   2   64.10    3.52   6
   3  -2  -2   69.83    2.32   6
   3  -2  -2   70.78    3.21   7
  -3   2   2   66.69    3.14   1
   3   2  -2   67.11    3.42   3
   2  -2  -2   37.49    2.06   2
   2   2  -2   36.14    2.56   1
  -2  -2   2   37.08    2.16   2
  -2  -2   2   40.94    2.67   3
  -2  -2   2   38.26    2.59   6
   2  -2  -2   41.35    2.43   7
  -2  -2   2   39.09    2.49   7
  -2  -2   2   42.76    2.47   5
  -2   2   2   33.90    2.18   7
  -2   2   2   37.89    2.59   3
   2   2  -2   37.03    2.25   7
   2   2  -2   40.91    2.75   3
   2  -2  -2   39.05    2.48   3
   2   2  -2   37.14    2.34   2
  -2   2   2   34.66    2.16   2
   2  -2  -2   36.77    1.91   6
  -2   2   2   36.90    2.39   1
   1   2  -2   39.58    2.54   1
  -1  -2   2   38.17    2.49   6
  -1  -2   2   40.82    2.45   7
   1  -2  -2   34.68    2.34   3
   1   2  -2   36.17    2.20   7
  -1   2   2   36.12    2.35   1
  -1   2   2   41.23    2.38   7
  -1   2   2   35.43    2.17   2
  -1  -2   2   37.09    2.10   2
   1   2  -2   37.38    2.62   3
   1   2  -2   40.18    2.38   2
   1  -2  -2   40.10    2.18   2
   1  -2  -2   39.38    2.42   7
   1  -2  -2   35.75    2.14   6
  -1   2   2   39.46    2.54   3
  -1  -2   2   33.38    2.26   5
   0   2  -2   69.63    3.18   7
   0  -2  -2   75.89    3.46   5
   0  -2   2   77.81    3.34   5
   0  -2  -2   76.27    3.81   3
   0  -2   2   75.24    3.27   7
   0  -2  -2   78.78    3.47   7
   0   2  -2   71.06    3.19   2
   0   2   2   75.78    3.19   2
   0   2  -2   77.75    3.40   1
   0  -2   2   67.70    2.89   2
   0  -2   2   73.83    3.46   3
   0  -2   2   75.39    3.17   6
   0  -2  -2   71.94    3.15   2
   0   2  -2   75.05    3.56   3
   0   2   2   70.63    3.53   3
   0   2   2   74.36    3.34   7
   0  -2  -2   74.08    3.26   6
  -1  -2  -2  776.07   18.82   6
   1  -2   2  777.66   18.13   5
  -1  -2  -2  742.11   18.29   5
   1   2   2  782.69   18.39   7
   1   2   2  743.18   17.94   2
  -1  -2  -2  783.99   18.68   7
  -1   2  -2  782.16   18.09   2
  -1   2  -2  795.34   18.94   3
  -1   2  -2  780.31   17.80   1
  -1  -2  -2  805.11   18.09   1
  -1  -2  -2  756.31   18.16   2
  -1  -2  -2  796.38   19.23   3
   1  -2   2  777.28   18.75   3
  -1   2  -2  786.05   17.86   1
   1  -2   2  794.17   18.10   7
  -1   2  -2  764.46   18.12   7
   1   2   2  758.23   19.03   3
   1  -2   2  770.91   17.51   2
   1  -2   2  785.25   18.04   6
  -2  -2  -2  630.91   15.18   2
  -2   2  -2  610.73   14.72   1
  -2  -2  -2  625.31   15.99   6
   2   2   2  610.59   14.84   2
   2   2   2  639.15   15.28   7
  -2   2  -2  649.54   15.75   3
  -2  -2  -2  621.67   15.12   1
   2   2   2  622.32   15.99   3
   2  -2   2  628.32   15.49   3
  -2  -2  -2  642.18   16.16   3
  -2   2  -2  631.66   14.93   2
  -2  -2  -2  612.44   15.57   7
   2  -2   2  639.68   14.10   2
  -2   2  -2  614.71   14.99   7
  -2  -2  -2  617.45   15.35   5
   2  -2   2  621.30   15.05   5
  -2   2  -2  637.09   14.83   1
   2   2   2  652.56   15.16   8
   2  -2   2  629.02   14.55   6
  -3   2  -2  305.20    8.17   1
  -3  -2  -2  303.66    8.43   2
  -3  -2  -2  303.96    9.27   6
   3  -2   2  300.42    6.78   2
  -3   2  -2  299.27    8.15   1
   3  -2   2  305.95    7.35   6
   3   2   2  295.44    8.99   3
   3   2   2  289.16    7.99   2
  -3  -2  -2  307.33    8.67   5
   3   2   2  309.32    8.40   7
  -3   2  -2  302.82    8.21   7
   3  -2   2  306.60    8.34   5
  -3   2  -2  302.39    8.10   2
   3   2   2  312.00    8.65   8
   3   2   2  290.62    7.99   2
   3  -2   2  308.55    8.24   3
  -3  -2  -2  293.99    8.56   1
  -3  -2  -2  291.41    8.76   7
   3  -2   2  304.96    8.44   3
   4  -2   2  120.82    4.07   3
  -4  -2  -2  121.39    4.84   7
  -4  -2  -2  118.52    5.31   6
  -4  -2  -2  124.16    4.67   5
  -4  -2  -2  122.38    4.88   1
   4   2   2  122.97    4.87   8
  -4   2  -2  115.94    4.23   1
  -4   2  -2  123.57    4.22   7
   4   2   2  125.48    4.21   2
  -4   2  -2  122.33    4.34   1
   4   2   2  123.72    4.18   2
  -4   2  -2  127.79    4.25   2
   4   2   2  130.46    5.08   3
   4  -2   2  124.06    4.34   3
  -4  -2  -2  119.20    4.54   2
   4   2   2  120.45    4.37   7
  -4  -2  -2  119.57    4.72   1
   4  -2   2  120.10    4.44   5
   5   2   2   35.08    2.48   3
  -5   2  -2   36.30    2.11   7
  -5  -2  -2   32.56    2.54   7
  -5   2  -2   35.69    2.25   1
  -5   2  -2   35.24    2.18   1
  -5  -2  -2   41.46    2.56   5
   5  -2   2   34.74    1.85   3
   5   2   2   35.57    2.63   3
  -5  -2  -2   34.45    2.51   1
   5   2   2   36.86    2.79   8
   5   2   2   33.55    1.95   2
  -5   2  -2   34.73    2.06   7
  -5  -2  -2   32.81    2.29   2
  -5  -2  -2   34.47    3.11   6
   5  -2   2   34.75    2.07   3
   6   2   2  112.06    4.66   3
   6   2   2  122.49    5.04   3
  -6   2  -2  121.10    4.21   1
   6   2   2  118.94    5.17   8
  -6   2  -2  121.51    4.14   7
  -6  -2  -2  112.84    4.87   7
   6  -2   2  114.39    3.53   3
  -6  -2  -2  111.78    5.53   6
   6  -2   2  114.59    3.81   3
   6   2   2  118.83    3.68   2
  -6  -2  -2  123.71    4.87   1
  -6  -2  -2  114.44    4.48   2
  -6   2  -2  113.37    4.22   1
   7   2   2   75.79    3.73   3
  -7  -2  -2   68.73    3.73   1
  -7  -2  -2   66.63    4.54   6
  -7  -2  -2   73.93    3.94   7
   7  -2   2   72.21    2.32   3
   7   2   2   63.22    3.63   3
   7  -2   2   73.72    2.49   3
   7   2   2   67.63    4.58   4
  -7   2  -2   71.42    3.30   1
  -7   2  -2   72.35    3.06   7
   7   2   2   64.21    3.93   8
  -7   2  -2   71.75    3.15   1
  -7  -2  -2   72.63    3.50   2
   8   2   2   98.63    4.29   3
  -8   2  -2  101.48    3.84   7
   8   2   2   99.50    5.64   4
  -8   2  -2  107.53    4.03   1
  -8  -2  -2  102.70    4.65   1
  -8  -2  -2  108.31    4.94   7
  -8   2  -2  101.25    3.97   1
   8   2   2  101.82    4.68   3
  -8  -2  -2  104.26    5.73   6
   8   2   2  101.72    5.15   8
   9   2   2    6.45    1.92   8
  -9  -2  -2   13.50    2.14   7
  -9   2  -2    8.14    1.36   1
  -9  -2  -2   10.69    1.89   1
   9   2   2    8.76    2.28   4
  -9   2  -2   10.29    1.37   7
  -9   2  -2    8.86    1.37   1
  -9  -2  -2   16.48    2.87   6
   9   2   2   11.58    1.93   3
 -10  -2  -2   19.66    3.27   6
 -10   2  -2   19.52    1.87   1
 -10   2  -2   17.53    1.74   7
 -10  -2  -2   18.37    2.45   7
  10   2   2   11.94    2.56   8
 -10  -2  -2   14.46    2.20   1
 -10   2  -2   20.69    1.87   1
  10   2   2   18.38    2.15   3
 -11  -2  -2    6.10    2.65   6
 -11   2  -2    7.82    1.45   1
 -11   2  -2    7.78    1.48   1
 -11  -2  -2    7.54    2.00   1
 -11   2  -2   10.54    1.52   7
 -11  -2  -2    7.36    1.97   7
  11   2   2    9.35    1.77   3
  11   2   2    8.40    2.26   8
 -12   2  -2    6.87    1.42   7
 -12  -2  -2    3.57    1.80   1
 -12   2  -2    5.39    1.36   1
 -12  -2  -2    5.96    2.78   6
  12   2   2    2.61    1.92   8
 -12  -2  -2    3.25    1.64   7
 -13  -2  -2   11.76    2.46   7
 -13   2  -2   13.29    1.83   7
  13   2   2   15.28    3.12   8
 -13   2  -2   17.89    1.95   1
 -13  -2  -2   14.28    3.67   6
 -11  -3   2   36.49    4.55   6
 -11  -3   2   24.18    3.08   2
 -11   3   2   33.17    3.13   7
 -11  -3   2   23.03    3.40   7
  11   3  -2   27.74    3.64   8
 -10  -3   2   17.34    3.54   6
 -10  -3   2   15.84    2.85   7
 -10  -3   2   19.19    2.70   2
  10   3  -2   13.35    2.75   8
 -10   3   2   13.83    2.28   7
   9   3  -2    2.00    1.81   8
  -9   3   2    1.09    1.31   7
  -9  -3   2    1.94    1.63   7
  -9  -3   2    0.75    2.09   6
   9  -3  -2    1.66    1.20   3
  -9  -3   2    1.35    1.43   2
   9   3  -2    3.06    1.41   2
   8   3  -2   41.42    2.93   2
  -8  -3   2   36.88    3.16   2
  -8  -3   2   33.18    3.89   6
  -8   3   2   29.23    2.83   7
   8  -3  -2   32.02    2.55   3
   8   3  -2   27.81    3.46   8
  -8   3   2   31.93    2.91   7
  -8  -3   2   42.57    3.61   7
  -7   3   2   31.66    2.77   2
  -7  -3   2   33.63    3.89   6
  -7  -3   2   29.09    3.19   7
  -7  -3   2   26.91    2.80   2
   7   3  -2   33.72    3.49   8
  -7   3   2   28.84    2.71   7
  -7   3   2   27.77    2.67   7
   7   3  -2   32.39    2.80   2
   7  -3  -2   34.14    2.67   3
   6  -3  -2    3.94    1.44   3
  -6  -3   2    6.23    1.90   7
   6  -3  -2    4.68    1.00   2
  -6  -3   2    5.86    1.58   2
  -6  -3   2    5.76    2.35   6
  -6   3   2    7.31    1.60   2
  -6   3   2    6.14    1.50   2
   6   3  -2    6.12    2.06   8
  -6   3   2    4.07    1.43   7
   6   3  -2    4.72    1.49   2
  -5  -3   2   40.58    3.30   7
  -5  -3   2   35.86    2.97   5
  -5  -3   2   32.19    2.77   2
  -5   3   2   37.69    2.90   2
   5   3  -2   40.94    3.06   7
  -5   3   2   39.42    2.94   7
   5  -3  -2   37.46    2.87   3
  -5  -3   2   31.71    3.45   6
   5   3  -2   41.66    3.11   2
   5  -3  -2   36.72    2.20   2
  -5   3   2   34.43    2.85   2
  -4   3   2   22.07    2.26   2
  -4   3   2   20.95    2.34   7
   4  -3  -2   20.49    1.85   2
  -4  -3   2   20.87    2.84   6
  -4  -3   2   23.36    2.68   7
  -4  -3   2   24.61    2.53   5
   4   3  -2   16.40    2.19   7
   4   3  -2   22.84    2.44   2
   4  -3  -2   24.03    2.39   3
  -4  -3   2   18.39    2.14   2
  -3  -3   2    9.81    1.81   5
   3  -3  -2    8.50    1.37   2
   3   3  -2    5.77    1.58   7
  -3  -3   2    8.21    1.99   6
  -3   3   2    7.06    1.54   2
   3   3  -2    8.26    1.73   2
  -3  -3   2    8.08    1.53   2
   3  -3  -2   12.70    1.98   3
  -3  -3   2    8.77    1.88   7
  -3   3   2    9.45    1.78   7
   2  -3  -2   16.92    2.20   5
  -2   3   2   16.83    2.01   2
   2   3  -2   16.46    2.04   2
   2   3  -2   17.63    2.16   7
  -2  -3   2   19.22    2.40   6
   2  -3  -2   22.27    2.41   7
   2  -3  -2   14.36    2.17   3
   2  -3  -2   14.41    1.71   2
  -2  -3   2   15.09    1.86   2
  -2  -3   2   16.72    2.25   7
  -2   3   2   15.00    2.05   7
  -2  -3   2   18.52    2.26   5
  -1   3   2   20.85    2.36   7
   1  -3  -2   22.50    2.47   5
   1  -3  -2   22.56    2.17   6
  -1  -3   2   17.74    1.94   2
   1   3  -2   19.37    2.19   2
  -1  -3   2   26.72    2.58   5
   1   3  -2   23.11    2.38   7
  -1  -3   2   20.88    2.33   6
  -1   3   2   22.45    2.24   2
   1  -3  -2   23.25    2.52   7
  -1  -3   2   24.63    2.50   7
   1  -3  -2   20.52    2.45   3
   1  -3  -2   21.39    2.09   2
   0  -3  -2  193.73    6.75   6
   0  -3   2  186.31    6.88   5
   0  -3  -2  193.84    6.64   2
   0  -3  -2  208.23    7.35   7
   0  -3   2  192.97    6.61   6
   0  -3  -2  187.32    7.08   5
   0   3   2  197.01    6.98   7
   0  -3   2  188.12    6.28   2
   0   3   2  187.05    6.63   2
   0   3  -2  193.38    6.79   2
   0   3  -2  181.11    6.75   7
   1   3   2    1.06    1.09   2
  -1  -3  -2   -0.91    1.16   7
   1  -3   2    0.27    1.06   5
   1  -3   2    2.77    1.20   6
   1   3   2    1.82    1.12   7
  -1  -3  -2    1.25    0.99   2
  -1  -3  -2   -1.01    1.29   6
  -1   3  -2    1.25    1.20   2
   1  -3   2    0.79    0.81   2
  -1   3  -2    0.43    1.04   7
  -1  -3  -2    2.32    1.24   5
  -2   3  -2   44.40    3.27   1
   2   3   2   43.37    2.92   2
   2  -3   2   46.49    3.16   5
  -2   3  -2   49.18    3.15   2
  -2   3  -2   39.46    2.97   7
   2  -3   2   44.45    2.36   2
   2   3   2   41.44    3.10   7
  -2  -3  -2   45.19    3.31   7
  -2  -3  -2   42.36    3.15   5
  -2  -3  -2   52.27    3.72   6
   2   3   2   38.83    3.10   8
  -2  -3  -2   49.72    3.18   2
   3  -3   2   41.60    3.12   5
   3   3   2   44.29    2.95   2
  -3  -3  -2   44.67    3.57   6
  -3  -3  -2   42.73    3.00   2
  -3  -3  -2   37.36    3.11   7
  -3  -3  -2   49.61    3.37   5
   3  -3   2   42.79    3.10   3
  -3   3  -2   43.82    3.26   1
   3   3   2   44.25    3.11   7
   3   3   2   45.32    2.94   2
  -3   3  -2   36.34    2.87   7
   3   3   2   43.10    3.28   8
  -3   3  -2   40.34    2.92   2
   3  -3   2   38.53    2.10   2
  -4  -3  -2    0.55    1.04   2
   4  -3   2    0.06    1.15   5
  -4   3  -2    2.26    1.23   2
  -4   3  -2   -1.42    1.30   1
  -4   3  -2    0.19    1.05   7
  -4  -3  -2   -0.63    1.20   7
   4   3   2   -0.04    1.06   2
   4   3   2    2.64    1.63   8
   4   3   2   -0.51    1.13   2
  -4  -3  -2    1.92    1.76   6
   4  -3   2    0.55    1.14   3
   5  -3   2   23.24    2.48   5
  -5  -3  -2   22.00    2.99   6
   5  -3   2   24.26    2.42   3
   5   3   2   23.41    2.24   2
   5   3   2   24.02    2.77   8
  -5  -3  -2   27.01    2.62   2
  -5   3  -2   22.71    2.55   1
  -5  -3  -2   23.83    2.81   7
  -5   3  -2   24.90    2.47   7
   5   3   2   26.08    2.29   2
   5   3   2   22.58    2.90   3
   5  -3   2   24.61    2.20   3
   6  -3   2   38.44    2.85   3
   6   3   2   45.27    3.74   3
  -6  -3  -2   43.17    3.20   2
   6  -3   2   42.52    2.59   3
   6  -3   2   43.28    3.14   5
  -6   3  -2   42.07    2.98   7
   6   3   2   42.50    2.72   2
  -6  -3  -2   47.24    4.11   6
  -6   3  -2   39.16    3.13   1
  -6  -3  -2   37.40    3.41   7
   6   3   2   39.71    3.50   8
   7   3   2   52.85    2.80   2
  -7  -3  -2   50.56    3.88   7
  -7   3  -2   54.70    3.68   1
  -7  -3  -2   54.49    3.76   2
   7  -3   2   53.82    3.55   5
   7   3   2   47.87    3.86   3
  -7   3  -2   48.49    3.21   7
  -7  -3  -2   48.36    4.40   6
   7  -3   2   51.72    2.64   3
   7  -3   2   51.21    2.99   3
   7   3   2   48.61    3.92   8
   8  -3   2   22.77    1.73   3
  -8  -3  -2   22.80    2.70   2
  -8   3  -2   21.93    2.34   7
  -8   3  -2   25.07    2.48   1
   8   3   2   25.64    3.04   3
   8  -3   2   19.58    2.33   5
   8   3   2   19.90    2.90   8
  -8  -3  -2   15.26    2.72   7
   8  -3   2   19.45    1.78   3
  -8  -3  -2   25.58    3.55   6
  -9   3  -2    3.27    1.54   1
   9   3   2    3.97    1.89   8
   9  -3   2    5.71    1.74   5
  -9  -3  -2    1.33    2.17   6
  -9  -3  -2    5.42    2.11   7
   9   3   2    0.49    1.65   3
  -9   3  -2    3.39    1.42   7
 -10   3  -2    8.37    1.85   1
  10   3   2    7.87    2.44   8
 -10  -3  -2    9.45    3.10   6
 -10  -3  -2    9.28    2.45   7
 -10   3  -2    8.24    1.68   7
 -10   3  -2    5.09    1.59   7
  10  -3   2    6.40    1.81   5
 -11  -3  -2    5.25    2.22   7
 -11  -3  -2    3.27    2.73   6
  11  -3   2    4.28    1.73   5
 -11   3  -2    6.81    1.82   1
  11   3   2    0.86    1.89   8
 -11   3  -2    8.11    1.88   7
 -11   3  -2    3.03    1.45   7
   8   4  -2    4.00    2.44   8
  -8  -4   2    3.56    2.75   6
  -8  -4   2    4.46    2.28   7
  -8  -4   2    5.37    2.07   2
  -8   4   2    1.83    1.69   7
   8   4  -2    5.43    2.02   2
  -7  -4   2   39.89    4.25   7
   7  -4  -2   36.99    3.40   3
   7  -4  -2   30.33    3.58   5
   7   4  -2   33.46    4.07   8
  -7  -4   2   36.94    3.72   2
  -7   4   2   41.30    3.95   7
  -7  -4   2   44.86    4.81   6
   7   4  -2   37.23    3.46   2
  -6   4   2   45.67    3.70   2
  -6  -4   2   33.02    3.88   7
   6  -4  -2   39.14    3.93   5
  -6  -4   2   41.89    4.54   6
   6   4  -2   36.01    3.43   2
  -6   4   2   35.70    3.70   7
   6   4  -2   35.54    4.14   8
  -6  -4   2   37.63    3.63   2
  -5  -4   2   14.92    2.93   7
  -5   4   2   16.73    2.53   2
   5   4  -2   18.26    2.70   2
  -5  -4   2   12.97    2.43   2
  -5  -4   2   14.41    3.24   6
  -5   4   2   16.36    2.60   2
   5  -4  -2   20.06    2.96   5
  -5   4   2   17.23    2.82   7
   5  -4  -2   17.48    1.92   2
  -4   4   2    1.22    1.56   2
  -4   4   2    0.05    1.36   7
   4  -4  -2    2.94    1.30   2
   4   4  -2    1.42    1.52   2
  -4   4   2    4.46    1.74   2
   4  -4  -2    0.50    1.41   5
  -4  -4   2    4.34    1.63   2
  -4  -4   2    0.71    1.98   6
   3  -4  -2   10.40    2.41   5
   3   4  -2    9.34    2.21   7
  -3  -4   2    9.34    2.19   5
  -3  -4   2   11.39    2.21   2
  -3   4   2   10.85    2.14   2
  -3   4   2   11.50    2.21   2
  -3  -4   2   13.13    2.76   6
   3  -4  -2    9.92    1.81   2
  -3   4   2   13.21    2.51   7
   3   4  -2   12.83    2.44   2
  -2   4   2    7.82    2.21   7
   2  -4  -2    7.71    1.75   2
   2   4  -2    7.67    2.05   2
  -2   4   2    9.49    2.08   2
  -2  -4   2    7.08    1.75   2
  -2  -4   2   11.58    2.31   5
   2   4  -2    9.32    2.30   7
  -2  -4   2    4.92    2.10   6
  -2   4   2    9.86    2.16   2
   2  -4  -2   14.72    2.55   5
   1  -4  -2   13.89    2.61   5
   1  -4  -2   10.54    1.93   2
   1   4  -2   13.06    2.45   7
  -1  -4   2    8.57    2.11   5
  -1   4   2   11.10    2.21   2
  -1   4   2   10.34    2.17   2
  -1  -4   2   11.61    1.97   2
   1   4  -2   11.86    2.34   2
  -1   4   2   15.41    2.68   7
   0  -4  -2    5.19    1.61   2
   0  -4  -2    4.80    1.93   5
   0   4   2    7.45    1.96   2
   0  -4   2    3.24    1.62   5
   0   4  -2    5.38    1.81   2
   0   4  -2    5.70    1.88   7
   0  -4   2    5.11    1.55   2
   0   4   2    5.66    1.89   2
   0   4   2    3.49    1.71   7
   1  -4   2   15.12    2.51   5
  -1  -4  -2   10.52    2.10   2
  -1   4  -2   10.79    2.26   7
   1   4   2   10.76    2.12   2
  -1   4  -2    7.92    2.03   2
  -1  -4  -2    9.63    2.23   5
   1  -4   2   15.30    1.96   2
   1   4   2   14.41    2.42   2
   1   4   2    8.95    2.19   7
   2   4   2    1.83    1.86   8
  -2   4  -2   -1.61    1.10   7
  -2  -4  -2    1.17    1.69   7
   2   4   2    2.85    1.54   2
   2  -4   2    0.43    1.02   2
  -2  -4  -2   -0.61    1.17   2
  -2   4  -2    0.51    1.50   2
  -2  -4  -2    2.51    1.86   6
   2   4   2   -1.47    1.28   2
   2  -4   2    0.57    1.28   5
   3  -4   2    8.10    2.17   3
  -3  -4  -2   11.84    2.71   6
   3   4   2   10.68    2.38   8
  -3  -4  -2   12.29    2.61   7
   3  -4   2    9.28    2.26   5
   3   4   2   12.63    2.30   2
   3   4   2   10.24    2.06   2
  -3   4  -2    6.58    2.01   7
  -3  -4  -2    6.14    1.79   2
  -3   4  -2    9.87    2.17   2
   4  -4   2    3.23    1.65   3
   4   4   2    4.79    1.81   2
  -4  -4  -2    3.96    2.27   6
  -4   4  -2    1.55    1.46   7
   4   4   2    3.30    1.72   2
  -4  -4  -2    2.29    1.57   2
  -4   4  -2    3.26    1.78   2
  -4  -4  -2   -0.56    1.57   7
   4   4   2    3.57    2.13   8
   4  -4   2    3.16    1.68   5
   5  -4   2   14.40    2.60   5
   5   4   2   14.25    2.26   2
  -5   4  -2   14.52    2.61   7
  -5  -4  -2    9.37    2.56   7
   5  -4   2   15.71    2.37   3
  -5  -4  -2   16.73    2.68   2
   5   4   2    9.53    2.55   8
   5   4   2   17.48    2.41   2
  -5  -4  -2   17.14    3.36   6
   6   4   2   12.00    2.17   2
   6   4   2   10.94    2.61   8
  -6  -4  -2    7.80    2.18   2
  -6   4  -2   11.51    2.49   7
  -6  -4  -2    9.96    3.17   6
  -6  -4  -2   13.42    2.75   7
   6  -4   2    8.86    2.33   5
   7  -4   2   -1.26    1.46   5
   7   4   2    1.59    1.48   2
  -7  -4  -2   -0.84    1.39   2
  -7  -4  -2   -0.03    1.77   7
  -7  -4  -2    0.03    2.15   6
  -7   4  -2   -0.06    1.37   7
   7   4   2    1.46    1.86   8
  -8  -4  -2    3.23    1.91   2
  -8   4  -2    1.27    1.55   7
   8   4   2    2.79    2.06   8
  -8  -4  -2    1.08    2.49   6
  -8  -4  -2    3.03    2.25   7
 -14   0   3    3.08    1.44   7
 -14   0   3    3.25    1.50   1
  14   0  -3    3.59    1.19   3
  13   0  -3   23.59    2.24   3
 -13   0   3   30.08    2.67   7
  13   0  -3   26.11    2.14   3
 -13   0   3   21.22    2.27   1
  13   0  -3   28.91    2.99   8
 -12   0   3   57.94    3.25   1
 -12   0   3   53.90    3.29   7
  12   0  -3   51.48    3.13   3
  12   0  -3   59.97    3.73   8
  12   0  -3   56.58    2.96   3
 -11   0   3   59.00    3.31   7
  11   0  -3   63.77    3.38   3
  11   0  -3   68.79    3.17   3
 -11   0   3   69.42    4.14   6
  11   0  -3   57.33    3.52   8
  11   0  -3   61.86    3.80   4
 -11   0   3   63.16    3.22   1
 -10   0   3   29.75    2.26   7
  10   0  -3   24.88    2.26   4
  10   0  -3   28.57    2.47   8
 -10   0   3   31.62    2.86   6
  10   0  -3   26.68    2.19   3
  10   0  -3   25.65    1.96   3
 -10   0   3   27.73    2.05   1
  -9   0   3  151.59    4.97   1
  -9   0   3  147.22    5.14   7
   9   0  -3  149.80    5.19   3
  -9   0   3  137.32    5.57   6
   9   0  -3  146.75    5.56   4
   9   0  -3  150.54    4.94   3
  -9   0   3  141.92    4.81   1
   9   0  -3  150.93    5.39   8
  -9   0   3  143.90    4.78   2
   8   0  -3   41.20    2.36   3
  -8   0   3   38.93    2.27   1
  -8   0   3   43.36    2.39   7
  -8   0   3   38.68    2.18   1
   8   0  -3   39.38    2.23   3
   8   0  -3   44.98    2.58   8
  -8   0   3   39.91    2.76   6
  -8   0   3   44.83    2.25   2
   8   0  -3   39.74    2.48   4
   7   0  -3  242.62    7.45   4
  -7   0   3  257.09    7.52   6
   7   0  -3  250.13    6.85   3
  -7   0   3  245.14    6.61   1
  -7   0   3  251.17    6.64   2
   7   0  -3  250.42    6.09   2
  -7   0   3  250.11    7.02   3
   7   0  -3  250.23    7.02   8
  -7   0   3  234.36    6.89   7
   7   0  -3  239.68    7.01   3
  -7   0   3  248.77    6.68   1
  -6   0   3  101.63    3.99   6
   6   0  -3  110.04    3.73   8
   6   0  -3  108.37    3.33   2
   6   0  -3  113.42    3.95   4
  -6   0   3  109.77    3.76   3
   6   0  -3  103.70    3.56   3
  -6   0   3  111.29    3.50   2
   6   0  -3  105.35    3.76   3
  -6   0   3  102.23    3.66   7
  -6   0   3  104.08    3.48   1
  -6   0   3  108.64    3.55   1
   5   0  -3  229.46    6.30   3
   5   0  -3  226.83    5.90   2
  -5   0   3  231.97    6.26   3
   5   0  -3  235.57    6.15   8
   5   0  -3  225.95    6.15   3
  -5   0   3  233.62    5.91   1
  -5   0   3  217.26    5.87   1
  -5   0   3  231.97    6.05   5
  -5   0   3  230.73    5.93   2
  -5   0   3  237.21    6.21   7
  -5   0   3  223.21    6.46   6
   4   0  -3   60.72    2.42   3
  -4   0   3   63.03    2.40   3
   4   0  -3   61.73    2.34   8
  -4   0   3   66.79    2.30   1
   4   0  -3   64.32    2.31   2
  -4   0   3   63.40    2.35   5
  -4   0   3   60.11    2.20   2
   4   0  -3   61.97    2.26   7
  -4   0   3   58.25    2.21   1
  -4   0   3   58.96    2.33   3
  -4   0   3   61.63    2.33   7
  -4   0   3   60.66    2.58   6
   4   0  -3   58.75    2.33   3
  -3   0   3  426.25    9.49   1
   3   0  -3  430.42    9.76   7
  -3   0   3  412.07    9.64   2
  -3   0   3  438.28   10.07   3
  -3   0   3  400.29   10.12   6
  -3   0   3  428.68    9.76   5
  -3   0   3  424.67    9.86   7
   3   0  -3  432.32   10.08   3
  -3   0   3  415.01   10.01   3
   3   0  -3  432.41    9.81   2
   2   0  -3  529.86   12.37   3
  -2   0   3  554.51   12.40   3
  -2   0   3  547.37   12.04   5
  -2   0   3  547.40   12.41   3
  -2   0   3  538.14   12.15   7
   2   0  -3  568.39   12.15   7
   2   0  -3  534.06   12.36   3
  -2   0   3  523.49   12.48   6
  -2   0   3  558.27   12.03   2
   1   0  -3  304.45    7.23   3
  -1   0   3  308.56    7.05   5
  -1   0   3  318.17    6.99   2
   1   0  -3  315.82    7.07   7
  -1   0   3  309.78    7.43   6
   1   0  -3  311.69    7.25   3
  -1   0   3  282.19    7.19   3
   0   0   3 6972.17  142.17   5
   0   0  -3 6077.01  145.98   3
   0   0  -3 6912.20  157.00   4
   0   0   3 6856.70  142.36   2
   0   0  -3 6982.83  138.78   1
   0   0  -3 6881.21  138.09   1
   0   0  -3 6828.88  146.06   3
   0   0  -3 6889.64  143.40   7
   0   0   3 6796.32  145.93   3
  -1   0  -3  522.95   11.43   3
  -1   0  -3  517.10   12.74   4
   1   0   3  518.34   11.47   3
  -1   0  -3  514.52   11.46   3
   1   0   3  508.89   12.74   4
  -1   0  -3  522.51   10.85   1
  -1   0  -3  526.84   10.92   1
  -1   0  -3  520.18   11.19   7
   1   0   3  510.95   11.52   3
  -2   0  -3   39.99    1.22   3
  -2   0  -3   47.82    2.08   4
   2   0   3   44.25    2.04   4
   3   0   3  238.81    7.00   4
  -3   0  -3  241.68    7.00   4
   4   0   3   92.49    3.70   4
   4   0   3   91.65    2.33   5
   5   0   3   50.65    2.71   4
   5   0   3   49.03    1.57   5
  -5   0  -3   49.18    2.57   6
  -6   0  -3  144.67    3.64   1
   6   0   3  153.68    3.79   5
  -6   0  -3  158.76    5.32   6
   6   0   3  154.05    5.66   4
  -6   0  -3  141.61    3.56   7
  -6   0  -3  145.08    3.47   1
  -7   0  -3   21.32    1.01   7
  -7   0  -3   22.21    2.10   6
   7   0   3   22.69    1.23   5
  -7   0  -3   22.78    1.06   1
  -7   0  -3   21.61    1.22   1
  -7   0  -3   23.44    1.19   7
   7   0   3   21.55    2.13   4
  -8   0  -3   98.41    2.88   1
   8   0   3  105.64    4.94   4
   8   0   3  101.09    3.11   5
  -8   0  -3   99.91    3.09   1
  -8   0  -3  102.91    4.67   6
  -8   0  -3   96.68    3.18   7
  -9   0  -3   50.81    2.21   1
  -9   0  -3   50.98    2.04   1
  -9   0  -3   53.69    3.59   6
  -9   0  -3   48.18    2.24   7
   9   0   3   49.77    3.53   4
 -10   0  -3  137.61    4.17   1
 -10   0  -3  134.51    4.37   7
 -10   0  -3  129.01    4.02   1
  10   0   3  131.99    6.31   4
 -10   0  -3  133.32    4.18   1
 -10   0  -3  138.08    6.07   6
  11   0   3    1.68    1.34   4
 -11   0  -3   -0.09    1.71   6
 -11   0  -3   -0.16    0.81   7
 -11   0  -3   -0.02    0.79   1
 -11   0  -3    0.86    0.89   1
 -12   0  -3   13.17    1.52   1
 -12   0  -3   14.59    1.49   1
 -12   0  -3   12.96    1.62   7
 -13   0  -3    1.24    0.98   1
 -13   0  -3    1.31    1.01   1
 -13   0  -3    1.16    1.04   7
 -14   0  -3    0.96    1.07   7
 -14   0  -3    0.39    1.15   1
 -14   0  -3    3.18    1.28   1
 -14  -1   3   10.84    2.19   7
 -14  -1   3   11.80    3.13   6
 -14   1   3   13.10    2.01   1
  14   1  -3   10.52    2.56   8
 -14   1   3   10.67    1.89   7
 -13   1   3    0.89    1.08   1
  13  -1  -3    0.87    1.12   3
 -13  -1   3    1.84    2.21   6
 -13  -1   3    1.46    1.23   7
  13   1  -3    5.80    2.02   8
 -13   1   3    1.43    1.11   7
 -12  -1   3   21.51    2.41   1
  12  -1  -3   19.68    1.95   3
  12   1  -3   25.40    3.06   8
  12   1  -3   21.67    2.94   4
 -12  -1   3   22.07    3.29   6
 -12   1   3   26.66    2.28   1
 -12   1   3   25.80    2.36   7
  12  -1  -3   18.53    1.93   3
 -12  -1   3   20.94    2.47   7
  12   1  -3   24.99    2.63   3
  11   1  -3   40.49    3.50   8
 -11   1   3   34.63    2.52   7
  11  -1  -3   29.08    2.23   3
 -11  -1   3   35.08    2.69   1
 -11  -1   3   34.29    3.66   6
 -11   1   3   36.42    2.50   1
  11   1  -3   36.50    3.35   4
 -11  -1   3   33.36    2.84   7
  11   1  -3   33.00    2.87   3
  11  -1  -3   35.02    2.47   3
  10   1  -3   57.28    3.95   4
 -10  -1   3   59.30    3.14   2
 -10   1   3   54.16    3.02   7
  10   1  -3   58.57    3.55   3
  10   1  -3   56.17    3.77   8
 -10  -1   3   55.32    3.41   7
 -10  -1   3   56.47    3.23   1
 -10  -1   3   53.09    4.13   6
 -10   1   3   55.38    2.96   1
  10  -1  -3   57.49    2.96   3
  10  -1  -3   58.28    3.04   3
  -9  -1   3   29.18    2.41   7
   9  -1  -3   26.52    1.98   4
  -9  -1   3   34.01    2.25   2
  -9   1   3   27.09    2.04   1
  -9  -1   3   25.02    2.91   6
   9  -1  -3   26.31    2.00   3
   9   1  -3   30.09    2.21   3
   9   1  -3   29.43    2.48   3
   9   1  -3   30.74    1.69   2
  -9  -1   3   31.87    2.37   1
   9  -1  -3   31.44    2.26   3
   9   1  -3   28.65    2.65   8
  -9   1   3   27.18    2.03   7
  -9   1   3   32.17    2.13   1
  -8  -1   3    6.55    1.13   2
   8   1  -3    5.81    1.14   3
   8   1  -3    7.93    1.75   8
   8   1  -3    5.60    1.00   2
  -8   1   3    5.65    1.07   1
   8  -1  -3    6.08    0.98   4
  -8   1   3    6.04    1.05   2
  -8  -1   3    5.41    1.78   6
  -8  -1   3    7.74    1.29   1
   8   1  -3    5.19    1.41   3
  -8  -1   3    6.12    1.37   7
   8  -1  -3    4.62    1.05   3
   8  -1  -3    4.55    1.13   3
  -8   1   3    6.78    1.15   1
  -8   1   3    3.31    1.00   7
  -7   1   3  115.19    3.95   1
   7  -1  -3  115.54    3.88   4
   7   1  -3  116.22    4.67   3
  -7   1   3  108.61    3.99   7
   7   1  -3  117.71    4.26   3
   7   1  -3  115.96    3.95   2
  -7   1   3  115.34    3.64   6
   7  -1  -3  117.02    3.04   2
   7  -1  -3  111.11    4.15   3
  -7  -1   3  121.59    4.23   5
  -7  -1   3  115.99    4.18   1
   7   1  -3  119.51    4.01   7
   7   1  -3  116.79    4.79   8
  -7   1   3  114.83    4.00   1
  -7  -1   3  104.71    4.90   6
  -7  -1   3  106.53    4.34   7
   7  -1  -3  111.34    4.02   3
  -7  -1   3  116.01    4.30   1
  -7   1   3  118.29    3.99   2
  -7  -1   3  113.04    4.22   1
  -7  -1   3  115.40    4.12   2
  -7  -1   3  117.80    4.56   3
  -6  -1   3   73.88    3.10   5
  -6   1   3   72.64    2.87   2
   6  -1  -3   77.34    3.14   3
  -6   1   3   75.99    3.09   3
   6   1  -3   74.20    2.93   7
  -6  -1   3   74.45    3.18   1
   6   1  -3   68.77    3.37   3
  -6  -1   3   76.86    3.91   6
   6  -1  -3   71.83    2.44   2
  -6  -1   3   70.43    3.04   1
  -6   1   3   63.85    2.79   7
   6   1  -3   72.03    3.10   3
  -6   1   3   70.01    2.84   1
   6   1  -3   71.21    2.96   2
  -6  -1   3   68.82    3.26   3
  -6  -1   3   68.78    2.90   2
   6   1  -3   66.67    3.42   8
  -6   1   3   73.48    2.47   6
  -6  -1   3   77.56    3.16   1
  -6   1   3   72.00    2.89   1
   6  -1  -3   71.94    2.90   3
  -6  -1   3   69.05    3.20   7
  -5  -1   3  741.86   17.45   7
  -5  -1   3  760.80   16.85   1
  -5  -1   3  754.83   16.79   1
  -5   1   3  736.86   16.60   6
   5   1  -3  754.74   17.10   2
   5  -1  -3  730.05   17.43   3
   5   1  -3  747.43   16.99   7
  -5   1   3  752.28   16.48   1
  -5   1   3  727.67   16.93   7
  -5   1   3  773.46   17.47   3
  -5  -1   3  734.54   17.01   5
  -5   1   3  744.80   17.64   4
   5  -1  -3  724.56   16.48   2
  -5   1   3  755.88   16.57   1
   5   1  -3  715.80   17.82   3
  -5  -1   3  751.05   18.40   6
   5   1  -3  721.81   17.48   3
  -5  -1   3  749.45   17.76   3
   5  -1  -3  726.96   17.20   3
  -5   1   3  749.53   16.85   2
  -5  -1   3  747.42   16.76   1
   4   1  -3  304.81    7.87   2
  -4  -1   3  313.74    8.25   3
   4  -1  -3  298.89    7.45   2
  -4   1   3  306.42    7.58   1
   4  -1  -3  299.58    8.02   3
  -4   1   3  302.64    7.41   4
  -4  -1   3  300.24    8.24   3
  -4   1   3  297.11    7.67   7
  -4  -1   3  313.30    8.13   7
  -4   1   3  299.26    7.50   1
   4  -1  -3  306.72    7.73   7
  -4   1   3  305.63    7.96   3
   4   1  -3  283.81    8.22   3
   4  -1  -3  291.60    7.79   3
  -4  -1   3  306.57    7.72   1
   4   1  -3  307.85    7.81   7
  -4  -1   3  294.23    8.54   6
  -4  -1   3  297.01    7.80   5
  -4   1   3  305.46    7.65   2
  -4  -1   3  301.25    7.73   2
  -3  -1   3  282.11    7.43   3
  -3   1   3  272.22    6.98   7
  -3  -1   3  272.39    7.22   7
   3  -1  -3  272.49    6.81   2
  -3   1   3  269.60    7.21   3
   3   1  -3  257.79    7.41   3
  -3  -1   3  277.39    7.45   3
   3   1  -3  275.02    7.02   7
  -3  -1   3  267.20    7.01   5
  -3   1   3  269.24    7.20   3
  -3   1   3  268.41    6.63   4
   3  -1  -3  268.90    7.11   3
  -3   1   3  265.22    6.81   1
   3   1  -3  275.46    7.31   3
  -3  -1   3  266.00    7.60   6
  -3   1   3  272.44    6.89   2
   3  -1  -3  270.87    7.00   7
   3   1  -3  263.42    7.08   2
  -2   1   3  203.95    5.49   7
  -2   1   3  205.16    5.76   3
  -2   1   3  200.97    5.41   1
  -2  -1   3  210.28    5.67   7
   2   1  -3  206.82    5.75   3
   2   1  -3  207.90    5.58   2
  -2  -1   3  205.91    5.82   3
  -2  -1   3  200.25    5.76   3
   2  -1  -3  198.46    5.63   3
   2  -1  -3  207.83    5.56   7
  -2  -1   3  200.69    5.51   5
   2   1  -3  203.89    5.88   3
  -2   1   3  200.46    5.72   3
   2  -1  -3  208.12    5.40   2
   2   1  -3  198.21    5.46   7
  -2  -1   3  196.98    5.35   2
  -2   1   3  205.83    5.42   2
  -2  -1   3  197.97    5.90   6
  -1  -1   3   71.16    2.79   6
  -1  -1   3   64.84    2.46   5
   1   1  -3   68.74    2.51   1
   1  -1  -3   67.38    2.78   3
   1   1  -3   67.97    2.48   7
  -1  -1   3   70.41    2.52   7
   1   1  -3   70.61    2.72   3
  -1   1   3   66.59    2.68   3
  -1  -1   3   69.29    2.38   2
  -1   1   3   68.56    2.53   7
   1  -1  -3   67.59    2.45   2
  -1   1   3   65.06    2.42   2
   1   1  -3   70.70    2.51   2
   1   1  -3   68.50    2.63   3
  -1   1   3   69.00    2.53   7
   1  -1  -3   65.74    2.62   3
   1  -1  -3   69.63    2.59   7
  -1   1   3   65.64    2.64   3
   0   1  -3  745.26   16.72   7
   0   1   3  757.46   16.33   8
   0   1  -3  745.61   16.29   1
   0   1   3  744.59   17.31   3
   0  -1   3  747.76   17.25   6
   0  -1  -3  772.71   16.85   2
   0   1  -3  763.12   17.26   3
   0  -1  -3  751.14   17.38   3
   0  -1   3  758.17   17.14   3
   0   1  -3  751.23   16.23   1
   0  -1  -3  763.45   17.44   3
   0  -1  -3  765.19   16.98   7
   0   1  -3  753.51   16.61   2
   0  -1   3  759.87   16.44   2
   0  -1   3  748.32   16.60   5
   0   1   3  752.73   16.66   2
   0   1   3  769.58   16.95   7
   0  -1  -3  763.38   16.50   1
   1   1   3 1632.98   36.90   3
  -1  -1  -3 1654.67   36.01   2
  -1   1  -3 1700.30   35.63   2
  -1   1  -3 1650.82   34.72   1
  -1   1  -3 1730.51   36.77   3
   1   1   3 1683.33   36.16   7
  -1  -1  -3 1701.83   36.25   7
  -1  -1  -3 1696.94   35.17   1
  -1  -1  -3 1724.30   37.13   3
  -1   1  -3 1627.92   34.78   1
  -1   1  -3 1693.37   35.94   7
   1  -1   3 1708.61   36.59   3
  -1  -1  -3 1730.74   35.15   1
   1   1   3 1677.18   35.78   8
   1   1   3 1706.26   35.79   2
   1  -1   3 1739.37   35.71   2
   1  -1   3 1716.34   35.58   5
   1  -1   3 1685.48   36.89   6
   2  -1   3   84.11    2.57   3
   2   1   3   87.96    3.10   8
  -2  -1  -3   81.92    3.02   5
  -2   1  -3   90.88    2.91   3
  -2  -1  -3   91.45    3.07   7
  -2  -1  -3   91.01    2.94   2
   2   1   3   92.24    3.56   4
   2   1   3   89.38    2.61   2
  -2  -1  -3   93.56    3.09   1
   2   1   3   87.60    3.11   3
  -2   1  -3   92.38    2.71   1
   2  -1   3   85.64    2.72   5
  -2   1  -3   89.85    2.65   7
  -2   1  -3   82.62    2.56   1
  -2  -1  -3   89.61    3.07   1
  -3   1  -3   39.75    1.48   1
  -3  -1  -3   37.34    1.88   1
   3   1   3   38.36    2.15   8
  -3  -1  -3   38.80    1.88   5
   3   1   3   38.40    1.91   3
  -3  -1  -3   41.38    1.76   2
   3   1   3   39.72    1.33   2
   3  -1   3   37.80    1.23   3
  -3   1  -3   37.52    2.15   4
  -3   1  -3   40.62    1.42   7
  -3  -1  -3   39.96    2.00   1
  -3  -1  -3   39.52    2.33   6
   3  -1   3   40.56    1.25   3
   3   1   3   39.05    2.36   4
  -3  -1  -3   38.92    1.91   7
  -3   1  -3   40.11    1.50   1
   3  -1   3   41.11    1.62   5
  -4   1  -3   73.96    2.10   7
   4   1   3   72.99    2.68   3
  -4   1  -3   68.10    2.03   1
   4   1   3   73.46    3.18   8
  -4  -1  -3   70.61    3.42   6
  -4   1  -3   69.12    2.13   1
  -4  -1  -3   70.41    2.67   1
  -4  -1  -3   69.56    2.77   1
   4   1   3   66.71    3.38   4
   4   1   3   74.69    2.79   3
  -4   1  -3   71.88    1.98   7
  -4  -1  -3   74.54    2.48   2
  -4  -1  -3   67.81    2.60   5
  -4  -1  -3   68.56    2.72   7
  -5  -1  -3   95.06    2.95   2
  -5   1  -3   89.67    2.39   1
  -5  -1  -3   93.74    4.15   6
   5   1   3   83.80    4.11   4
  -5   1  -3   85.29    2.51   1
   5   1   3   88.38    3.75   8
  -5   1  -3   92.19    2.35   7
  -5   1  -3   95.10    2.50   7
  -5  -1  -3   91.10    3.04   5
  -5  -1  -3   85.42    3.22   7
  -5  -1  -3   84.04    3.22   1
  -5  -1  -3   89.52    3.21   1
   5   1   3   91.10    3.07   3
   5   1   3   89.14    3.17   3
  -6   1  -3    7.56    0.62   7
  -6  -1  -3   10.03    1.29   1
  -6  -1  -3    8.04    1.10   1
   6   1   3    7.31    0.99   3
  -6  -1  -3    8.15    0.94   2
  -6  -1  -3    7.15    1.17   7
  -6   1  -3    8.42    0.74   7
   6   1   3    8.00    1.43   8
   6   1   3    8.52    1.62   4
  -6   1  -3    7.27    0.79   1
   6   1   3    7.65    0.86   3
  -6  -1  -3   10.49    1.81   6
  -6   1  -3    8.50    1.13   6
  -6   1  -3    7.57    0.63   1
  -7   1  -3  380.66    9.72   6
  -7   1  -3  369.40    8.35   1
  -7  -1  -3  361.98    9.36   1
   7   1   3  345.82   11.54   4
  -7   1  -3  377.96    8.42   7
   7  -1   3  377.83   11.32   4
  -7  -1  -3  376.81    9.31   1
  -7   1  -3  372.00    8.21   1
   7   1   3  366.08   10.57   8
   7   1   3  374.53    8.87   3
  -7  -1  -3  375.41   11.28   6
  -7  -1  -3  361.90    9.62   7
   7   1   3  368.37    9.13   3
   8   1   3   48.23    2.06   3
   8  -1   3   56.84    3.50   4
  -8   1  -3   42.92    1.78   7
   8   1   3   48.44    1.89   3
  -8   1  -3   48.01    1.92   1
  -8  -1  -3   50.86    2.56   1
   8   1   3   46.20    3.16   8
  -8   1  -3   48.19    1.83   1
   8   1   3   52.08    3.61   4
  -8  -1  -3   50.06    3.73   6
  -8  -1  -3   48.10    2.68   7
  -8  -1  -3   47.84    2.65   1
   9   1   3  109.03    5.24   8
  -9   1  -3  107.46    3.30   1
  -9  -1  -3  116.34    4.35   1
  -9  -1  -3  105.74    5.66   6
  -9   1  -3  115.14    3.44   7
  -9  -1  -3  114.45    4.26   1
   9  -1   3  116.26    5.50   4
   9   1   3  108.23    3.19   3
  -9  -1  -3  113.95    4.47   7
   9   1   3  107.85    5.68   4
  -9   1  -3  111.47    3.37   1
 -10   1  -3   32.50    1.72   1
  10   1   3   35.60    3.28   8
 -10  -1  -3   30.91    2.44   7
 -10  -1  -3   29.61    2.39   1
 -10  -1  -3   26.65    3.30   6
  10   1   3   26.73    3.15   4
 -10   1  -3   34.48    1.80   7
  10  -1   3   28.22    2.92   4
 -10   1  -3   31.26    1.70   1
 -10  -1  -3   28.83    2.26   1
 -11  -1  -3   53.67    4.31   6
 -11  -1  -3   51.22    3.08   1
  11  -1   3   50.89    3.94   4
 -11  -1  -3   53.33    3.25   7
 -11   1  -3   52.28    2.32   1
 -11  -1  -3   52.50    3.10   1
  11   1   3   49.65    3.89   8
 -11   1  -3   52.40    2.36   1
 -11   1  -3   46.32    2.31   7
  12  -1   3    5.96    2.03   4
 -12  -1  -3    2.11    2.17   6
 -12   1  -3    1.61    0.88   7
 -12  -1  -3    3.35    1.31   1
 -12   1  -3    2.36    0.86   1
 -12  -1  -3    2.74    1.31   7
 -12   1  -3    0.91    0.89   1
 -13  -1  -3   12.25    2.10   7
 -13  -1  -3   12.88    3.19   6
 -13   1  -3   12.62    1.49   1
 -13   1  -3    9.00    1.37   7
 -13  -1  -3   12.44    2.02   1
 -13   1  -3   14.14    1.51   1
 -13  -2   3    0.32    1.36   7
 -13   2   3    2.88    1.53   1
  13   2  -3    1.24    1.72   8
 -13  -2   3   -1.54    2.21   6
 -13   2   3    1.94    1.24   7
 -12  -2   3   13.37    3.09   6
 -12   2   3    7.99    1.75   1
  12   2  -3    3.07    1.95   8
 -12  -2   3    5.78    1.89   7
  12   2  -3    6.71    2.18   3
  12  -2  -3    6.01    1.68   3
 -12   2   3    6.42    1.61   7
 -11   2   3   78.75    4.10   7
  11   2  -3   82.49    5.15   8
  11   2  -3   81.81    4.90   3
 -11  -2   3   75.75    5.58   6
  11  -2  -3   81.59    3.71   3
 -11  -2   3   74.41    4.57   7
 -11   2   3   82.56    4.09   1
 -11  -2   3   79.99    4.41   2
  10  -2  -3  107.84    4.79   3
 -10   2   3  109.89    4.64   1
  10   2  -3  103.94    5.60   8
 -10  -2   3  103.66    4.88   2
  10   2  -3  112.07    5.65   3
 -10   2   3   99.88    4.61   7
 -10  -2   3   98.24    5.14   7
  10  -2  -3  102.62    4.26   3
 -10  -2   3  105.62    6.13   6
   9  -2  -3    6.44    1.65   3
  -9   2   3    3.98    1.27   7
   9   2  -3    9.41    2.26   8
   9   2  -3    8.25    1.99   3
  -9  -2   3    3.93    1.48   7
  -9  -2   3    8.05    1.60   2
  -9   2   3    8.04    1.57   1
   9   2  -3    7.43    1.39   2
  -9  -2   3    7.47    2.37   6
   9  -2  -3    6.28    1.28   3
  -8  -2   3    1.60    1.30   7
   8   2  -3    2.09    1.22   2
  -8   2   3    0.54    0.98   1
   8  -2  -3    2.43    1.32   3
  -8  -2   3    0.77    1.69   6
   8   2  -3    3.43    1.59   3
  -8  -2   3    2.01    1.02   2
   8   2  -3    1.46    1.79   8
   8  -2  -3    0.85    0.91   3
  -8   2   3    0.65    0.90   7
   7  -2  -3   32.12    2.55   3
  -7  -2   3   27.80    2.67   7
   7  -2  -3   29.79    2.14   3
  -7   2   3   31.41    2.31   7
  -7  -2   3   30.35    2.37   2
   7  -2  -3   34.01    1.58   2
   7   2  -3   30.72    2.89   3
  -7  -2   3   27.71    3.20   6
   7   2  -3   30.64    2.95   8
  -7   2   3   34.61    2.49   1
   7   2  -3   29.94    2.34   2
  -7   2   3   33.01    2.28   2
  -6  -2   3   13.30    1.63   2
  -6  -2   3   11.71    1.85   7
   6  -2  -3   12.92    1.87   3
   6   2  -3   14.55    1.71   7
  -6  -2   3   12.92    1.69   5
   6  -2  -3   14.06    1.24   2
  -6  -2   3   17.21    2.46   6
  -6   2   3   17.72    1.74   2
  -6   2   3   17.88    1.76   7
  -6   2   3   14.70    1.72   1
   6   2  -3   19.55    2.28   3
   6  -2  -3   15.14    1.60   3
   6   2  -3   13.97    1.71   2
   5  -2  -3  135.64    5.27   3
   5  -2  -3  132.35    4.83   3
   5   2  -3  140.39    5.06   2
   5   2  -3  135.77    4.94   7
  -5  -2   3  129.73    5.22   7
  -5   2   3  135.04    4.84   7
   5   2  -3  129.34    5.56   3
  -5  -2   3  132.15    4.91   2
  -5   2   3  129.28    4.78   1
   5  -2  -3  126.22    4.22   2
  -5  -2   3  134.70    5.07   5
  -5  -2   3  145.21    5.95   6
  -5   2   3  131.48    4.22   4
  -5   2   3  130.72    4.70   2
   4  -2  -3  211.33    7.00   3
  -4  -2   3  198.53    6.60   1
   4  -2  -3  207.35    6.04   2
   4   2  -3  214.95    7.05   3
  -4  -2   3  209.62    6.68   5
  -4  -2   3  207.52    6.49   2
  -4  -2   3  205.37    6.83   7
  -4   2   3  213.72    6.91   3
  -4   2   3  212.72    6.57   7
   4   2  -3  218.21    6.67   7
  -4  -2   3  215.93    7.41   6
  -4   2   3  213.89    6.44   2
   4   2  -3  200.55    7.19   3
   4  -2  -3  216.26    5.28   6
   4   2  -3  205.18    6.66   2
   4  -2  -3  214.51    6.67   3
  -4   2   3  213.53    6.55   1
  -4   2   3  202.40    6.34   2
   4  -2  -3  213.90    6.62   7
  -4  -2   3  223.60    7.29   3
  -3  -2   3   21.21    1.76   2
   3   2  -3   19.55    1.96   3
   3   2  -3   21.24    1.88   7
   3   2  -3   23.63    2.22   3
  -3   2   3   18.63    1.73   7
  -3   2   3   18.24    1.71   7
   3   2  -3   18.59    1.79   2
  -3   2   3   22.47    1.98   3
   3  -2  -3   19.75    1.55   2
  -3   2   3   18.05    1.66   2
   3  -2  -3   21.96    1.84   3
  -3   2   3   24.80    1.87   2
   3  -2  -3   21.91    1.39   6
  -3  -2   3   22.27    2.24   6
  -3  -2   3   16.91    1.86   7
  -3  -2   3   18.77    1.83   5
  -3  -2   3   21.66    2.08   3
   3  -2  -3   21.00    1.89   7
  -3   2   3   20.79    1.86   1
   2  -2  -3   74.83    3.55   3
   2  -2  -3   78.01    3.22   2
  -2   2   3   84.07    3.83   3
  -2   2   3   80.87    3.51   1
  -2  -2   3   71.25    3.18   2
  -2   2   3   83.49    3.41   2
   2   2  -3   80.77    3.87   3
   2   2  -3   80.16    3.75   3
  -2   2   3   77.07    3.32   2
   2   2  -3   76.85    3.43   2
   2  -2  -3   87.75    3.70   7
   2  -2  -3   81.14    2.98   6
  -2  -2   3   80.76    3.53   5
   2   2  -3   86.05    3.76   1
  -2   2   3   75.76    3.37   7
  -2  -2   3   76.29    3.67   6
  -2  -2   3   77.82    3.51   7
   2   2  -3   79.07    3.41   7
   1   2  -3   47.15    2.52   7
   1  -2  -3   47.88    2.87   3
  -1   2   3   48.60    2.51   2
  -1   2   3   53.11    2.77   7
  -1  -2   3   47.67    2.61   7
  -1  -2   3   44.80    2.33   2
   1  -2  -3   47.03    2.93   3
  -1   2   3   47.92    2.91   3
   1   2  -3   46.72    2.78   1
  -1  -2   3   50.15    2.66   5
  -1  -2   3   46.87    2.77   6
   1  -2  -3   50.73    2.47   6
   1  -2  -3   49.04    2.51   2
   1   2  -3   49.25    3.00   3
   1   2  -3   47.58    2.58   2
  -1   2   3   54.79    2.73   1
  -1   2   3   44.99    2.42   2
   0  -2   3  343.33    9.30   5
   0  -2   3  344.48    8.83   2
   0  -2  -3  355.92    9.65   7
   0   2  -3  337.95    9.18   2
   0   2  -3  342.08    9.85   3
   0  -2   3  339.85    9.25   6
   0   2   3  352.01    8.74   8
   0   2   3  341.50    9.12   2
   0  -2   3  351.28    9.69   3
   0   2   3  357.14    9.95   3
   0   2  -3  356.35    9.32   1
   0   2   3  336.03    9.09   2
   0  -2  -3  343.61    9.25   2
   0  -2  -3  355.09   10.07   3
   0   2  -3  349.50    9.19   1
   0  -2   3  359.00    9.26   7
   0   2  -3  330.24    9.19   7
   0   2   3  349.58    9.42   7
   0  -2  -3  344.20    9.34   6
  -1   2  -3  898.68   20.77   7
  -1   2  -3  909.13   20.33   1
  -1   2  -3  903.62   21.53   3
   1   2   3  902.22   21.71   3
  -1  -2  -3  915.81   21.60   6
  -1   2  -3  893.54   20.34   1
  -1  -2  -3  943.48   22.04   3
  -1  -2  -3  888.67   21.02   5
   1  -2   3  878.61   20.60   5
   1   2   3  918.91   21.00   7
  -1  -2  -3  919.57   21.31   7
   1   2   3  893.75   20.36   8
  -1  -2  -3  909.66   20.63   1
   1  -2   3  885.56   20.74   6
  -1  -2  -3  903.57   20.92   2
   1   2   3  879.81   20.53   2
   1   2   3  893.28   20.58   2
  -1   2  -3  897.20   20.61   2
   1  -2   3  931.27   21.35   3
   1  -2   3  882.45   19.93   2
  -2   2  -3 1469.01   32.93   7
   2   2   3 1540.51   33.29   7
  -2  -2  -3 1525.72   34.51   6
   2  -2   3 1464.78   33.00   6
  -2   2  -3 1491.57   32.71   2
  -2   2  -3 1506.06   33.93   3
  -2  -2  -3 1456.79   33.52   7
  -2  -2  -3 1569.97   32.73   1
  -2   2  -3 1513.75   32.13   1
   2   2   3 1490.00   32.86   8
  -2  -2  -3 1443.02   33.10   2
  -2   2  -3 1521.81   32.16   1
   2   2   3 1469.37   32.68   2
   2  -2   3 1507.88   31.66   2
   2  -2   3 1497.75   32.72   5
  -2  -2  -3 1488.69   33.13   5
   2  -2   3 1483.52   33.55   3
   2   2   3 1500.84   34.25   3
   3   2   3  680.42   16.14   7
  -3  -2  -3  660.46   17.27   6
   3   2   3  679.02   17.02   3
   3   2   3  662.21   15.64   2
   3  -2   3  689.58   16.03   3
  -3  -2  -3  672.70   16.17   1
   3  -2   3  689.71   15.99   5
  -3   2  -3  667.51   15.59   1
   3  -2   3  661.02   15.43   6
   3   2   3  686.25   16.35   8
   3  -2   3  663.96   16.07   3
  -3   2  -3  693.29   15.72   1
  -3  -2  -3  650.28   16.28   5
  -3   2  -3  673.38   15.90   7
  -3   2  -3  668.93   15.68   2
  -3  -2  -3  657.89   16.63   7
  -3  -2  -3  681.27   16.27   2
  -4  -2  -3   16.60    1.67   2
  -4   2  -3   16.56    1.54   7
   4  -2   3   16.94    1.43   3
  -4  -2  -3   20.01    1.96   1
  -4  -2  -3   17.96    1.97   7
   4   2   3   17.58    1.43   2
   4  -2   3   19.78    1.70   5
  -4   2  -3   14.14    1.56   1
  -4   2  -3   16.15    1.58   1
   4   2   3   18.66    2.00   8
  -4  -2  -3   17.76    2.28   6
   4   2   3   18.82    1.65   7
  -4   2  -3   17.34    1.46   2
   4   2   3   18.26    1.98   3
   4  -2   3   14.80    1.44   3
  -4  -2  -3   16.61    1.77   5
   5   2   3   88.33    4.14   8
  -5  -2  -3   82.92    3.73   2
   5   2   3   89.94    4.19   3
  -5   2  -3   89.83    3.56   1
   5  -2   3   89.93    3.15   3
  -5   2  -3   94.44    3.55   1
  -5  -2  -3   89.98    4.78   6
   5   2   3   90.29    3.12   2
   5  -2   3   83.68    2.90   3
  -5   2  -3   87.21    3.38   7
  -5  -2  -3   91.60    4.12   1
  -5  -2  -3   86.97    4.11   7
   5  -2   3   89.78    3.59   5
  -6  -2  -3  119.48    5.01   7
  -6  -2  -3  114.25    5.72   6
  -6   2  -3  115.34    4.11   1
  -6   2  -3  117.56    4.03   7
   6   2   3  115.03    4.64   3
   6   2   3  116.63    3.33   2
   6  -2   3  115.87    3.21   3
  -6   2  -3  117.16    4.02   7
  -6  -2  -3  111.92    4.81   1
   6   2   3  125.96    5.23   8
   6  -2   3  118.09    4.25   5
   6  -2   3  112.06    3.32   3
  -6  -2  -3  123.74    4.66   2
   6   2   3  107.41    5.63   4
  -6   2  -3  113.54    4.17   1
   6   2   3  110.25    4.76   3
   7   2   3   70.06    3.58   3
   7   2   3   63.38    4.04   8
  -7  -2  -3   70.85    3.86   7
   7   2   3   61.85    3.56   3
  -7   2  -3   69.89    3.04   1
  -7   2  -3   70.15    3.00   7
  -7  -2  -3   67.93    4.72   6
  -7  -2  -3   71.32    3.53   2
   7   2   3   67.30    4.54   4
  -7  -2  -3   66.36    3.74   1
  -7   2  -3   67.81    3.17   1
   8   2   3  188.46    6.12   3
   8   2   3  177.17    6.32   3
  -8   2  -3  180.49    5.49   7
   8   2   3  169.38    6.99   8
  -8  -2  -3  168.85    7.65   6
  -8   2  -3  180.14    5.53   1
  -8  -2  -3  162.15    6.50   7
  -8  -2  -3  181.96    6.57   1
   8   2   3  173.22    7.94   4
  -8   2  -3  184.47    5.62   1
  -9  -2  -3   11.42    1.95   1
  -9   2  -3   13.89    1.57   1
  -9   2  -3   11.49    1.38   7
  -9   2  -3   11.55    1.48   1
   9   2   3   15.62    2.78   4
   9   2   3   12.63    1.61   3
  -9  -2  -3   10.03    2.64   6
   9   2   3   11.01    2.26   8
  -9  -2  -3   10.96    2.00   7
   9   2   3   14.95    1.88   3
 -10  -2  -3    2.08    1.49   7
  10   2   3    1.96    1.03   3
 -10   2  -3    3.62    1.03   7
  10   2   3    2.75    1.57   8
 -10   2  -3    2.77    1.07   1
 -10  -2  -3    1.80    2.04   6
 -10  -2  -3   -1.26    1.23   1
  10   2   3    3.76    1.41   3
 -10   2  -3    2.30    1.11   1
 -11  -2  -3   20.25    2.68   7
 -11  -2  -3   17.75    2.51   1
 -11  -2  -3   22.03    3.59   6
  11   2   3   13.88    2.63   8
 -11   2  -3   17.41    1.84   1
 -11   2  -3   18.41    1.80   7
  11   2   3   15.59    1.65   3
 -11   2  -3   17.41    1.78   1
 -12   2  -3   -0.37    1.04   1
  12   2   3    4.70    1.92   8
 -12   2  -3    2.12    1.13   7
 -12  -2  -3    0.25    1.71   1
 -12  -2  -3   -0.93    1.41   7
 -12   2  -3    0.53    1.16   1
 -12  -2  -3    1.34    2.48   6
 -11   3   3   12.73    2.35   7
 -11  -3   3   11.05    2.61   7
 -11  -3   3    7.49    3.05   6
  11   3  -3   19.49    3.32   8
 -11  -3   3   12.29    2.45   2
 -10  -3   3    9.80    2.19   2
  10   3  -3    8.64    1.78   2
  10   3  -3    5.71    2.37   8
 -10   3   3   10.55    2.14   7
 -10  -3   3    6.53    2.82   6
 -10  -3   3    9.27    2.50   7
  -9  -3   3    2.74    2.20   6
   9   3  -3    1.04    1.33   2
  -9  -3   3   -0.78    1.19   2
  -9  -3   3    1.62    1.67   7
   9   3  -3    1.41    1.79   8
  -9   3   3    2.49    1.39   7
   9  -3  -3    3.91    1.42   3
  -8   3   3   11.82    2.07   7
  -8  -3   3   16.86    3.20   6
   8  -3  -3   11.80    1.89   3
   8   3  -3    9.17    2.50   8
  -8   3   3   16.48    2.32   7
   8   3  -3   12.85    1.99   2
  -8  -3   3   17.86    2.80   7
  -8  -3   3   13.80    2.27   2
   7   3  -3    5.35    1.69   2
   7  -3  -3    5.81    1.53   3
   7   3  -3    4.45    2.05   8
  -7   3   3    5.52    1.66   2
  -7  -3   3    4.59    1.46   2
  -7  -3   3    7.20    2.55   6
  -7   3   3    6.46    1.62   7
  -7   3   3    7.12    1.74   7
  -7  -3   3    4.44    1.73   7
   6   3  -3  112.46    5.10   2
  -6   3   3  105.80    4.98   7
  -6  -3   3  105.24    5.07   2
   6  -3  -3  111.34    4.00   2
   6  -3  -3  107.22    4.91   3
  -6  -3   3  105.93    5.97   6
  -6  -3   3  106.75    5.36   7
  -6   3   3   98.15    4.86   7
  -6   3   3  105.81    4.84   2
  -5  -3   3   17.99    2.19   2
  -5   3   3   20.09    2.27   7
   5  -3  -3   17.14    2.15   3
  -5  -3   3   11.77    2.27   7
  -5   3   3   13.46    2.00   2
   5  -3  -3   13.36    1.54   2
   5   3  -3   16.47    2.27   7
  -5  -3   3   21.77    2.94   6
  -5   3   3   13.16    1.94   2
  -5  -3   3   11.61    2.04   5
   5   3  -3   17.60    2.24   2
  -4   3   3   46.37    3.18   2
   4   3  -3   54.82    3.49   2
   4   3  -3   56.34    3.51   7
  -4  -3   3   52.16    3.66   7
   4  -3  -3   54.89    2.95   2
  -4  -3   3   50.01    3.44   5
  -4   3   3   58.41    3.45   2
   4  -3  -3   53.80    3.52   3
  -4  -3   3   55.53    4.05   6
  -4  -3   3   46.77    3.19   2
  -4   3   3   51.96    3.41   7
  -3   3   3  117.22    5.33   7
   3  -3  -3  127.63    4.83   2
  -3   3   3  118.72    5.15   2
   3   3  -3  122.03    5.35   2
   3  -3  -3  130.93    5.62   3
   3   3  -3  134.41    5.49   7
  -3   3   3  127.36    5.23   2
  -3  -3   3  134.90    5.77   7
  -3  -3   3  121.20    5.10   2
  -3  -3   3  125.86    5.54   5
  -3  -3   3  119.35    5.70   6
   2  -3  -3    0.20    1.14   3
   2  -3  -3   -0.01    1.21   7
  -2   3   3   -0.24    1.02   7
   2   3  -3    1.28    1.21   2
   2   3  -3    0.48    1.05   7
  -2  -3   3   -0.23    0.91   5
  -2  -3   3   -0.50    1.30   6
  -2   3   3    0.96    1.12   2
  -2  -3   3    0.59    1.28   7
  -2   3   3   -0.82    1.00   2
  -2  -3   3    0.83    0.92   2
   2  -3  -3    0.80    0.96   2
  -1   3   3   -0.77    0.95   2
   1   3  -3    1.27    1.10   2
   1   3  -3    0.88    1.08   7
  -1  -3   3    1.44    1.04   5
   1  -3  -3    0.13    1.10   5
   1  -3  -3   -1.11    1.17   6
  -1  -3   3    2.72    1.50   6
   1  -3  -3    1.25    1.39   7
  -1   3   3   -0.32    1.01   7
  -1  -3   3    1.56    1.27   7
  -1   3   3    0.30    1.01   2
   1  -3  -3    0.83    0.95   2
  -1  -3   3    0.32    0.79   2
   0   3  -3   13.18    1.99   7
   0  -3  -3   20.12    2.29   6
   0   3   3   14.46    2.10   7
   0  -3  -3   15.18    1.89   2
   0   3  -3   11.61    1.80   2
   0  -3  -3   11.71    1.99   5
   0   3   3   14.31    1.96   2
   0  -3  -3   15.56    2.19   7
   0  -3   3   14.43    2.06   6
   0  -3   3   13.96    1.64   2
   0  -3   3   12.15    1.89   5
   0   3   3   18.48    2.08   2
  -1   3  -3    1.92    1.19   2
   1   3   3    0.94    1.29   8
   1  -3   3   -0.02    0.93   5
   1  -3   3    0.97    1.15   6
   1   3   3    0.24    1.05   2
  -1  -3  -3    0.27    1.47   6
   1  -3   3    0.02    0.73   2
  -1  -3  -3    0.68    1.32   7
  -1  -3  -3    1.47    1.03   2
   1   3   3   -0.88    1.02   7
  -1  -3  -3    0.41    1.15   5
   1   3   3   -0.53    0.98   2
  -1   3  -3    1.75    1.12   7
  -2  -3  -3  236.54    8.27   7
   2   3   3  226.11    7.46   2
  -2   3  -3  239.60    7.96   1
   2  -3   3  227.67    7.82   5
  -2  -3  -3  234.16    8.15   5
   2  -3   3  232.56    6.42   2
   2   3   3  218.12    7.46   8
  -2  -3  -3  228.67    8.28   6
   2   3   3  225.45    7.48   2
  -2   3  -3  224.27    7.53   2
  -2   3  -3  233.37    7.76   7
   2   3   3  235.96    7.92   7
  -2  -3  -3  224.00    7.75   2
   3  -3   3    3.03    1.30   3
  -3   3  -3    2.92    1.21   2
  -3  -3  -3    0.02    1.63   6
  -3   3  -3    1.66    1.38   1
   3   3   3    1.69    1.18   2
   3  -3   3    1.08    1.23   5
   3   3   3    2.65    1.30   2
   3   3   3    3.37    1.65   8
  -3   3  -3    3.12    1.39   7
  -3  -3  -3   -0.18    0.93   2
  -3  -3  -3   -1.27    1.20   7
   4  -3   3    6.37    1.69   3
  -4  -3  -3   15.46    2.65   6
  -4  -3  -3    6.34    1.90   7
   4   3   3   13.99    2.19   8
  -4  -3  -3    8.96    1.78   2
   4   3   3    7.75    1.62   2
  -4   3  -3    9.16    1.76   7
  -4   3  -3   11.45    2.00   1
   4  -3   3   13.23    1.80   3
   4  -3   3    8.88    1.77   5
   4   3   3    8.89    2.09   3
  -5  -3  -3   48.46    3.39   2
   5  -3   3   42.64    2.71   3
  -5   3  -3   45.29    3.07   7
  -5  -3  -3   42.48    3.90   6
   5  -3   3   43.16    3.12   5
  -5   3  -3   44.32    3.28   1
   5  -3   3   42.43    2.94   3
   5   3   3   41.62    2.66   2
  -5  -3  -3   38.22    3.35   7
   5   3   3   48.63    3.76   3
   5   3   3   41.74    3.34   8
  -6  -3  -3   97.49    5.23   7
   6   3   3   91.06    3.84   2
  -6  -3  -3   93.77    4.81   2
   6  -3   3   95.36    4.07   3
   6  -3   3   86.29    3.68   3
   6   3   3   92.16    5.15   3
  -6   3  -3   90.50    4.37   7
   6  -3   3   97.79    4.61   5
  -6   3  -3   98.51    4.68   1
  -6  -3  -3   89.16    5.49   6
   6   3   3   92.32    5.02   8
   7  -3   3   31.66    2.14   3
  -7  -3  -3   27.36    2.77   2
  -7  -3  -3   25.46    3.48   6
   7   3   3   33.15    3.30   3
   7  -3   3   27.49    1.82   3
  -7  -3  -3   27.35    3.13   7
  -7   3  -3   30.17    2.71   1
   7  -3   3   29.95    2.73   5
  -7   3  -3   28.00    2.56   7
   7   3   3   22.17    2.91   8
   8  -3   3    5.43    0.88   3
   8  -3   3    4.15    0.91   3
   8   3   3    5.00    2.03   8
  -8  -3  -3    2.78    2.16   6
   8   3   3    2.69    1.82   3
  -8   3  -3    4.50    1.68   1
   8  -3   3    3.68    1.50   5
  -8   3  -3    7.01    1.63   7
  -8  -3  -3    4.19    1.77   7
  -8  -3  -3    9.45    2.02   2
  -9   3  -3    2.21    1.30   7
  -9  -3  -3    1.61    1.50   7
   9  -3   3   -1.38    1.17   5
   9   3   3    0.69    1.58   3
  -9  -3  -3    1.35    2.17   6
   9   3   3    2.18    1.76   8
  -9   3  -3    0.94    1.47   1
  10   3   3    4.09    1.98   8
 -10  -3  -3    3.35    1.89   7
  10  -3   3    0.27    1.35   5
 -10   3  -3    2.95    1.48   7
 -10   3  -3    0.69    1.35   1
 -10  -3  -3    0.09    2.25   6
  11  -3   3   14.11    2.20   5
 -11  -3  -3   12.00    3.65   6
 -11   3  -3   13.88    2.16   7
  11   3   3    8.57    2.64   8
 -11   3  -3   10.09    1.95   1
 -11  -3  -3   10.65    2.61   7
  -8  -4   3    4.19    1.97   2
   8   4  -3   12.54    2.51   2
  -8   4   3    8.29    2.36   7
  -8  -4   3    5.98    2.90   6
  -8  -4   3   10.15    2.80   7
   8   4  -3   10.21    2.98   8
  -7   4   3    2.19    1.80   2
   7   4  -3    3.13    1.85   2
  -7  -4   3    3.60    1.75   2
   7   4  -3    0.85    2.34   8
  -7  -4   3    1.33    1.97   7
  -7  -4   3    1.27    2.54   6
  -7   4   3    2.26    1.72   7
  -6  -4   3   27.38    3.58   7
  -6   4   3   29.84    3.22   2
  -6   4   3   32.44    3.54   7
   6   4  -3   31.67    3.41   2
  -6  -4   3   29.74    4.02   6
  -6  -4   3   31.94    3.34   2
   6  -4  -3   36.65    3.76   5
  -5   4   3   12.44    2.32   2
  -5   4   3   10.19    2.42   7
  -5  -4   3   11.77    2.94   6
   5  -4  -3    8.64    1.65   2
   5  -4  -3   14.43    2.78   5
   5   4  -3   12.61    2.39   2
  -5   4   3   13.87    2.43   2
  -5  -4   3   14.43    2.43   2
   4   4  -3    6.14    2.01   7
  -4  -4   3    3.05    1.52   2
  -4  -4   3    4.18    2.17   6
  -4   4   3    1.58    1.61   7
   4  -4  -3    5.56    1.91   5
  -4   4   3    2.86    1.63   2
   4  -4  -3    2.52    1.35   2
  -4   4   3    4.60    1.82   2
   4   4  -3    4.44    1.90   2
   3  -4  -3    3.37    1.70   5
  -3  -4   3    5.24    1.65   2
  -3   4   3    6.32    1.95   2
  -3   4   3    9.59    2.13   2
   3  -4  -3    5.35    1.57   2
  -3  -4   3    5.84    2.01   5
  -3  -4   3    6.61    2.36   6
  -3   4   3    4.93    1.93   7
   3   4  -3    6.36    1.93   2
   3   4  -3    1.11    1.53   7
  -2   4   3    0.04    1.38   7
  -2  -4   3    0.10    1.71   6
  -2  -4   3    1.04    1.16   2
   2   4  -3    0.17    1.40   7
   2  -4  -3   -0.88    1.20   5
  -2   4   3   -0.81    1.29   2
  -2  -4   3   -1.09    1.39   5
   2   4  -3    1.37    1.45   2
   2  -4  -3   -0.09    1.12   2
  -2   4   3   -0.52    1.27   2
   1  -4  -3    5.99    1.88   5
  -1   4   3    2.10    1.69   7
  -1   4   3    6.46    1.89   2
  -1   4   3    7.41    1.98   2
   1   4  -3    3.77    1.69   7
   1   4  -3    3.31    1.77   2
   1  -4  -3    1.56    1.29   2
  -1  -4   3    6.78    1.96   5
  -1  -4   3    3.23    1.39   2
   0  -4  -3   11.67    2.42   5
   0   4   3    8.93    2.02   2
   0  -4   3    5.84    1.83   5
   0   4  -3    4.27    1.76   2
   0   4   3   10.43    2.38   7
   0   4  -3    7.33    1.96   7
   0  -4   3    5.33    1.53   2
   0   4   3    8.76    2.08   2
   0  -4  -3    6.48    1.71   2
  -1   4  -3   -0.81    1.35   7
   1  -4   3    1.90    1.19   2
  -1   4  -3    1.07    1.57   2
   1   4   3    0.65    1.37   2
   1  -4   3    0.31    1.28   5
  -1  -4  -3    1.68    1.76   7
   1   4   3    0.60    1.30   2
  -1  -4  -3   -0.66    1.08   2
   2   4   3    2.12    1.49   2
  -2  -4  -3   -0.93    1.83   6
   2  -4   3    1.41    1.05   2
  -2   4  -3    0.58    1.46   2
  -2  -4  -3   -1.15    1.50   7
   2   4   3    1.62    1.79   8
  -2  -4  -3    0.36    1.18   2
   2   4   3   -0.30    1.25   2
   2  -4   3   -0.50    1.46   3
  -2   4  -3    0.96    1.43   7
   2  -4   3    1.42    1.41   5
  -3  -4  -3    0.26    1.27   2
   3   4   3   -0.26    1.53   8
  -3   4  -3    1.37    1.55   7
  -3  -4  -3    2.34    1.71   7
   3  -4   3    2.43    1.81   3
   3  -4   3    2.05    1.57   5
   3   4   3    2.11    1.55   2
  -3  -4  -3    1.79    2.12   6
  -3   4  -3    1.01    1.53   2
  -4  -4  -3    0.86    1.40   2
   4  -4   3    0.66    1.57   5
   4   4   3    0.27    1.42   2
  -4   4  -3    2.94    1.66   7
   4   4   3    0.16    1.64   8
  -4  -4  -3    2.94    2.23   6
  -4  -4  -3    5.48    2.18   7
   4  -4   3    1.66    1.67   3
   5  -4   3   40.93    3.79   5
   5   4   3   41.10    3.24   2
  -5  -4  -3   34.07    4.31   6
  -5  -4  -3   38.97    4.08   7
   5   4   3   38.77    3.73   8
  -5   4  -3   39.75    3.64   7
   5  -4   3   43.13    3.34   3
  -5  -4  -3   32.27    3.49   2
   6  -4   3   -0.62    1.46   5
  -6  -4  -3    0.97    2.27   6
  -6  -4  -3    1.44    1.83   7
  -6  -4  -3    2.88    1.71   2
   6   4   3    0.89    1.63   8
  -6   4  -3   -1.31    1.30   7
   6   4   3   -0.44    1.24   2
  -7  -4  -3    4.78    2.76   6
   7  -4   3    4.82    2.08   5
  -7   4  -3    4.18    1.93   7
   7   4   3    3.97    1.99   8
  -7  -4  -3    3.87    2.11   7
  -7  -4  -3    5.78    2.13   2
 -14   0   4    7.74    1.89   7
 -13   0   4    4.95    1.53   1
 -13   0   4    5.40    1.62   7
  13   0  -4    4.52    1.70   8
  13   0  -4    4.56    1.57   3
 -12   0   4   21.28    2.20   1
  12   0  -4   23.95    2.54   8
 -12   0   4   20.96    2.29   7
  12   0  -4   25.51    2.43   3
  11   0  -4   29.44    2.68   8
 -11   0   4   25.77    2.37   7
  11   0  -4   28.37    2.50   4
 -11   0   4   27.08    2.87   6
 -11   0   4   32.31    2.45   1
  11   0  -4   26.55    2.44   3
  10   0  -4   55.28    3.25   4
 -10   0   4   59.71    3.07   1
 -10   0   4   63.77    3.84   6
  10   0  -4   59.53    3.34   8
  10   0  -4   55.88    3.22   3
 -10   0   4   57.23    3.23   7
  10   0  -4   55.14    3.00   3
  -9   0   4  194.43    6.88   6
   9   0  -4  192.56    6.45   3
  -9   0   4  196.42    6.11   1
  -9   0   4  190.09    6.40   7
   9   0  -4  209.45    6.37   3
   9   0  -4  202.46    4.97   2
   9   0  -4  208.96    6.60   8
   9   0  -4  196.64    6.77   4
  -9   0   4  202.81    6.18   2
  -8   0   4   -0.21    0.56   2
   8   0  -4   -0.68    0.73   3
   8   0  -4   -0.30    0.60   2
  -8   0   4    0.45    0.71   1
   8   0  -4    0.19    0.72   4
   8   0  -4    0.24    0.72   3
  -8   0   4   -0.11    0.66   7
  -8   0   4    0.62    0.65   1
   8   0  -4    0.36    0.86   8
  -8   0   4   -0.62    1.11   6
  -7   0   4  192.45    5.50   2
  -7   0   4  182.44    6.10   6
  -7   0   4  193.15    5.87   3
  -7   0   4  184.76    5.46   1
   7   0  -4  177.85    5.86   4
   7   0  -4  176.77    5.58   8
   7   0  -4  185.18    5.86   3
   7   0  -4  183.91    5.64   3
   7   0  -4  180.71    5.19   2
  -7   0   4  183.53    5.73   7
  -7   0   4  193.12    5.54   1
  -6   0   4   33.62    2.29   6
  -6   0   4   28.13    1.77   1
   6   0  -4   29.11    1.86   8
  -6   0   4   35.40    2.04   3
   6   0  -4   34.15    1.81   2
  -6   0   4   30.30    1.88   7
   6   0  -4   34.25    1.94   3
  -6   0   4   32.54    1.79   2
   6   0  -4   32.27    1.98   3
  -6   0   4   30.70    1.83   1
   6   0  -4   32.88    1.78   7
   5   0  -4   30.52    1.68   7
  -5   0   4   29.82    1.70   1
  -5   0   4   29.37    1.71   5
  -5   0   4   32.08    2.00   6
  -5   0   4   30.19    1.65   2
  -5   0   4   31.53    1.79   7
   5   0  -4   30.45    1.77   3
   5   0  -4   27.87    1.78   3
  -5   0   4   33.84    1.79   1
   5   0  -4   31.70    1.80   8
   5   0  -4   29.19    1.71   2
  -5   0   4   30.33    1.81   3
   4   0  -4  456.89   11.02   2
  -4   0   4  470.18   11.35   3
   4   0  -4  474.94   11.07   7
   4   0  -4  464.81   11.41   3
  -4   0   4  467.30   11.16   7
  -4   0   4  462.26   11.50   6
  -4   0   4  468.34   10.76   1
  -4   0   4  466.90   11.02   5
  -4   0   4  487.10   11.41   3
  -4   0   4  477.09   10.97   2
   3   0  -4  431.72    9.85   7
  -3   0   4  421.56    9.72   2
  -3   0   4  417.96    9.91   7
  -3   0   4  414.35   10.07   3
  -3   0   4  420.20    9.83   5
  -3   0   4  411.27   10.19   6
   3   0  -4  415.79    9.84   2
  -3   0   4  421.02   10.09   3
   3   0  -4  405.32   10.09   3
  -2   0   4    7.81    0.74   2
  -2   0   4    7.95    0.80   3
  -2   0   4    9.34    0.86   5
   2   0  -4    6.65    0.79   3
   2   0  -4    6.76    0.78   3
   2   0  -4    6.78    0.78   2
   2   0  -4    6.82    0.75   7
  -2   0   4    6.83    0.80   3
  -2   0   4    8.62    0.84   7
  -2   0   4    6.90    0.86   6
   1   0  -4   28.74    1.31   7
  -1   0   4   30.26    1.39   5
   1   0  -4   25.62    1.34   3
  -1   0   4   28.38    1.30   7
   1   0  -4   29.22    1.37   3
   1   0  -4   27.34    1.27   1
   1   0  -4   26.77    1.29   2
  -1   0   4   27.82    1.25   2
  -1   0   4   27.67    1.34   3
  -1   0   4   29.19    1.56   6
   0   0  -4    0.95    0.37   2
   0   0  -4    1.37    0.45   3
   0   0  -4    1.62    0.43   1
   0   0   4    0.33    0.38   3
   0   0   4    0.89    0.32   2
   0   0   4    1.22    0.40   5
   0   0  -4    0.97    0.46   4
   0   0  -4    0.56    0.41   3
   0   0   4    0.90    0.40   3
   0   0  -4    0.37    0.36   7
   0   0  -4    0.48    0.39   1
  -1   0  -4   11.21    0.72   1
   1   0   4   11.07    0.71   3
  -1   0  -4   12.48    1.06   4
  -1   0  -4   12.71    0.79   3
  -1   0  -4   11.47    0.69   7
  -1   0  -4   10.98    0.77   3
   1   0   4   10.98    1.01   4
   1   0   4   11.89    0.80   3
  -1   0  -4   11.25    0.78   1
  -2   0  -4    5.80    0.41   1
  -2   0  -4    5.44    0.48   1
  -2   0  -4    6.05    0.42   7
  -2   0  -4    5.55    0.52   3
   2   0   4    5.20    0.34   3
  -2   0  -4    5.97    0.91   4
   2   0   4    7.61    0.94   4
   3   0   4  549.85   14.48   4
  -3   0  -4  564.63   14.47   4
   4   0   4  151.82    5.40   4
   5   0   4   43.30    2.68   4
   6   0   4   94.29    4.38   4
  -6   0  -4   97.70    4.10   6
   6   0   4   96.92    2.63   5
   7   0   4   53.42    1.83   5
  -7   0  -4   44.75    1.75   1
  -7   0  -4   52.69    3.17   6
  -7   0  -4   47.95    1.55   1
   7   0   4   51.38    3.28   4
  -7   0  -4   49.87    1.63   7
  -8   0  -4  206.21    7.05   6
  -8   0  -4  186.96    4.66   1
   8   0   4  193.37    4.92   5
   8   0   4  188.88    7.44   4
  -8   0  -4  187.59    4.86   1
  -8   0  -4  190.01    4.93   7
  -9   0  -4   12.05    1.00   1
  -9   0  -4   12.60    2.20   6
  -9   0  -4   10.13    1.10   1
  -9   0  -4   11.25    1.18   7
   9   0   4   14.59    2.27   4
 -10   0  -4   91.55    3.16   1
  10   0   4   91.08    5.26   4
 -10   0  -4   85.91    3.01   1
 -10   0  -4   98.25    5.14   6
 -10   0  -4   85.52    3.26   7
 -11   0  -4   92.34    3.29   1
 -11   0  -4   91.99    3.37   1
 -11   0  -4   94.06    5.21   6
 -11   0  -4   95.41    3.59   7
  11   0   4   86.37    5.38   4
 -12   0  -4   18.48    1.65   1
 -12   0  -4   18.49    1.58   1
 -12   0  -4   14.76    1.57   7
 -13   0  -4    4.52    1.22   1
 -13   0  -4    6.44    1.38   7
 -13   0  -4    6.25    1.25   1
 -14   1   4   -0.65    1.05   7
  14   1  -4    1.36    1.62   8
 -14  -1   4    3.20    2.33   6
 -14  -1   4    2.19    1.48   7
 -13  -1   4   24.22    3.44   6
 -13   1   4   18.36    2.25   7
 -13  -1   4   23.61    2.74   7
 -13   1   4   20.08    2.27   1
  13   1  -4   21.87    2.69   3
  13   1  -4   21.60    2.98   8
 -12   1   4    8.70    1.70   7
 -12   1   4    6.61    1.52   1
 -12  -1   4    7.28    2.51   6
  12   1  -4    5.31    1.86   3
  12   1  -4   11.60    2.31   8
 -12  -1   4    6.69    1.83   7
  12   1  -4    8.95    2.31   4
  12  -1  -4    7.47    1.56   3
  11   1  -4   81.58    4.63   8
 -11   1   4   77.81    3.78   1
 -11  -1   4   69.13    4.81   6
  11   1  -4   79.39    4.79   4
 -11   1   4   74.26    3.85   7
  11  -1  -4   83.82    3.87   3
  11  -1  -4   85.20    3.97   3
  11   1  -4   74.62    4.27   3
 -11  -1   4   78.34    4.23   7
  10  -1  -4  217.36    7.00   3
  10  -1  -4  224.15    7.17   3
 -10  -1   4  221.64    7.63   7
 -10  -1   4  232.25    8.77   6
  10   1  -4  225.06    7.96   8
 -10   1   4  215.81    6.88   1
  10   1  -4  218.26    8.53   4
 -10  -1   4  229.37    7.34   1
 -10   1   4  215.15    7.12   7
 -10  -1   4  236.48    7.31   2
  10   1  -4  222.63    7.87   3
  -9  -1   4   47.26    2.91   1
   9  -1  -4   49.05    2.79   3
  -9   1   4   51.34    2.82   1
  -9   1   4   51.94    2.78   2
   9   1  -4   44.41    3.21   3
  -9  -1   4   48.16    3.08   7
  -9  -1   4   47.77    2.79   2
   9  -1  -4   47.38    2.87   3
   9   1  -4   53.67    3.49   8
  -9   1   4   51.56    2.86   7
   9   1  -4   51.85    2.52   2
  -9  -1   4   43.20    3.61   6
  -8  -1   4   23.69    2.03   1
   8  -1  -4   21.50    1.32   2
   8  -1  -4   24.13    2.00   3
  -8   1   4   27.30    1.91   6
   8   1  -4   24.49    2.04   3
  -8   1   4   21.89    1.84   2
  -8  -1   4   24.21    2.73   6
  -8   1   4   25.60    1.98   1
  -8   1   4   23.57    1.86   1
  -8  -1   4   19.84    1.84   2
   8   1  -4   24.58    2.28   3
   8   1  -4   23.76    1.89   2
   8  -1  -4   24.82    1.58   4
   8   1  -4   23.43    2.44   8
  -8  -1   4   23.14    2.15   7
  -8   1   4   26.84    2.02   7
   8  -1  -4   22.11    1.84   3
  -7  -1   4   45.18    2.67   7
  -7   1   4   47.13    2.50   1
  -7   1   4   41.98    2.38   2
   7   1  -4   53.95    2.63   2
   7  -1  -4   46.48    2.09   2
   7   1  -4   46.20    2.91   3
  -7  -1   4   46.93    2.54   2
   7   1  -4   47.01    2.65   3
   7  -1  -4   43.86    1.95   4
  -7   1   4   45.47    2.44   7
   7   1  -4   50.93    3.13   8
   7   1  -4   48.86    2.46   7
   7  -1  -4   45.89    2.66   3
  -7   1   4   51.07    2.52   1
  -7  -1   4   43.15    2.54   1
  -7  -1   4   50.10    3.42   6
  -7   1   4   49.21    2.20   6
  -7  -1   4   45.93    2.53   5
   7  -1  -4   44.98    2.45   3
   6  -1  -4  426.76   11.04   3
  -6   1   4  427.52   10.70   7
  -6   1   4  426.67   10.45   1
  -6  -1   4  406.56   11.03   7
  -6   1   4  417.00   10.51   2
   6  -1  -4  419.66   10.20   2
  -6  -1   4  432.10   11.38   3
   6   1  -4  419.40   10.71   2
  -6   1   4  418.91   10.90   3
  -6   1   4  421.87   10.19   6
  -6  -1   4  428.78   11.93   6
   6   1  -4  434.36   11.53   3
   6   1  -4  418.46   11.01   3
  -6  -1   4  421.66   10.77   5
  -6   1   4  428.14   10.39   1
  -6  -1   4  421.36   10.70   2
   6   1  -4  434.32   10.66   7
   6  -1  -4  424.82   10.83   3
  -6  -1   4  428.14   10.62   1
   5   1  -4  173.21    5.17   7
  -5   1   4  167.78    5.04   1
  -5   1   4  168.54    4.65   6
  -5  -1   4  163.87    5.10   2
  -5  -1   4  174.35    6.04   6
  -5  -1   4  160.93    5.51   3
  -5   1   4  174.83    5.08   1
   5  -1  -4  167.06    5.38   3
  -5   1   4  164.13    5.00   2
   5  -1  -4  173.08    5.14   7
  -5   1   4  170.90    5.33   3
   5  -1  -4  167.76    5.22   3
   5   1  -4  175.27    5.73   3
  -5  -1   4  164.61    5.41   7
  -5   1   4  175.89    5.19   7
  -5  -1   4  165.15    5.49   3
  -5  -1   4  175.39    5.32   5
   5   1  -4  162.12    5.25   2
  -5  -1   4  164.81    5.17   1
   5  -1  -4  165.39    4.89   2
  -4  -1   4  313.06    8.22   5
   4  -1  -4  327.61    8.22   7
  -4   1   4  310.06    8.37   3
  -4  -1   4  322.36    8.47   7
  -4  -1   4  315.31    8.13   2
  -4  -1   4  305.27    8.54   3
  -4  -1   4  316.87    8.09   1
  -4  -1   4  313.80    8.60   3
   4  -1  -4  313.18    8.47   3
  -4   1   4  325.86    8.48   3
   4  -1  -4  318.87    7.98   2
   4   1  -4  315.13    8.72   3
  -4   1   4  312.16    7.98   1
   4  -1  -4  309.53    8.28   3
  -4  -1   4  315.90    9.00   6
  -4   1   4  311.25    8.10   7
  -4   1   4  321.42    8.07   2
   4   1  -4  314.24    8.18   7
   4   1  -4  309.94    8.26   2
  -3  -1   4  214.93    5.98   2
  -3   1   4  221.72    6.12   7
  -3  -1   4  224.15    6.42   3
   3   1  -4  218.96    6.21   2
  -3   1   4  217.82    6.34   3
  -3  -1   4  224.66    6.44   3
  -3   1   4  223.23    6.02   2
   3   1  -4  232.55    6.18   7
  -3   1   4  226.40    6.02   1
   3  -1  -4  226.82    6.16   7
  -3  -1   4  217.50    6.68   6
  -3  -1   4  223.15    6.17   5
   3  -1  -4  219.73    6.22   3
   3  -1  -4  234.60    6.04   2
  -3   1   4  223.07    6.33   3
  -3  -1   4  224.19    6.28   7
   3   1  -4  219.33    6.51   3
   3   1  -4  226.11    6.38   3
   2   1  -4  169.09    4.88   1
   2   1  -4  174.69    5.20   3
  -2  -1   4  163.90    5.15   3
   2  -1  -4  177.28    5.19   3
   2   1  -4  170.79    4.94   7
   2  -1  -4  174.90    5.03   7
   2   1  -4  167.28    5.24   3
  -2   1   4  175.23    5.26   3
  -2   1   4  174.20    4.46   4
   2  -1  -4  180.72    4.95   2
  -2   1   4  170.69    4.86   2
   2  -1  -4  170.87    5.26   3
  -2  -1   4  179.06    4.85   2
  -2   1   4  178.76    5.19   3
  -2  -1   4  170.38    5.37   6
  -2  -1   4  181.94    5.08   7
   2   1  -4  172.79    4.99   2
  -2   1   4  174.99    4.99   7
  -2  -1   4  172.28    4.98   5
   1   1  -4  285.29    7.31   2
  -1  -1   4  297.22    7.36   7
  -1  -1   4  288.68    7.32   5
   1   1  -4  283.63    7.35   7
  -1   1   4  295.39    7.26   2
   1  -1  -4  285.73    7.68   3
   1   1  -4  292.51    7.16   1
  -1   1   4  284.95    7.64   3
  -1   1   4  295.13    7.49   4
   1  -1  -4  296.49    7.40   2
   1  -1  -4  291.99    7.76   3
  -1  -1   4  292.49    7.55   3
  -1  -1   4  286.78    7.14   2
   1   1  -4  301.16    7.74   3
   1  -1  -4  295.30    7.30   1
  -1   1   4  294.10    7.48   7
  -1   1   4  297.69    6.58   8
   1  -1  -4  290.45    7.45   7
  -1  -1   4  292.12    7.79   6
   1   1  -4  297.12    7.64   3
   0  -1  -4   32.01    1.89   3
   0  -1  -4   29.93    1.81   3
   0   1   4   27.86    1.60   7
   0  -1  -4   24.61    1.61   1
   0   1   4   29.60    1.49   2
   0  -1  -4   28.37    1.60   2
   0  -1  -4   28.29    1.64   7
   0  -1   4   25.70    1.67   6
   0  -1   4   26.92    1.28   2
   0   1  -4   24.56    1.42   1
   0   1  -4   32.15    1.51   2
   0  -1   4   30.00    1.55   3
   0   1   4   30.00    1.37   8
   0   1  -4   31.96    1.56   7
   0   1  -4   27.66    1.46   1
   0   1  -4   29.37    1.65   3
   0   1   4   29.57    1.75   3
   0   1   4   30.43    1.60   4
   0  -1   4   27.12    1.46   5
  -1  -1  -4  615.25   13.72   1
   1   1   4  605.22   13.86   8
   1   1   4  608.08   13.66   2
  -1   1  -4  630.20   14.26   3
   1  -1   4  608.34   13.97   3
  -1   1  -4  624.93   13.57   2
  -1  -1  -4  626.11   14.13   7
   1   1   4  622.54   15.51   4
  -1   1  -4  609.32   13.33   1
   1  -1   4  618.06   14.41   6
  -1   1  -4  616.47   13.82   7
   1  -1   4  620.68   13.71   5
  -1  -1  -4  622.23   14.08   2
  -1  -1  -4  624.05   13.87   1
  -1   1  -4  608.20   13.45   1
  -1  -1  -4  596.00   14.54   3
  -1  -1  -4  628.04   14.62   3
   1   1   4  620.01   14.42   3
  -2  -1  -4  200.62    5.38   7
  -2   1  -4  196.80    4.92   7
  -2  -1  -4  204.65    5.44   1
   2   1   4  193.09    6.16   4
   2   1   4  197.39    5.49   8
  -2  -1  -4  190.66    5.26   1
   2  -1   4  194.56    4.96   5
  -2   1  -4  191.95    4.87   1
   2  -1   4  190.05    4.80   3
   2   1   4  189.46    5.42   3
   2   1   4  191.57    4.74   2
  -2  -1  -4  201.35    5.29   2
  -2   1  -4  193.62    4.74   1
  -3   1  -4  508.61   11.06   1
   3   1   4  509.08   13.72   4
  -3   1  -4  508.74   11.28   7
  -3  -1  -4  502.98   11.90   5
  -3  -1  -4  529.91   11.81   2
  -3   1  -4  491.87   10.91   1
  -3  -1  -4  513.54   11.99   7
  -3  -1  -4  505.26   11.80   1
   3   1   4  506.21   12.12   3
   3   1   4  515.50   12.39   8
   3  -1   4  531.67   11.39   5
  -3  -1  -4  510.04   11.73   1
  -4  -1  -4   60.53    2.56   1
  -4  -1  -4   62.12    3.28   6
  -4   1  -4   64.86    1.79   7
  -4  -1  -4   58.43    2.28   2
  -4   1  -4   63.58    1.75   7
  -4  -1  -4   65.37    2.65   1
  -4   1  -4   61.75    1.82   1
   4   1   4   61.79    2.98   8
   4   1   4   63.21    2.48   3
   4   1   4   62.57    3.27   4
   4  -1   4   64.12    2.05   5
  -4  -1  -4   57.83    2.50   7
  -4   1  -4   61.91    1.88   1
  -4  -1  -4   62.77    2.44   5
   5   1   4   78.96    2.78   3
  -5  -1  -4   74.23    3.80   6
  -5  -1  -4   83.24    2.85   5
   5   1   4   81.24    3.66   8
   5   1   4   79.74    2.84   3
  -5  -1  -4   82.36    3.10   7
  -5   1  -4   83.10    2.17   1
  -5  -1  -4   78.47    3.04   1
  -5   1  -4   76.93    2.18   1
   5  -1   4   84.08    2.43   5
   5   1   4   80.38    4.03   4
  -5  -1  -4   82.21    3.04   1
  -5  -1  -4   83.30    2.73   2
  -6  -1  -4   81.99    4.17   6
   6   1   4   77.89    4.15   4
   6   1   4   81.57    2.66   3
   6   1   4   78.36    3.80   8
   6   1   4   81.89    2.76   3
  -6  -1  -4   83.89    3.26   1
  -6  -1  -4   77.17    3.13   7
  -6   1  -4   77.39    2.11   1
  -6  -1  -4   77.50    3.06   1
  -7  -1  -4   26.74    2.77   6
  -7   1  -4   22.64    1.23   1
   7   1   4   22.82    2.34   8
  -7  -1  -4   27.27    2.06   1
   7   1   4   25.35    2.58   4
   7  -1   4   27.21    2.39   4
   7   1   4   28.55    1.42   3
  -7   1  -4   25.38    1.08   1
   7   1   4   25.77    1.27   3
  -7  -1  -4   26.86    1.88   1
  -7   1  -4   24.60    2.06   6
  -7  -1  -4   29.72    1.99   7
  -8  -1  -4   54.12    2.76   1
   8   1   4   43.16    3.45   4
  -8  -1  -4   56.92    2.90   1
  -8   1  -4   52.74    1.95   1
   8   1   4   50.94    3.38   8
  -8  -1  -4   50.21    2.75   7
  -8  -1  -4   57.74    3.96   6
   8  -1   4   60.35    3.76   4
  -8   1  -4   56.49    1.81   7
  -8   1  -4   54.04    1.81   1
  -9  -1  -4   43.52    2.67   7
   9  -1   4   47.67    3.57   4
  -9   1  -4   41.55    1.75   1
  -9   1  -4   40.60    1.68   1
   9   1   4   36.86    3.37   4
  -9  -1  -4   44.02    2.56   1
  -9  -1  -4   44.22    3.82   6
   9   1   4   38.17    3.25   8
  -9  -1  -4   39.69    2.59   1
  -9   1  -4   43.08    1.73   7
 -10  -1  -4   53.07    4.30   6
 -10  -1  -4   51.59    2.93   1
 -10   1  -4   47.34    2.00   1
 -10  -1  -4   49.47    2.99   1
  10   1   4   44.44    3.62   8
  10   1   4   45.14    3.88   4
 -10   1  -4   52.17    2.06   1
 -10  -1  -4   51.58    3.01   7
  10  -1   4   53.36    3.96   4
 -10   1  -4   53.08    2.11   7
 -11   1  -4    5.84    0.92   1
 -11   1  -4    7.15    1.00   1
 -11  -1  -4    7.17    1.60   7
 -11  -1  -4    7.31    2.48   6
 -11  -1  -4    7.59    1.54   1
 -11  -1  -4    6.99    1.53   1
  11  -1   4    5.30    1.82   4
 -11   1  -4    8.25    1.02   7
 -12   1  -4   51.68    2.42   7
 -12  -1  -4   58.69    4.85   6
 -12  -1  -4   48.56    3.22   1
 -12  -1  -4   57.88    3.50   7
 -12   1  -4   50.38    2.32   1
 -12   1  -4   51.68    2.36   1
 -13   1  -4    4.26    1.04   1
 -13   1  -4    4.71    1.09   1
 -13  -1  -4    2.33    2.18   6
 -13   1  -4    5.16    1.12   7
 -13  -1  -4    4.37    1.59   7
 -13  -1  -4    5.86    1.81   1
 -13   2   4    9.93    1.98   7
 -13  -2   4    5.79    2.07   7
  13   2  -4    8.29    2.61   8
 -13  -2   4   14.42    3.40   6
 -12   2   4    1.05    1.19   7
  12   2  -4    0.98    1.87   3
  12   2  -4    1.74    1.61   8
 -12  -2   4    0.18    2.18   6
 -12  -2   4    2.02    1.59   7
  11   2  -4   43.50    3.96   8
 -11  -2   4   48.14    3.77   7
  11  -2  -4   44.51    2.97   3
 -11  -2   4   47.37    4.62   6
 -11   2   4   48.29    3.26   1
 -11   2   4   46.58    3.27   7
 -11  -2   4   49.18    3.47   2
  11   2  -4   42.34    3.82   3
 -10  -2   4    8.36    1.76   2
 -10   2   4    6.12    1.54   7
  10  -2  -4    5.57    1.40   3
  10   2  -4    5.61    1.36   2
  10   2  -4    2.19    1.77   8
 -10  -2   4    5.44    1.78   7
 -10   2   4    7.84    1.66   1
 -10  -2   4    5.04    2.34   6
  10   2  -4    5.64    1.96   3
  -9  -2   4    2.85    1.29   2
   9   2  -4    2.75    1.69   3
  -9  -2   4    4.51    2.12   6
  -9   2   4    2.61    1.27   1
  -9   2   4    2.71    1.18   7
  -9  -2   4    0.31    1.17   7
   9  -2  -4    5.07    1.30   3
   9   2  -4    1.26    1.55   8
   9   2  -4    5.79    1.47   2
  -8  -2   4   23.75    2.58   7
  -8   2   4   26.78    2.34   1
   8   2  -4   26.33    2.84   3
  -8  -2   4   28.60    2.44   2
  -8  -2   4   27.17    3.26   6
  -8   2   4   28.03    2.31   2
   8   2  -4   23.15    2.87   8
  -8   2   4   27.11    2.23   7
   8  -2  -4   27.63    2.19   3
   8   2  -4   26.09    2.32   2
  -7   2   4    8.81    1.47   7
  -7  -2   4    6.52    1.40   5
   7  -2  -4    9.96    1.50   3
  -7   2   4    9.13    1.47   2
  -7  -2   4    9.16    1.79   7
  -7  -2   4    7.85    1.46   2
  -7  -2   4    6.95    2.20   6
   7  -2  -4    6.93    1.07   2
   7   2  -4    9.61    1.99   3
   7   2  -4    7.65    1.50   2
  -7   2   4    5.98    1.42   1
  -6  -2   4   14.58    1.94   7
  -6   2   4   14.33    1.70   7
  -6   2   4   13.79    1.68   2
  -6   2   4   14.46    1.75   1
   6   2  -4   13.17    1.81   2
  -6  -2   4   16.95    2.52   6
  -6  -2   4   17.66    1.96   5
   6   2  -4   17.91    2.26   3
   6  -2  -4   17.32    1.79   3
   6  -2  -4   13.78    1.93   3
   6   2  -4   12.31    1.66   7
   6  -2  -4   15.44    1.45   2
  -6  -2   4   19.10    1.89   2
   5   2  -4   36.38    2.87   3
  -5  -2   4   42.76    2.64   5
  -5   2   4   40.20    2.61   1
  -5   2   4   40.55    2.52   7
  -5  -2   4   39.08    3.14   6
   5  -2  -4   39.86    2.56   3
   5   2  -4   35.87    2.55   2
   5  -2  -4   38.53    2.20   2
   5  -2  -4   36.13    2.78   3
  -5  -2   4   37.10    2.47   2
   5  -2  -4   41.52    2.68   7
  -5   2   4   38.72    2.47   2
   5   2  -4   40.85    2.59   7
  -5  -2   4   33.97    2.60   7
  -4  -2   4  526.74   13.79   5
  -4   2   4  534.04   13.48   2
  -4  -2   4  517.03   13.55   2
  -4  -2   4  550.75   14.19   7
   4  -2  -4  543.15   14.47   3
  -4   2   4  530.22   13.77   7
   4  -2  -4  551.44   13.31   2
  -4  -2   4  561.49   14.62   3
  -4   2   4  560.12   14.28   3
   4   2  -4  571.37   14.85   3
  -4   2   4  537.68   13.45   1
  -4  -2   4  551.97   14.82   6
   4   2  -4  569.93   14.52   3
   4  -2  -4  533.46   13.98   3
   4   2  -4  529.84   13.80   2
   4  -2  -4  561.47   13.93   7
   3  -2  -4  145.74    5.27   3
   3  -2  -4  137.72    4.76   2
   3   2  -4  130.45    5.44   3
   3   2  -4  134.19    5.07   7
   3   2  -4  156.02    5.59   3
   3   2  -4  142.74    5.17   2
  -3  -2   4  146.38    5.57   3
  -3  -2   4  151.86    5.69   6
  -3   2   4  156.43    5.21   1
  -3   2   4  136.47    4.85   2
  -3  -2   4  147.34    5.34   7
  -3   2   4  144.25    5.13   7
   3   2  -4  156.44    5.44   1
  -3  -2   4  149.86    5.23   5
  -3   2   4  153.02    5.23   7
  -3   2   4  146.44    5.43   3
  -3  -2   4  145.01    5.01   2
   3  -2  -4  144.83    5.22   7
   2   2  -4    8.62    1.47   1
  -2   2   4   12.62    1.43   2
  -2   2   4   10.00    1.45   1
   2   2  -4   10.23    1.55   3
  -2  -2   4   11.29    1.67   6
   2  -2  -4    9.51    1.47   3
  -2  -2   4   10.59    1.40   5
   2  -2  -4   10.50    1.22   6
   2   2  -4    9.02    1.34   2
   2  -2  -4   11.32    1.59   7
  -2  -2   4   11.30    1.33   2
  -2  -2   4    9.53    1.43   7
  -2   2   4    9.70    1.00   8
   2  -2  -4    8.39    1.22   2
  -2   2   4   10.99    1.61   3
   2   2  -4    9.13    1.40   7
   2  -2  -4    9.33    1.62   3
   2   2  -4    9.93    1.58   3
  -2   2   4    8.99    1.34   7
   1  -2  -4   86.01    4.15   3
   1   2  -4   79.55    3.49   7
   1   2  -4   79.86    3.88   3
  -1   2   4   82.80    3.40   2
  -1   2   4   82.60    3.59   7
  -1  -2   4   78.99    3.62   6
   1  -2  -4   81.18    3.46   2
  -1  -2   4   87.61    3.63   5
  -1  -2   4   80.86    3.51   7
   1  -2  -4   85.12    3.44   6
  -1  -2   4   83.94    3.79   3
   1  -2  -4   82.60    3.74   7
   1   2  -4   83.83    3.67   1
  -1   2   4   88.98    2.95   8
   1  -2  -4   80.45    3.80   3
  -1   2   4   87.85    3.96   3
  -1  -2   4   84.33    3.26   2
   1   2  -4   87.04    3.60   2
   0  -2  -4  178.70    6.13   3
   0  -2  -4  170.48    5.58   2
   0  -2  -4  178.53    5.80   1
   0  -2  -4  178.71    5.90   7
   0   2  -4  168.64    6.02   3
   0   2   4  168.46    5.98   3
   0   2  -4  170.63    5.58   1
   0   2   4  170.85    5.04   8
   0  -2   4  169.29    5.53   6
   0  -2   4  168.42    5.55   5
   0  -2   4  175.25    5.40   7
   0   2   4  170.96    5.37   2
   0   2   4  170.08    5.69   7
   0  -2   4  166.53    5.69   3
   0  -2   4  167.61    5.04   2
   0   2  -4  169.37    5.50   7
   0   2  -4  169.59    5.48   2
   0   2  -4  167.65    5.53   1
   0  -2  -4  180.52    6.32   3
   0  -2  -4  172.46    5.71   6
  -1  -2  -4  527.63   13.93   6
  -1   2  -4  554.54   13.17   1
  -1  -2  -4  528.92   13.47   2
  -1  -2  -4  548.22   13.49   1
  -1  -2  -4  534.67   13.75   5
   1  -2   4  542.15   12.36   2
  -1   2  -4  563.75   13.17   1
   1   2   4  538.22   14.06   3
   1  -2   4  537.78   13.56   3
   1  -2   4  536.34   13.26   6
   1  -2   4  538.46   13.31   5
  -1   2  -4  521.47   13.25   7
   1   2   4  538.15   12.97   8
  -1  -2  -4  530.66   13.79   7
  -1  -2  -4  551.20   14.41   3
  -1   2  -4  559.20   14.04   3
   1   2   4  541.69   13.59   7
   1   2   4  545.91   13.12   2
  -1   2  -4  547.95   13.22   2
  -2  -2  -4  873.36   20.03   2
  -2  -2  -4  828.88   20.28   7
  -2  -2  -4  855.63   19.81   1
   2  -2   4  856.19   19.92   3
   2  -2   4  853.52   19.69   6
   2   2   4  831.15   19.59   8
  -2  -2  -4  892.69   20.22   5
   2   2   4  831.37   19.37   2
  -2   2  -4  857.92   19.25   1
  -2   2  -4  823.98   19.63   7
   2  -2   4  860.96   19.58   5
  -2   2  -4  845.32   19.47   2
   2   2   4  897.94   20.09   7
   2   2   4  839.69   20.67   3
  -2   2  -4  875.64   19.31   1
  -2  -2  -4  803.69   20.73   6
  -3   2  -4  186.33    5.75   7
   3   2   4  198.53    6.23   8
  -3  -2  -4  177.43    6.25   1
  -3  -2  -4  187.46    6.32   1
   3   2   4  189.07    5.56   2
  -3   2  -4  191.18    5.65   2
   3   2   4  191.94    5.99   7
  -3  -2  -4  199.95    6.16   2
   3  -2   4  196.33    5.70   3
  -3  -2  -4  186.20    6.37   7
   3  -2   4  187.17    5.83   5
   3  -2   4  183.73    5.63   3
  -3   2  -4  192.57    5.83   1
   3   2   4  197.99    6.58   3
  -3  -2  -4  196.91    6.38   5
  -3  -2  -4  176.65    6.67   6
  -3   2  -4  194.36    5.84   1
  -4  -2  -4  109.33    4.33   2
  -4   2  -4  114.00    4.03   7
   4  -2   4  111.96    3.62   3
  -4   2  -4  120.63    4.16   1
  -4   2  -4  113.67    4.13   1
   4   2   4  109.10    4.59   8
  -4  -2  -4  109.47    4.61   7
  -4  -2  -4  115.80    4.62   1
  -4  -2  -4  119.05    5.30   6
   4  -2   4  111.34    4.09   5
   4  -2   4  113.78    3.72   3
   4   2   4  115.95    5.35   4
   4   2   4  110.32    4.64   3
   4   2   4  112.33    3.70   2
  -5   2  -4    8.97    1.21   7
   5  -2   4    7.31    0.82   3
   5  -2   4    7.91    0.78   3
  -5   2  -4    8.40    1.31   1
   5   2   4    8.96    0.97   2
   5   2   4    9.74    1.61   3
  -5  -2  -4    6.75    1.79   6
   5   2   4    6.81    1.65   8
  -5   2  -4    8.87    1.26   1
   5   2   4    8.77    1.81   4
  -5  -2  -4    6.97    1.57   7
   5  -2   4    8.57    1.24   5
  -5  -2  -4    8.15    1.55   1
  -5  -2  -4    5.45    1.22   2
  -6   2  -4   40.89    2.16   7
  -6  -2  -4   39.68    2.90   1
   6   2   4   39.46    2.69   3
  -6   2  -4   43.98    2.44   1
  -6   2  -4   41.18    2.33   1
  -6  -2  -4   35.46    3.39   6
   6  -2   4   41.84    2.35   5
   6   2   4   38.17    3.08   8
  -6  -2  -4   39.79    2.95   7
  -6  -2  -4   39.56    2.63   2
   6   2   4   36.64    3.31   4
   6   2   4   39.93    2.77   3
   7   2   4  286.42   10.73   4
  -7   2  -4  294.07    7.84   7
   7   2   4  298.36    8.86   3
   7   2   4  305.87    8.69   3
  -7   2  -4  296.39    7.87   1
  -7   2  -4  296.28    7.87   7
  -7  -2  -4  286.33   10.42   6
  -7  -2  -4  292.79    9.00   1
  -7   2  -4  303.38    7.96   1
  -7  -2  -4  274.32    9.01   7
   7  -2   4  295.72    7.98   5
   7   2   4  280.31    9.46   8
   8   2   4   15.96    2.65   4
  -8   2  -4   12.55    1.52   1
   8   2   4   17.67    1.77   3
   8   2   4   11.24    2.26   8
  -8  -2  -4   10.53    2.68   6
  -8  -2  -4   17.13    2.14   1
   8   2   4   14.45    1.81   3
  -8   2  -4   18.13    1.69   1
   8  -2   4   15.68    1.57   5
  -8   2  -4   14.58    1.43   7
  -8  -2  -4   14.95    2.13   7
  -9  -2  -4    1.52    1.93   6
  -9  -2  -4    4.93    1.60   1
  -9   2  -4    1.90    1.02   1
   9  -2   4    4.64    1.15   5
  -9   2  -4    2.84    0.94   7
   9   2   4    4.67    1.17   3
   9   2   4    5.11    1.33   3
  -9   2  -4    7.02    1.27   1
  -9  -2  -4    3.64    1.56   7
   9   2   4    4.58    1.77   8
  10   2   4    0.50    0.88   3
 -10  -2  -4   -0.23    1.19   7
  10   2   4   -1.70    1.19   8
 -10   2  -4    1.86    0.97   1
  10   2   4    0.19    1.03   3
 -10  -2  -4   -0.58    1.39   1
 -10  -2  -4    1.59    2.13   6
  10  -2   4    1.45    0.97   5
 -10   2  -4   -0.91    0.89   1
 -10   2  -4    1.35    0.86   7
 -11   2  -4    3.63    1.14   1
  11  -2   4    2.50    1.13   5
  11   2   4    2.72    0.93   3
 -11  -2  -4    1.44    2.23   6
 -11   2  -4    2.62    1.07   7
 -11  -2  -4    6.47    1.90   1
 -11  -2  -4    2.13    1.57   7
  11   2   4    0.33    1.50   8
 -11   2  -4    3.27    1.20   1
  12   2   4   30.90    3.78   8
 -12  -2  -4   27.64    3.15   1
 -12   2  -4   28.85    2.22   7
 -12  -2  -4   22.81    2.92   7
 -12   2  -4   29.53    2.40   1
 -12  -2  -4   29.99    4.26   6
 -12   2  -4   30.88    2.26   1
 -11   3   4    6.02    1.86   7
 -11  -3   4    3.24    1.96   7
  11   3  -4    2.62    2.08   8
 -11  -3   4    4.19    2.65   6
 -11  -3   4    5.25    1.96   2
  10   3  -4   19.79    3.29   8
 -10   3   4   18.42    2.62   7
 -10  -3   4   19.00    3.63   6
  10   3  -4   18.47    2.31   2
  10  -3  -4   23.65    2.48   3
 -10  -3   4   18.93    3.05   7
 -10  -3   4   23.34    2.95   2
   9  -3  -4   21.18    2.39   3
  -9   3   4   19.03    2.52   7
   9   3  -4   21.23    3.30   8
  -9  -3   4   20.07    2.71   2
  -9  -3   4   23.21    3.07   7
  -9  -3   4   21.19    3.61   6
   9   3  -4   20.24    2.47   2
   8   3  -4    0.11    1.33   2
  -8   3   4    1.43    1.37   2
  -8  -3   4    2.65    1.75   7
   8  -3  -4    2.07    1.38   3
  -8   3   4   -0.11    1.14   7
  -8  -3   4    1.94    1.39   2
  -8  -3   4    2.25    2.22   6
   8   3  -4    1.43    2.09   8
  -7  -3   4   10.55    2.02   2
   7  -3  -4    6.75    1.70   3
  -7  -3   4   11.52    2.76   6
   7   3  -4   10.65    2.01   2
   7  -3  -4   10.42    1.39   2
  -7   3   4   11.48    2.05   7
  -7   3   4   11.00    1.94   2
  -7   3   4    8.70    1.87   7
  -7  -3   4    9.32    2.24   7
  -6   3   4   22.47    2.37   2
   6  -3  -4   22.20    2.43   3
   6  -3  -4   24.34    2.03   2
  -6   3   4   17.70    2.35   7
  -6   3   4   20.88    2.47   7
  -6  -3   4   17.51    2.27   2
   6   3  -4   23.53    2.55   2
  -6  -3   4   25.38    2.95   7
  -6  -3   4   26.03    3.34   6
   5  -3  -4    3.05    1.42   3
   5   3  -4    3.65    1.46   7
  -5  -3   4    1.94    1.31   7
  -5   3   4    3.90    1.43   7
   5   3  -4    3.52    1.42   2
  -5   3   4    2.60    1.35   2
   5  -3  -4    4.53    1.20   2
  -5  -3   4    5.93    1.67   5
  -5  -3   4    0.82    1.79   6
  -5  -3   4    1.87    1.13   2
  -4  -3   4    3.37    1.30   2
  -4  -3   4    7.78    2.14   6
   4  -3  -4    7.62    1.45   2
  -4  -3   4    6.23    1.63   5
   4  -3  -4    4.16    1.53   3
   4   3  -4    1.72    1.32   2
   4   3  -4    5.68    1.69   7
  -4   3   4    3.55    1.38   7
  -4  -3   4   10.62    2.11   7
  -4   3   4    5.96    1.61   2
   3  -3  -4   22.86    2.16   2
   3   3  -4   24.62    2.53   7
  -3  -3   4   17.58    2.56   6
  -3  -3   4   23.57    2.47   5
  -3  -3   4   21.26    2.20   2
  -3   3   4   24.42    2.36   2
  -3  -3   4   25.52    2.63   7
   3   3  -4   23.36    2.43   2
  -3   3   4   28.82    2.70   7
   2  -3  -4   14.18    1.82   2
  -2  -3   4   10.23    1.89   5
  -2   3   4   12.66    2.05   7
  -2   3   4   13.12    1.89   2
   2   3  -4   13.64    1.96   7
   2  -3  -4   14.29    2.24   7
   2   3  -4   11.12    1.87   2
   2  -3  -4   14.77    1.91   6
  -2  -3   4   13.57    1.82   2
  -2  -3   4    9.42    1.98   6
  -2  -3   4   15.97    2.20   7
  -1  -3   4   25.83    2.26   2
  -1   3   4   27.46    2.70   7
  -1   3   4   26.76    2.46   2
   1   3  -4   21.71    2.35   2
   1   3  -4   25.39    2.49   7
  -1   3   4   26.01    2.23   8
  -1  -3   4   23.01    2.38   5
  -1  -3   4   29.65    2.67   6
   1  -3  -4   29.51    2.91   7
   1  -3  -4   24.06    2.59   5
   1  -3  -4   26.39    2.46   6
   1  -3  -4   25.76    2.32   2
   0  -3  -4   68.90    4.18   7
   0  -3   4   67.93    3.66   6
   0  -3  -4   71.17    3.87   6
   0   3  -4   67.21    3.78   2
   0   3   4   69.11    3.43   8
   0   3   4   73.95    3.85   2
   0  -3  -4   64.18    3.65   2
   0   3  -4   65.80    3.71   7
   0  -3   4   65.15    3.82   5
   0   3   4   64.61    3.85   7
   0  -3  -4   65.72    3.96   5
   0  -3   4   64.48    3.16   2
  -1  -3  -4   73.08    4.16   6
   1  -3   4   70.04    3.06   2
   1   3   4   68.58    3.76   2
  -1   3  -4   70.03    3.82   2
   1  -3   4   65.35    3.85   5
  -1  -3  -4   74.88    4.38   7
  -1   3  -4   74.83    4.07   1
  -1   3  -4   75.31    3.96   7
   1   3   4   71.11    3.68   8
   1   3   4   66.46    3.85   7
  -1  -3  -4   65.35    3.75   2
  -1  -3  -4   70.76    4.16   5
   1  -3   4   74.09    3.62   6
  -2  -3  -4  239.04    8.27   2
  -2   3  -4  248.15    8.15   2
   2  -3   4  269.13    6.69   2
   2   3   4  267.88    8.52   7
   2  -3   4  242.92    8.19   5
   2   3   4  255.08    8.02   8
  -2   3  -4  239.79    8.15   7
  -2  -3  -4  249.18    8.86   6
  -2  -3  -4  250.30    8.69   5
  -2  -3  -4  254.67    8.92   7
  -2   3  -4  265.86    8.48   1
   2   3   4  248.37    7.89   2
  -3   3  -4  184.62    6.65   2
   3  -3   4  187.62    6.66   3
   3   3   4  198.42    6.51   2
   3  -3   4  196.95    6.94   5
  -3   3  -4  182.71    6.85   1
  -3  -3  -4  190.17    7.72   6
   3   3   4  197.54    6.92   8
  -3   3  -4  184.00    6.78   7
  -3  -3  -4  196.73    7.14   2
  -3  -3  -4  194.70    7.57   7
  -4   3  -4   98.73    4.76   1
   4  -3   4   98.37    4.34   3
   4   3   4  104.06    5.39   3
   4  -3   4  103.07    4.47   3
  -4  -3  -4   98.24    5.16   7
  -4  -3  -4  107.87    5.00   2
  -4   3  -4   96.25    4.55   7
   4   3   4  101.85    4.26   2
  -4  -3  -4   93.65    5.44   6
   4  -3   4   97.40    4.66   5
   4   3   4  100.02    4.94   8
   5   3   4   -0.21    1.01   2
   5   3   4    1.63    1.39   8
  -5   3  -4   -1.27    1.02   7
   5   3   4    1.26    1.57   3
   5  -3   4    1.67    1.19   5
  -5  -3  -4    3.02    1.96   6
  -5  -3  -4   -1.07    1.22   7
   5  -3   4    0.09    0.90   3
  -5  -3  -4    0.09    1.15   2
  -5   3  -4    0.81    1.40   1
   5  -3   4   -0.83    1.03   3
  -6  -3  -4   64.13    4.87   6
  -6   3  -4   64.37    3.76   1
  -6  -3  -4   59.47    4.17   7
   6   3   4   56.59    4.06   3
  -6  -3  -4   61.90    3.89   2
   6   3   4   58.43    4.10   8
   6  -3   4   54.73    2.89   3
   6  -3   4   69.14    3.81   5
   6   3   4   57.54    2.89   2
   6  -3   4   57.99    2.70   3
  -6   3  -4   57.21    3.42   7
  -7  -3  -4    4.45    1.66   2
   7   3   4    2.47    1.59   3
   7  -3   4    0.47    1.22   5
   7  -3   4    1.30    0.74   3
   7  -3   4    2.63    0.87   3
  -7   3  -4    3.09    1.50   1
  -7  -3  -4    1.55    2.12   6
  -7  -3  -4    4.28    1.81   7
  -7   3  -4    2.93    1.35   7
   7   3   4    2.99    1.71   8
  -8  -3  -4   20.88    3.33   6
   8  -3   4   15.52    2.13   5
  -8  -3  -4   13.69    2.59   7
  -8   3  -4   14.84    2.15   1
   8   3   4   17.85    2.56   3
   8   3   4   17.62    2.88   8
  -8   3  -4   17.30    2.17   7
   9   3   4    3.26    1.88   8
  -9   3  -4    2.31    1.49   1
  -9   3  -4   -0.02    1.12   7
   9   3   4    1.00    1.56   3
   9  -3   4    1.65    1.34   5
  -9  -3  -4    0.87    1.51   7
  -9  -3  -4   -0.37    2.06   6
 -10  -3  -4    3.74    2.61   6
 -10   3  -4    4.85    1.63   1
  10   3   4    5.09    2.15   8
 -10   3  -4    7.51    1.74   7
  10  -3   4    5.62    1.71   5
 -10  -3  -4    2.06    1.82   7
   8   4  -4   -0.41    2.31   8
  -8   4   4    1.02    1.59   7
  -8  -4   4   -1.42    1.91   7
  -8  -4   4   -1.20    2.23   6
   8   4  -4    0.38    1.59   2
  -8  -4   4    0.00    1.54   2
  -8   4   4    1.00    1.73   2
  -7  -4   4    8.18    2.63   7
  -7   4   4    6.37    2.09   2
   7   4  -4    7.25    2.22   2
  -7  -4   4    8.30    3.05   6
  -7  -4   4    6.02    2.05   2
  -7   4   4    8.48    2.37   7
  -6   4   4   14.98    2.86   7
  -6   4   4   11.83    2.33   2
  -6  -4   4   15.92    2.62   2
   6   4  -4    9.22    2.33   2
   6  -4  -4   12.44    1.87   2
  -6  -4   4   10.28    2.92   6
  -5  -4   4    7.08    2.61   6
   5  -4  -4    6.87    1.66   2
  -5   4   4    6.67    1.97   2
   5   4  -4    6.55    2.12   2
  -5   4   4    3.34    1.79   7
  -5  -4   4    6.21    1.95   2
  -4   4   4    5.22    1.86   2
  -4   4   4    7.86    2.18   7
  -4  -4   4    6.57    2.51   6
   4   4  -4    2.77    1.87   7
   4  -4  -4    3.60    1.84   5
  -4  -4   4    6.69    1.93   2
   4   4  -4    4.50    1.92   2
   4  -4  -4    4.75    1.57   2
  -4  -4   4    4.28    1.83   5
  -3  -4   4   15.45    2.83   6
   3   4  -4   14.60    2.56   7
   3  -4  -4   13.47    2.11   2
  -3  -4   4   14.50    2.62   5
  -3  -4   4   13.73    2.31   2
   3   4  -4   10.48    2.38   2
  -3   4   4    9.65    2.42   7
  -3   4   4   11.02    2.16   2
   3  -4  -4   13.18    2.66   5
  -2  -4   4   17.55    2.70   5
   2  -4  -4   20.79    2.50   2
  -2  -4   4   18.01    2.39   2
   2  -4  -4   23.61    3.09   5
  -2   4   4   13.70    2.44   2
  -2   4   4   17.17    2.79   7
   2   4  -4   21.92    2.90   7
   2   4  -4   21.56    2.86   2
  -2  -4   4   16.43    2.69   6
   1   4  -4    0.75    1.44   7
  -1   4   4   -1.02    1.31   2
   1  -4  -4   -1.36    1.01   2
   1  -4  -4    0.68    1.38   5
  -1  -4   4    0.29    1.17   2
  -1  -4   4    0.60    1.34   5
   1   4  -4   -0.51    1.42   2
  -1   4   4    1.25    1.51   7
   0  -4  -4    2.75    1.57   2
   0   4  -4    3.08    1.61   2
   0   4   4    0.90    1.40   2
   0  -4  -4    1.75    1.55   5
   0   4  -4    4.09    1.81   7
   0  -4   4    3.17    1.32   2
   0   4   4    1.70    1.52   7
   0  -4   4    0.14    1.22   5
  -1  -4  -4   10.05    2.39   7
  -1   4  -4   10.23    2.30   7
   1  -4   4    9.55    2.20   5
   1  -4   4   13.00    1.70   2
  -1   4  -4    7.23    2.09   2
  -1  -4  -4    9.23    2.07   2
   1   4   4    9.51    2.12   2
   2  -4   4    4.62    1.90   3
  -2  -4  -4    5.01    1.83   2
  -2  -4  -4    2.09    2.04   6
  -2  -4  -4    2.73    1.77   7
  -2   4  -4    4.21    1.82   7
  -2   4  -4    5.17    1.97   2
   2  -4   4    2.96    1.63   5
   2   4   4    3.12    1.60   2
   3  -4   4    6.01    1.86   5
   3   4   4    8.55    2.00   2
  -3  -4  -4    7.57    2.51   6
  -3   4  -4    6.49    1.99   7
   3  -4   4   11.99    2.37   3
   3   4   4   11.21    2.29   8
  -3  -4  -4    9.04    2.46   7
  -3  -4  -4    7.81    2.12   2
  -4  -4  -4    0.36    1.45   2
  -4   4  -4    5.19    1.93   7
   4  -4   4    1.39    1.69   5
   4  -4   4    2.08    1.64   3
   4   4   4    0.29    1.54   2
  -4  -4  -4    3.32    2.04   7
   4   4   4    0.92    1.67   8
  -4  -4  -4    2.57    2.36   6
   5   4   4   11.60    2.50   8
  -5  -4  -4    6.41    2.27   7
  -5  -4  -4   11.56    3.05   6
   5  -4   4    6.46    2.06   5
  -5   4  -4   11.59    2.40   7
  -5  -4  -4   10.70    2.37   2
   5   4   4    5.72    1.76   2
  -6  -4  -4    4.43    2.09   7
   6   4   4    1.33    1.41   2
   6  -4   4    1.47    1.80   5
  -6   4  -4    2.25    1.66   7
  -6  -4  -4    1.78    1.70   2
   6   4   4    0.79    1.50   8
  -6  -4  -4    0.02    2.43   6
  -7   4  -4    0.58    1.52   7
   7  -4   4    0.57    1.52   5
  -7  -4  -4    0.48    1.60   2
  -7  -4  -4    2.82    1.97   7
  -7  -4  -4    0.80    2.48   6
   7   4   4    2.31    1.95   8
 -14   0   5    2.31    1.38   7
 -13   0   5    9.83    1.99   7
  13   0  -5    7.44    1.89   3
  12   0  -5   29.87    2.79   3
  12   0  -5   31.21    2.81   8
 -12   0   5   28.31    2.72   7
 -11   0   5   84.80    4.60   6
  11   0  -5   88.67    4.25   8
 -11   0   5   71.06    3.95   7
  11   0  -5   86.01    4.28   3
 -11   0   5   88.87    4.09   1
 -10   0   5    3.43    1.17   1
 -10   0   5    5.46    1.79   6
 -10   0   5    1.95    1.12   7
 -10   0   5    4.82    1.24   2
  10   0  -5    1.97    1.09   4
  10   0  -5    5.04    1.47   3
  10   0  -5    4.40    1.45   8
  -9   0   5   26.06    2.26   7
   9   0  -5   25.29    2.11   3
   9   0  -5   22.44    1.70   2
   9   0  -5   21.78    2.13   8
  -9   0   5   25.92    2.54   6
   9   0  -5   20.78    2.14   3
  -9   0   5   24.12    2.06   1
   9   0  -5   22.32    2.06   4
  -9   0   5   24.85    2.03   2
   8   0  -5   18.18    1.55   2
   8   0  -5   18.91    1.79   8
  -8   0   5   17.29    1.75   7
   8   0  -5   16.22    1.65   3
  -8   0   5   17.73    2.10   6
   8   0  -5   18.57    1.84   3
  -8   0   5   19.41    1.71   1
  -8   0   5   19.59    1.73   2
   8   0  -5   18.03    1.70   4
   7   0  -5   -0.01    0.67   3
  -7   0   5   -0.56    0.55   7
  -7   0   5    1.28    0.73   1
   7   0  -5    0.19    0.60   3
   7   0  -5    0.28    0.61   7
   7   0  -5    0.56    0.79   8
  -7   0   5    1.70    1.12   6
  -7   0   5    0.16    0.65   3
  -7   0   5    0.52    0.66   2
  -7   0   5    0.45    0.59   1
   7   0  -5    0.66    0.71   2
  -6   0   5   41.76    2.30   3
   6   0  -5   42.01    2.14   7
  -6   0   5   40.13    2.41   6
   6   0  -5   38.89    2.15   8
  -6   0   5   40.61    2.17   1
  -6   0   5   38.99    2.14   2
   6   0  -5   39.10    2.30   3
  -6   0   5   40.18    2.24   7
   6   0  -5   35.69    2.09   2
  -6   0   5   34.46    2.03   1
   6   0  -5   37.13    2.19   3
  -5   0   5  627.99   15.38   3
  -5   0   5  663.11   14.64   1
  -5   0   5  629.95   14.91   5
  -5   0   5  669.03   15.50   3
  -5   0   5  630.52   14.84   2
  -5   0   5  658.41   15.62   6
   5   0  -5  617.89   15.43   3
   5   0  -5  638.63   14.95   2
   5   0  -5  673.55   15.03   7
  -5   0   5  628.56   15.11   7
  -4   0   5   90.67    3.33   7
  -4   0   5   99.11    3.49   3
   4   0  -5   97.14    3.38   2
  -4   0   5   98.56    3.28   2
  -4   0   5   97.57    3.56   6
  -4   0   5   99.76    3.30   1
  -4   0   5   94.36    3.46   3
  -4   0   5   97.60    3.41   5
   4   0  -5   90.68    3.43   3
   4   0  -5   98.10    3.32   7
  -3   0   5   11.70    0.99   2
  -3   0   5   12.84    1.13   3
   3   0  -5   13.79    1.19   3
   3   0  -5   11.14    1.08   2
   3   0  -5   10.14    1.05   3
   3   0  -5   11.50    1.08   7
  -3   0   5   10.54    1.02   7
  -3   0   5   10.72    1.09   3
  -3   0   5   12.27    1.23   6
   2   0  -5   31.64    1.52   1
  -2   0   5   30.61    1.59   5
   2   0  -5   29.26    1.56   2
  -2   0   5   33.16    1.62   7
   2   0  -5   32.28    1.66   3
   2   0  -5   30.95    1.65   3
   2   0  -5   30.40    1.57   7
  -2   0   5   31.12    1.50   2
  -2   0   5   29.18    1.79   6
  -2   0   5   32.97    1.64   3
   1   0  -5  230.34    5.61   1
   1   0  -5  225.80    5.57   1
  -1   0   5  219.80    5.53   2
  -1   0   5  232.62    5.74   7
  -1   0   5  222.26    5.73   5
   1   0  -5  230.52    5.93   3
  -1   0   5  223.07    5.86   3
   1   0  -5  223.63    5.91   3
   1   0  -5  238.21    5.78   2
   1   0  -5  233.09    5.74   7
  -1   0   5  218.82    5.85   3
   0   0  -5  110.09    3.15   7
   0   0  -5  108.99    3.27   3
   0   0  -5  111.71    3.12   2
   0   0  -5  110.03    3.28   3
   0   0  -5  113.56    3.10   1
   0   0   5  114.40    3.28   3
   0   0   5  110.26    3.23   3
   0   0   5  111.03    2.87   2
   0   0  -5  107.92    3.64   4
   0   0  -5  114.06    3.12   1
   1   0   5  149.03    3.91   3
   1   0   5  149.49    4.76   4
  -1   0  -5  145.31    4.71   4
  -1   0  -5  145.85    3.72   1
  -1   0  -5  150.17    3.76   7
   1   0   5  142.71    3.79   3
  -1   0  -5  147.56    3.68   1
  -1   0  -5  145.21    3.93   3
  -2   0  -5  484.64   10.52   1
   2   0   5  479.75   10.90   3
   2   0   5  485.39   12.89   4
  -2   0  -5  500.94   10.74   7
  -2   0  -5  501.42   12.88   4
  -2   0  -5  495.50   10.44   1
  -3   0  -5    1.28    0.34   1
  -3   0  -5    0.95    0.28   1
  -3   0  -5    1.53    0.25   7
   3   0   5    1.80    0.75   4
   4   0   5  602.18   16.06   4
   5   0   5   12.31    1.65   4
   6   0   5   54.87    3.39   4
   7   0   5   24.01    2.47   4
  -7   0  -5   23.45    2.38   6
  -8   0  -5  433.12   12.30   6
  -8   0  -5  431.81    9.33   1
  -8   0  -5  425.36    9.64   7
   8   0   5  420.55   13.39   4
  -8   0  -5  417.20    9.50   1
  -9   0  -5   12.07    0.99   1
  -9   0  -5   13.05    1.13   7
  -9   0  -5   10.07    2.11   6
  -9   0  -5   11.59    1.12   1
   9   0   5   12.27    2.24   4
 -10   0  -5   91.39    3.11   1
 -10   0  -5   90.22    4.97   6
 -10   0  -5   91.49    3.00   1
 -10   0  -5   89.85    3.27   7
  10   0   5   94.82    5.44   4
 -11   0  -5    3.67    1.01   7
 -11   0  -5    3.86    0.90   1
 -11   0  -5    2.36    0.88   1
 -11   0  -5    0.83    1.90   6
 -11   0  -5    2.59    0.92   1
 -12   0  -5    4.29    1.05   1
 -12   0  -5    7.70    1.22   7
 -12   0  -5    5.89    1.13   1
 -13   0  -5    6.07    1.32   7
 -13   0  -5    5.90    1.23   1
 -13   0  -5    3.68    1.11   1
 -14  -1   5    7.18    2.60   6
 -14   1   5    4.45    1.58   7
  14   1  -5    4.91    2.04   8
 -14  -1   5    5.56    1.90   7
 -13  -1   5   -0.78    1.78   6
  13   1  -5    0.24    1.46   8
  13   1  -5    1.41    1.65   3
 -13  -1   5    1.10    1.31   7
 -13   1   5    1.14    1.22   7
 -12  -1   5   18.66    2.46   7
 -12  -1   5   17.81    2.97   6
  12   1  -5   14.42    2.56   4
  12  -1  -5   13.42    2.05   3
 -12   1   5   15.09    2.08   7
  12   1  -5   16.18    2.39   3
  12   1  -5   19.38    2.78   8
 -11   1   5   42.14    2.94   1
  11   1  -5   43.20    3.45   8
  11  -1  -5   45.43    3.00   3
 -11  -1   5   42.22    3.85   6
 -11  -1   5   42.49    3.23   7
 -11  -1   5   48.22    3.11   2
  11   1  -5   44.97    3.38   3
  11   1  -5   39.17    3.45   4
 -11   1   5   43.96    3.00   7
  10   1  -5  206.50    6.03   2
 -10  -1   5  203.19    6.84   2
 -10  -1   5  201.64    8.05   6
 -10  -1   5  183.99    7.08   7
 -10   1   5  206.45    6.60   1
 -10   1   5  187.73    6.70   7
  10  -1  -5  206.02    6.83   3
  10   1  -5  200.17    7.34   8
  10   1  -5  195.50    7.44   3
  -9  -1   5   68.92    4.42   6
   9   1  -5   68.94    3.99   3
  -9  -1   5   75.34    3.60   2
   9  -1  -5   72.37    2.63   2
  -9   1   5   71.68    3.55   7
   9   1  -5   73.66    3.38   2
  -9  -1   5   69.02    3.66   1
   9   1  -5   67.38    4.00   8
  -9   1   5   77.26    3.54   1
   9  -1  -5   74.75    3.62   3
   9  -1  -5   81.82    3.85   3
  -9  -1   5   72.60    3.86   7
  -9   1   5   69.56    3.41   2
  -8   1   5   16.46    1.69   7
  -8   1   5   20.00    1.83   1
   8   1  -5   18.81    2.22   8
   8   1  -5   15.70    2.04   3
   8  -1  -5   17.16    1.80   3
  -8  -1   5   17.81    2.49   6
   8   1  -5   18.31    1.77   2
   8  -1  -5   17.88    1.87   3
  -8  -1   5   18.02    1.80   2
   8  -1  -5   16.68    1.44   2
  -8  -1   5   15.21    1.76   1
  -8  -1   5   17.15    1.96   7
  -8   1   5   14.02    1.62   2
  -8   1   5   16.11    1.55   6
  -7   1   5  103.81    4.09   1
   7   1  -5  110.71    4.69   3
   7  -1  -5  107.92    3.80   2
  -7  -1   5  114.53    4.41   5
   7  -1  -5  108.50    4.39   3
   7  -1  -5  112.62    4.30   3
  -7  -1   5  112.92    5.12   6
  -7   1   5  112.76    3.84   6
  -7   1   5  108.40    4.21   7
  -7   1   5  115.21    4.19   2
   7   1  -5  113.66    4.45   3
  -7  -1   5  112.22    4.28   2
   7   1  -5  120.23    4.85   8
  -7  -1   5  114.66    4.39   1
  -7  -1   5  112.94    4.58   7
   7   1  -5  116.19    4.34   2
   7   1  -5  111.20    4.16   7
  -6  -1   5   16.18    1.56   5
   6   1  -5   14.14    1.74   3
  -6  -1   5   13.97    1.61   3
   6   1  -5   12.90    1.39   7
   6   1  -5   16.88    1.66   2
  -6   1   5   14.02    1.45   1
   6  -1  -5   14.32    1.48   7
  -6   1   5   11.74    1.39   1
   6  -1  -5   13.58    1.34   2
   6  -1  -5   15.14    1.51   3
  -6   1   5   15.79    1.56   3
   6  -1  -5   15.39    1.64   3
  -6  -1   5   14.45    2.03   6
  -6  -1   5   14.95    1.47   2
  -6   1   5   14.73    1.48   7
  -6   1   5   12.85    1.40   2
  -6  -1   5   12.55    1.58   7
  -6  -1   5   12.06    1.40   1
  -6   1   5   13.45    1.24   6
   5  -1  -5  172.29    5.67   3
  -5   1   5  175.08    5.03   6
   5   1  -5  178.80    5.48   7
   5   1  -5  167.93    5.85   3
  -5   1   5  178.07    5.35   2
  -5  -1   5  181.20    5.45   2
  -5  -1   5  177.03    5.72   7
  -5  -1   5  179.26    5.58   5
  -5   1   5  179.91    5.36   1
  -5  -1   5  182.44    6.33   6
  -5  -1   5  170.12    5.82   3
   5  -1  -5  184.56    5.49   7
   5  -1  -5  175.25    5.27   2
   5  -1  -5  177.36    5.58   3
  -5   1   5  178.34    5.64   3
   5   1  -5  175.49    5.58   2
  -5  -1   5  174.46    5.44   1
  -5   1   5  171.65    5.44   7
  -5  -1   5  173.62    5.87   3
   4   1  -5  246.39    7.34   3
  -4  -1   5  254.63    7.13   7
  -4  -1   5  248.81    7.63   6
   4   1  -5  246.04    6.88   7
   4   1  -5  248.70    6.99   2
  -4   1   5  247.39    6.77   2
  -4  -1   5  246.00    6.93   5
  -4  -1   5  239.65    6.76   2
   4   1  -5  251.46    7.18   3
  -4   1   5  246.12    7.07   3
  -4   1   5  245.16    6.83   7
   4  -1  -5  243.72    7.01   3
  -4   1   5  252.49    6.79   1
  -4  -1   5  246.31    7.25   3
  -4   1   5  241.71    7.09   3
  -4  -1   5  258.41    7.36   3
   4  -1  -5  239.06    6.72   2
   4  -1  -5  254.30    6.93   7
   3   1  -5  555.62   13.14   7
  -3  -1   5  574.03   13.32   7
  -3   1   5  545.07   13.14   7
   3   1  -5  553.22   13.67   3
  -3  -1   5  550.16   13.08   5
  -3   1   5  548.41   12.95   2
   3  -1  -5  560.42   13.04   2
  -3  -1   5  542.16   13.55   3
   3  -1  -5  548.48   13.41   3
  -3   1   5  554.39   13.48   3
  -3  -1   5  557.50   13.94   6
  -3  -1   5  548.55   13.56   3
   3   1  -5  554.80   13.19   2
  -3   1   5  541.33   13.51   3
   3   1  -5  541.77   13.45   3
   3  -1  -5  555.35   13.15   7
  -3   1   5  566.21   12.80   1
  -3  -1   5  546.58   12.94   2
   3  -1  -5  531.58   13.49   3
  -2   1   5  552.10   13.10   7
   2   1  -5  562.28   13.05   7
   2   1  -5  538.69   12.67   1
  -2   1   5  555.60   13.21   4
   2   1  -5  561.45   13.58   3
  -2  -1   5  546.90   12.78   2
  -2  -1   5  571.20   13.12   7
  -2  -1   5  539.87   12.91   5
   2   1  -5  560.13   13.42   3
   2  -1  -5  555.58   13.43   3
   2  -1  -5  552.36   13.00   2
   2   1  -5  544.00   12.66   1
  -2   1   5  564.53   12.88   2
  -2  -1   5  546.95   13.43   3
  -2   1   5  558.43   13.43   3
  -2  -1   5  533.22   13.66   6
   2  -1  -5  569.72   13.14   7
   2  -1  -5  550.30   13.49   3
   2   1  -5  565.69   13.07   2
  -2   1   5  543.57   13.47   3
   1   1  -5   37.40    1.86   1
  -1   1   5   39.21    1.88   2
   1  -1  -5   36.28    1.96   7
  -1  -1   5   38.68    2.00   3
   1   1  -5   41.39    1.91   1
   1  -1  -5   37.83    2.07   3
   1   1  -5   39.50    1.89   2
  -1   1   5   37.95    1.98   7
  -1  -1   5   38.16    2.21   6
  -1  -1   5   36.32    1.90   5
   1  -1  -5   40.86    2.00   2
  -1  -1   5   39.38    1.76   2
   1   1  -5   39.94    2.11   3
  -1  -1   5   38.81    1.87   7
   1  -1  -5   40.65    2.17   3
  -1  -1   5   39.04    1.98   3
   1   1  -5   38.90    2.01   3
  -1   1   5   39.81    2.08   3
   1  -1  -5   38.05    2.00   1
  -1   1   5   40.97    1.71   4
   1   1  -5   34.39    1.82   7
   1   1  -5   41.21    1.91   1
   0   1   5   58.56    2.48   3
   0  -1  -5   55.73    2.39   7
   0  -1   5   57.41    2.28   3
   0  -1   5   53.32    1.91   2
   0  -1  -5   55.47    2.41   1
   0  -1  -5   56.35    2.52   3
   0   1   5   57.28    2.18   2
   0   1   5   60.46    2.41   4
   0   1  -5   55.40    2.16   1
   0   1  -5   53.67    2.22   7
   0  -1  -5   59.15    2.42   2
   0  -1   5   58.80    2.28   5
   0   1  -5   59.19    2.22   2
   0  -1  -5   59.12    2.49   1
   0   1   5   60.85    2.44   7
   0   1  -5   52.05    2.15   1
   0  -1  -5   57.88    2.64   3
   0   1  -5   56.99    2.22   1
   0   1  -5   57.94    2.45   3
   0  -1   5   59.18    2.66   6
   1   1   5  481.15   12.56   4
  -1   1  -5  475.52   10.73   1
   1  -1   5  474.08   11.16   3
  -1  -1  -5  464.61   11.22   1
   1   1   5  489.07   11.26   8
   1   1   5  482.87   10.92   2
  -1  -1  -5  469.37   11.40   7
  -1  -1  -5  511.57   12.01   3
  -1   1  -5  485.65   11.13   7
   1  -1   5  483.70   11.04   5
  -1   1  -5  475.09   10.86   1
  -1   1  -5  482.06   10.87   2
  -1  -1  -5  479.44   11.17   1
   1  -1   5  476.82   11.83   6
   1   1   5  478.70   11.63   3
  -1  -1  -5  490.45   11.43   2
  -1   1  -5  498.43   11.53   3
  -2  -1  -5 1005.27   23.03   3
  -2  -1  -5 1042.97   22.27   2
  -2   1  -5 1019.29   21.16   1
  -2   1  -5 1019.49   21.31   1
   2  -1   5 1029.55   21.72   5
  -2   1  -5 1017.01   21.90   7
   2  -1   5  992.49   22.01   3
   2   1   5 1017.48   21.52   2
  -2  -1  -5 1029.41   21.78   1
  -2  -1  -5 1012.28   22.37   7
   2   1   5  986.04   22.67   3
   2   1   5  986.33   24.84   4
   2   1   5 1006.18   22.43   8
  -2  -1  -5 1009.35   21.88   1
   3   1   5   30.36    1.98   8
  -3  -1  -5   32.15    1.67   2
   3   1   5   32.57    1.71   3
  -3  -1  -5   31.89    1.86   1
  -3   1  -5   30.85    1.34   7
  -3  -1  -5   31.61    1.84   1
   3  -1   5   32.43    1.43   5
   3   1   5   27.62    2.07   4
  -3   1  -5   31.95    1.31   1
  -3  -1  -5   32.51    1.84   5
  -3   1  -5   33.20    1.33   7
  -3   1  -5   30.81    1.41   1
  -3  -1  -5   32.69    1.75   7
  -4  -1  -5   26.39    1.52   2
   4  -1   5   28.07    1.25   5
  -4  -1  -5   30.94    1.74   7
  -4  -1  -5   31.33    1.85   1
  -4   1  -5   27.24    1.22   1
  -4   1  -5   28.75    1.09   7
   4   1   5   31.85    1.61   3
  -4  -1  -5   26.09    1.75   1
  -4   1  -5   29.59    1.11   7
   4   1   5   28.84    2.25   4
   4   1   5   25.34    1.93   8
  -4   1  -5   28.67    1.12   1
  -4  -1  -5   28.19    1.70   5
  -5  -1  -5  234.70    7.83   6
   5   1   5  231.33    6.07   3
  -5  -1  -5  230.96    6.41   1
   5  -1   5  235.78    5.50   5
  -5  -1  -5  234.01    6.42   1
  -5  -1  -5  247.19    6.13   2
   5   1   5  237.96    6.08   3
   5   1   5  231.42    8.05   4
  -5  -1  -5  244.53    6.48   7
   5   1   5  224.99    7.20   8
   6  -1   5   40.81    1.40   5
   6   1   5   40.26    2.79   8
   6   1   5   41.24    1.67   3
   6   1   5   41.81    3.07   4
  -6  -1  -5   38.85    2.30   1
  -6  -1  -5   40.29    3.12   6
   6   1   5   41.34    1.66   3
  -6  -1  -5   39.93    2.19   1
  -6  -1  -5   39.32    2.19   7
  -7  -1  -5  225.33    8.06   6
  -7  -1  -5  231.42    6.39   1
  -7  -1  -5  227.12    6.46   1
   7   1   5  213.49    8.35   4
   7   1   5  218.37    7.57   8
  -7  -1  -5  218.70    6.45   7
  -8  -1  -5   97.09    3.86   7
   8   1   5   93.45    5.23   4
  -8  -1  -5   93.14    3.82   1
  -8  -1  -5   97.29    5.25   6
  -8  -1  -5   94.78    3.72   1
   8  -1   5   97.57    5.09   4
   8   1   5   92.79    4.80   8
  -9  -1  -5  221.98    6.47   1
  -9  -1  -5  213.63    6.61   7
   9   1   5  204.46    8.64   4
  -9  -1  -5  202.05    6.37   1
  -9  -1  -5  199.06    8.26   6
   9  -1   5  218.16    8.53   4
  -9   1  -5  205.00    5.03   1
  -9   1  -5  207.52    4.95   1
 -10  -1  -5    8.26    1.60   1
 -10  -1  -5    7.80    1.47   1
  10  -1   5    8.20    2.06   4
 -10  -1  -5   10.82    2.58   6
 -10   1  -5    6.70    0.79   1
 -10  -1  -5    7.31    1.52   7
 -10   1  -5    8.07    0.83   7
 -10   1  -5    5.91    0.77   1
 -11   1  -5    8.06    0.95   1
 -11   1  -5    9.94    1.00   1
 -11  -1  -5   10.62    2.89   6
 -11  -1  -5    9.41    1.64   1
 -11  -1  -5   10.08    1.73   1
 -11  -1  -5   11.20    1.80   7
 -12  -1  -5   11.31    1.91   1
 -12   1  -5   12.72    1.23   1
 -12  -1  -5   14.77    2.01   7
 -12   1  -5   11.97    1.16   1
 -12  -1  -5   12.90    3.08   6
 -13   1  -5   10.01    1.20   1
 -13  -1  -5   11.42    3.16   6
 -13  -1  -5    7.85    1.86   1
 -13   1  -5    8.93    1.23   1
 -13  -1  -5   11.60    1.99   7
  13   2  -5    1.34    1.95   8
 -13   2   5   -0.09    1.18   7
 -13  -2   5    1.79    2.34   6
 -13  -2   5   -1.05    1.49   7
 -12  -2   5   10.11    2.19   2
  12   2  -5    8.89    2.50   3
  12   2  -5    7.57    2.16   8
 -12  -2   5    4.66    2.43   6
 -12  -2   5    3.54    1.84   7
 -12   2   5    8.99    1.96   7
  11   2  -5   33.26    3.72   8
  11   2  -5   35.98    3.65   3
 -11   2   5   39.16    3.14   7
 -11  -2   5   40.71    3.33   2
 -11  -2   5   41.22    3.52   7
  11  -2  -5   40.03    3.01   3
 -11  -2   5   36.90    4.16   6
 -10  -2   5  115.31    5.66   7
 -10   2   5  103.47    4.97   7
  10   2  -5  116.24    5.97   3
  10  -2  -5  111.00    4.88   3
  10   2  -5  113.86    4.72   2
  10   2  -5  116.92    5.97   8
 -10  -2   5  115.06    5.25   2
 -10  -2   5  106.01    6.21   6
  -9  -2   5   37.42    2.88   2
  -9   2   5   37.44    2.77   7
  -9   2   5   37.57    2.69   2
   9   2  -5   36.97    3.44   3
   9   2  -5   46.88    3.63   8
  -9  -2   5   37.21    3.15   7
  -9  -2   5   39.50    3.87   6
   9  -2  -5   38.33    2.71   3
   9   2  -5   40.39    2.87   2
   8   2  -5    2.50    1.95   8
  -8  -2   5    4.03    2.09   6
   8   2  -5    3.96    1.64   3
   8  -2  -5    3.23    1.20   3
   8   2  -5    3.78    1.46   2
  -8   2   5    4.41    1.37   2
  -8   2   5    4.20    1.19   7
  -8  -2   5    5.16    1.40   2
  -8   2   5    4.67    1.42   1
  -8  -2   5    4.36    1.45   7
   8  -2  -5    5.17    1.04   2
  -7  -2   5   19.11    2.10   5
  -7  -2   5   20.70    2.90   6
  -7   2   5   20.57    2.02   2
  -7  -2   5   21.11    2.40   7
   7  -2  -5   25.98    2.23   3
   7   2  -5   23.95    2.27   7
   7   2  -5   21.35    2.51   3
  -7  -2   5   22.61    2.14   2
   7   2  -5   24.32    2.33   2
  -7   2   5   25.33    2.28   7
   7  -2  -5   21.31    1.75   2
  -7   2   5   20.05    2.16   1
   6   2  -5   69.70    3.60   7
  -6  -2   5   73.90    3.94   7
  -6   2   5   68.51    3.57   1
  -6  -2   5   74.59    3.80   5
   6   2  -5   80.76    4.30   3
   6  -2  -5   70.92    3.19   2
  -6   2   5   74.08    3.61   7
  -6  -2   5   76.48    4.50   6
  -6   2   5   69.86    3.47   2
  -6  -2   5   71.21    3.57   2
   6  -2  -5   74.40    3.62   3
   6   2  -5   69.72    3.68   2
  -5  -2   5   66.15    4.09   6
  -5  -2   5   61.75    3.50   7
   5  -2  -5   66.25    3.40   3
   5   2  -5   68.69    3.98   3
  -5   2   5   66.31    3.37   1
  -5  -2   5   58.96    3.17   2
   5  -2  -5   62.40    3.41   7
  -5   2   5   64.94    3.26   2
   5  -2  -5   59.81    2.94   2
   5   2  -5   68.76    3.43   7
  -5   2   5   62.12    3.26   7
   5   2  -5   58.89    3.33   2
   4   2  -5  136.19    5.79   3
   4   2  -5  155.02    5.53   2
  -4   2   5  149.83    5.34   1
  -4  -2   5  156.72    5.66   7
  -4  -2   5  155.91    6.14   6
  -4  -2   5  147.44    5.21   2
  -4  -2   5  146.60    5.39   5
  -4   2   5  146.88    5.39   7
   4  -2  -5  153.79    5.10   2
  -4   2   5  141.72    5.16   2
   4  -2  -5  153.16    5.48   7
   4  -2  -5  150.12    5.46   3
   3   2  -5   56.50    3.32   3
  -3  -2   5   51.57    2.93   7
   3   2  -5   52.44    2.94   2
   3  -2  -5   52.56    2.93   3
  -3   2   5   50.54    2.76   2
   3   2  -5   46.03    2.74   7
   3  -2  -5   54.01    2.99   7
  -3   2   5   48.60    2.76   7
  -3  -2   5   51.32    2.74   2
  -3   2   5   53.33    2.95   1
  -3  -2   5   45.66    2.76   5
   3   2  -5   54.77    3.19   3
  -3   2   5   46.84    2.73   7
   3   2  -5   56.88    3.17   1
  -3   2   5   50.66    3.00   3
   3  -2  -5   50.70    2.66   2
  -3  -2   5   50.77    3.28   6
   2  -2  -5  154.61    5.50   7
   2   2  -5  157.08    5.48   1
  -2   2   5  148.64    5.55   3
  -2  -2   5  150.79    5.65   6
   2   2  -5  157.28    5.35   7
   2   2  -5  155.85    5.86   3
  -2  -2   5  154.73    5.34   7
   2  -2  -5  158.89    5.69   3
  -2   2   5  149.03    5.30   7
   2  -2  -5  159.92    5.94   3
  -2   2   5  154.48    4.05   8
  -2  -2   5  153.47    5.07   2
   2  -2  -5  145.96    5.13   2
   2   2  -5  152.90    5.38   2
  -2   2   5  160.91    5.26   2
  -2  -2   5  154.68    5.37   5
   1  -2  -5   40.00    2.76   3
   1   2  -5   44.06    2.82   3
  -1  -2   5   44.14    2.70   6
   1  -2  -5   44.02    2.62   1
   1  -2  -5   43.31    2.49   2
  -1  -2   5   50.18    2.65   5
   1   2  -5   44.17    2.49   7
   1   2  -5   46.51    2.61   1
  -1  -2   5   43.35    2.24   2
   1   2  -5   38.94    2.56   1
   1  -2  -5   41.17    2.93   3
  -1   2   5   47.88    2.00   8
   1   2  -5   39.70    2.49   2
  -1  -2   5   46.08    2.74   3
   1  -2  -5   41.98    2.67   7
  -1  -2   5   44.30    2.47   7
  -1   2   5   42.00    2.43   2
  -1   2   5   42.82    2.63   7
  -1   2   5   40.38    2.75   3
   0   2  -5  161.16    5.38   7
   0  -2   5  163.09    4.86   2
   0   2   5  170.47    4.90   8
   0   2  -5  162.05    5.42   1
   0  -2   5  164.00    5.55   6
   0   2  -5  168.73    5.49   1
   0  -2   5  163.45    5.58   3
   0   2   5  160.30    5.82   3
   0   2   5  166.57    5.66   7
   0  -2   5  157.76    5.40   5
   0  -2  -5  164.75    5.75   7
   0  -2  -5  170.14    5.61   2
   0  -2  -5  180.25    6.40   3
   0   2  -5  177.06    6.03   3
   0   2  -5  161.44    5.34   2
   0   2   5  157.16    5.27   2
   0  -2  -5  166.62    6.03   3
   0  -2   5  168.36    5.24   7
   0  -2  -5  166.82    5.68   1
  -1  -2  -5  175.36    6.29   6
  -1  -2  -5  199.38    6.66   3
   1   2   5  190.56    6.42   3
  -1   2  -5  193.67    5.90   1
  -1   2  -5  187.81    5.75   2
   1  -2   5  189.48    5.93   3
  -1  -2  -5  193.27    6.15   2
  -1   2  -5  181.64    5.81   1
   1   2   5  187.35    5.62   8
  -1   2  -5  201.71    6.46   3
  -1  -2  -5  190.86    6.25   1
   1  -2   5  182.85    4.81   2
  -1   2  -5  184.59    5.84   7
   1   2   5  187.14    5.69   2
   1  -2   5  181.02    5.79   6
   1   2   5  194.39    6.17   7
   1  -2   5  175.59    5.79   5
  -1  -2  -5  182.81    6.25   7
   2  -2   5  248.05    7.04   3
  -2   2  -5  255.63    7.13   1
   2   2   5  245.82    7.75   3
  -2  -2  -5  250.60    7.50   2
   2  -2   5  253.21    7.11   6
   2   2   5  254.74    8.34   4
   2   2   5  251.35    7.25   8
  -2  -2  -5  255.29    7.74   5
  -2  -2  -5  247.02    7.69   7
   2   2   5  255.17    7.44   7
   2  -2   5  253.05    7.18   5
   2   2   5  252.65    6.93   2
  -2   2  -5  238.20    7.09   7
  -2  -2  -5  239.23    8.01   6
  -2  -2  -5  241.27    7.55   1
  -2   2  -5  253.25    7.00   2
  -2   2  -5  245.60    7.09   1
   3  -2   5   57.30    2.80   5
  -3  -2  -5   59.37    3.24   1
  -3   2  -5   63.52    2.87   7
  -3  -2  -5   58.06    3.26   7
  -3   2  -5   55.83    2.81   1
   3   2   5   63.01    3.63   4
   3   2   5   58.77    2.52   2
  -3   2  -5   62.25    2.73   2
  -3  -2  -5   60.49    3.23   5
  -3  -2  -5   58.19    3.58   6
   3   2   5   60.86    3.21   8
   3  -2   5   61.59    2.60   3
   3   2   5   56.75    3.24   3
  -3   2  -5   63.65    2.92   1
  -3  -2  -5   61.76    3.12   2
  -4   2  -5    4.53    1.01   7
  -4  -2  -5    5.35    1.44   7
  -4  -2  -5    4.39    1.15   2
   4   2   5    6.63    1.46   3
  -4   2  -5    5.15    1.09   1
  -4  -2  -5    3.45    1.53   6
  -4   2  -5    5.20    1.18   1
   4   2   5    4.86    0.88   2
   4   2   5    5.10    1.51   4
   4  -2   5    2.59    0.69   3
   4   2   5    4.65    1.38   8
   4  -2   5    4.27    0.75   3
   4  -2   5    3.48    0.95   5
  -4  -2  -5    4.77    1.34   1
   5  -2   5   21.48    1.76   5
  -5   2  -5   25.09    1.92   1
  -5  -2  -5   25.78    2.34   7
  -5  -2  -5   20.56    2.61   6
   5   2   5   20.06    1.15   2
  -5  -2  -5   24.00    2.06   2
  -5  -2  -5   24.99    2.30   1
   5   2   5   18.38    2.00   3
  -5   2  -5   20.68    1.67   7
   5   2   5   25.05    2.42   8
  -5   2  -5   21.98    1.83   1
   5   2   5   14.37    2.22   4
   6   2   5   94.57    4.13   3
   6   2   5   79.68    4.36   8
  -6  -2  -5   85.65    4.89   6
  -6   2  -5   81.98    3.38   1
  -6  -2  -5   80.25    4.14   7
   6  -2   5   90.30    3.48   5
  -6   2  -5   85.20    3.32   7
   6   2   5   83.16    3.86   3
  -6  -2  -5   89.47    4.29   1
   6   2   5   80.17    4.88   4
  -6   2  -5   88.37    3.49   1
  -7  -2  -5   85.80    4.33   7
  -7  -2  -5   86.12    4.30   1
   7   2   5   85.18    3.78   3
   7  -2   5   89.14    3.40   5
  -7   2  -5   85.84    3.28   7
   7   2   5   72.04    4.44   8
  -7   2  -5   86.87    3.43   1
   7   2   5   86.29    3.91   3
  -7   2  -5   85.69    3.43   1
   7   2   5   78.25    4.99   4
  -7  -2  -5   75.75    5.01   6
   8   2   5   60.48    4.07   8
   8   2   5   65.20    3.08   3
   8  -2   5   54.94    2.61   5
  -8   2  -5   59.11    2.79   1
  -8   2  -5   57.27    2.82   1
  -8  -2  -5   55.95    3.57   1
   8   2   5   59.77    3.11   3
  -8  -2  -5   56.24    3.61   7
   8   2   5   53.08    4.25   4
  -8   2  -5   60.59    2.70   7
  -8  -2  -5   48.47    4.30   6
  -8   2  -5   54.36    2.60   7
  -9   2  -5    5.35    1.08   7
   9  -2   5    2.97    0.99   5
  -9   2  -5    4.79    1.20   1
  -9  -2  -5    5.62    1.58   7
   9   2   5    3.97    1.75   8
  -9   2  -5    6.05    1.27   1
  -9  -2  -5    6.03    1.72   1
   9   2   5    4.98    1.14   3
   9   2   5    4.85    1.25   3
  -9  -2  -5    5.43    2.48   6
 -10   2  -5    1.77    1.07   1
  10   2   5    2.62    0.96   3
 -10  -2  -5    2.11    1.40   7
 -10   2  -5    2.23    0.92   7
 -10   2  -5    1.24    1.03   1
  10   2   5    2.09    1.62   8
  10  -2   5    2.33    0.95   5
 -10  -2  -5    3.86    2.29   6
 -10  -2  -5    3.29    1.76   1
 -11  -2  -5   26.58    2.96   1
 -11   2  -5   21.14    1.91   1
 -11  -2  -5   21.11    2.77   7
 -11   2  -5   22.00    1.83   1
 -11  -2  -5   23.59    3.78   6
  11   2   5   19.25    3.12   8
 -11   2  -5   23.94    1.91   7
 -12   2  -5    3.93    1.16   7
  12   2   5    2.92    2.15   8
 -12   2  -5    6.72    1.42   1
 -12  -2  -5    3.09    1.93   1
 -12   2  -5    4.52    1.17   1
 -12  -2  -5    4.52    1.99   7
 -12  -2  -5    5.47    2.82   6
 -11  -3   5    1.90    2.43   6
  11   3  -5   -0.08    1.38   2
 -11  -3   5    0.70    1.75   7
 -11   3   5    0.34    1.35   7
  11   3  -5    1.57    2.21   8
 -11  -3   5    2.17    1.62   2
  10  -3  -5   -0.49    1.32   3
 -10  -3   5   -0.38    2.00   6
 -10  -3   5    0.36    1.58   7
  10   3  -5   -1.31    1.80   8
  10   3  -5   -1.61    1.31   2
 -10  -3   5    0.08    1.31   2
 -10   3   5   -0.79    1.27   7
  -9  -3   5   11.23    3.12   6
  -9   3   5   20.96    2.71   7
  -9  -3   5   25.09    2.87   2
   9   3  -5   17.99    2.52   2
   9   3  -5   19.49    3.36   8
  -9  -3   5   19.48    2.98   7
   9  -3  -5   22.90    2.55   3
  -9   3   5   19.69    2.57   2
   8  -3  -5   10.06    1.95   3
  -8   3   5    9.66    1.99   7
   8   3  -5   10.39    2.10   2
  -8  -3   5    8.01    2.66   6
  -8  -3   5    5.03    1.67   2
  -8   3   5    8.50    1.92   2
  -8  -3   5    8.68    2.22   7
   7  -3  -5    3.82    1.22   2
  -7  -3   5    6.75    1.74   2
  -7  -3   5    7.38    2.44   6
   7  -3  -5    6.98    1.75   3
  -7   3   5    5.63    1.63   7
  -7  -3   5    1.92    1.52   7
   7   3  -5    8.48    1.94   2
  -7   3   5    6.32    1.70   2
  -7   3   5    8.37    1.88   7
  -6  -3   5   18.41    2.61   7
   6  -3  -5   17.33    2.34   3
  -6   3   5   20.54    2.33   2
  -6   3   5   15.10    2.27   7
   6   3  -5   18.05    2.44   7
   6  -3  -5   17.73    1.93   2
  -6  -3   5   15.66    2.19   2
  -6   3   5   15.25    2.26   7
  -6  -3   5   20.61    2.46   5
   6   3  -5   18.38    2.41   2
  -6  -3   5   19.89    3.05   6
  -5  -3   5   14.43    2.65   6
   5   3  -5   12.46    2.07   7
  -5  -3   5   12.34    2.26   7
   5  -3  -5   14.68    1.81   2
   5   3  -5   10.80    2.04   2
  -5   3   5   10.20    1.86   2
  -5  -3   5   15.57    2.10   2
  -5   3   5   16.52    2.23   7
  -5  -3   5   15.07    2.17   5
   4  -3  -5   35.29    2.61   2
  -4  -3   5   37.13    3.08   5
   4   3  -5   39.24    3.13   2
   4   3  -5   34.83    2.94   7
  -4   3   5   39.26    3.00   7
  -4  -3   5   38.10    3.18   7
  -4   3   5   32.17    2.75   2
  -4  -3   5   34.85    3.43   6
  -4  -3   5   39.33    2.86   2
  -3  -3   5   16.38    2.31   7
   3   3  -5   16.87    2.22   7
   3   3  -5   17.82    2.31   2
  -3  -3   5   11.45    2.25   6
  -3   3   5   13.77    2.13   7
   3  -3  -5   15.18    2.34   7
   3  -3  -5   12.66    1.73   2
  -3  -3   5   11.64    1.95   5
  -3  -3   5   15.12    1.92   2
  -3   3   5   12.28    1.92   2
  -2   3   5   19.11    2.18   2
   2  -3  -5   18.81    2.13   6
   2  -3  -5   16.44    2.00   2
   2  -3  -5   14.53    2.28   7
  -2  -3   5   16.41    2.14   5
   2   3  -5   15.23    2.08   7
   2   3  -5   14.77    2.13   2
  -2   3   5   15.15    2.22   7
  -2  -3   5   15.23    2.25   6
  -2  -3   5   14.40    1.82   2
   1  -3  -5    3.78    1.31   2
  -1   3   5    4.47    1.44   2
  -1   3   5    6.69    1.72   7
   1  -3  -5    4.87    1.53   6
   1  -3  -5    6.85    1.87   7
  -1  -3   5    5.74    1.33   2
  -1  -3   5    2.20    1.46   6
   1   3  -5    3.78    1.48   2
  -1  -3   5    5.74    1.51   5
   1   3  -5    3.80    1.35   7
   0  -3   5   27.62    2.07   2
   0   3   5   27.50    2.28   8
   0   3  -5   29.10    2.63   7
   0  -3  -5   29.47    2.90   5
   0   3  -5   24.65    2.48   2
   0  -3   5   37.02    2.86   5
   0  -3  -5   30.00    2.58   2
   0  -3   5   32.13    2.70   6
   0  -3  -5   31.83    3.03   7
   0  -3  -5   32.09    2.85   6
   0   3   5   29.86    2.82   7
   0   3   5   28.37    2.50   2
   1   3   5   33.72    2.69   2
  -1   3  -5   39.93    2.90   7
  -1  -3  -5   37.64    2.92   2
   1  -3   5   40.06    2.15   2
  -1   3  -5   34.39    2.77   2
   1  -3   5   39.19    2.82   6
   1   3   5   41.95    3.18   7
   1  -3   5   39.12    2.87   5
  -1   3  -5   38.93    3.17   1
   1   3   5   42.97    2.80   8
  -1  -3  -5   35.93    3.04   5
  -1  -3  -5   37.47    3.28   6
  -1  -3  -5   37.97    3.25   7
  -2  -3  -5   13.34    2.38   6
  -2   3  -5   16.52    2.11   7
   2  -3   5   14.46    2.01   5
  -2  -3  -5   10.54    1.91   2
  -2   3  -5   15.35    2.21   1
   2   3   5   12.19    1.88   2
   2   3   5   17.35    2.15   8
  -2   3  -5   18.02    2.14   2
  -2  -3  -5   12.99    2.36   7
  -3  -3  -5  187.84    7.82   6
   3   3   5  198.20    6.51   2
   3   3   5  198.82    7.68   3
   3  -3   5  193.64    6.70   3
  -3   3  -5  189.13    6.90   1
   3   3   5  189.41    6.82   8
   3  -3   5  195.07    6.72   3
   3  -3   5  192.43    6.93   5
  -3   3  -5  189.56    6.88   7
  -3  -3  -5  198.42    7.27   2
  -3  -3  -5  190.46    7.60   7
   4  -3   5   12.28    1.69   3
   4   3   5   15.45    2.21   8
   4   3   5   15.07    1.86   2
  -4   3  -5   11.62    2.11   1
  -4   3  -5   14.68    2.10   7
  -4  -3  -5   12.11    2.31   7
   4  -3   5   13.00    1.80   3
  -4  -3  -5   13.87    2.67   6
  -4  -3  -5   14.83    2.16   2
   4   3   5   15.63    2.40   3
   4  -3   5   16.70    2.11   5
   5   3   5   23.13    2.72   3
   5   3   5   23.57    2.02   2
   5  -3   5   29.56    2.14   3
  -5  -3  -5   25.79    3.38   6
  -5   3  -5   26.67    2.55   7
  -5  -3  -5   27.08    2.75   2
   5  -3   5   28.18    2.53   5
  -5   3  -5   29.84    2.70   1
   5   3   5   24.38    2.72   8
   5   3   5   25.54    3.27   4
   5  -3   5   25.66    1.97   3
  -5  -3  -5   24.78    2.93   7
  -6  -3  -5   51.06    3.93   7
   6   3   5   59.15    4.60   4
  -6   3  -5   60.36    3.65   1
  -6  -3  -5   56.54    3.73   2
   6  -3   5   55.94    2.54   3
   6  -3   5   60.11    3.52   5
  -6  -3  -5   50.81    4.51   6
   6   3   5   48.47    3.68   3
   6   3   5   53.16    3.92   8
  -6   3  -5   61.73    3.50   7
   6  -3   5   50.22    2.34   3
  -7  -3  -5    0.82    1.43   7
   7  -3   5   -0.63    1.08   5
   7   3   5    0.66    1.38   3
  -7   3  -5   -0.10    1.26   1
  -7   3  -5    1.98    1.25   7
  -7  -3  -5    2.10    1.36   2
   7   3   5    1.29    1.36   8
  -7  -3  -5   -0.90    1.73   6
  -8   3  -5    4.23    1.52   7
  -8  -3  -5    2.29    1.61   7
  -8   3  -5    1.49    1.48   1
  -8  -3  -5    5.54    2.57   6
   8   3   5    2.07    1.56   8
   8  -3   5   -0.14    1.12   5
   8   3   5    2.11    1.62   3
  -9  -3  -5    3.98    2.57   6
   9  -3   5    5.25    1.57   5
  -9   3  -5    6.04    1.66   7
  -9   3  -5    3.61    1.70   1
   9   3   5    1.85    1.83   8
  -9  -3  -5    4.04    1.93   7
 -10  -3  -5    0.41    1.77   7
 -10  -3  -5    1.65    2.40   6
  10   3   5    0.13    1.67   8
 -10   3  -5    1.41    1.27   7
  10  -3   5   -0.41    1.16   5
 -10   3  -5    0.10    1.34   1
  -8   4   5    5.21    2.03   2
   8   4  -5    0.75    2.28   8
  -8  -4   5    3.51    2.55   6
   8   4  -5    6.55    2.23   2
  -8   4   5    4.10    2.07   7
  -8  -4   5    6.92    2.23   2
  -7  -4   5    3.60    1.75   2
  -7   4   5    6.55    2.26   7
   7   4  -5    0.77    1.67   2
  -7   4   5    2.57    1.82   2
  -7  -4   5    2.27    2.57   6
   6   4  -5   -0.72    1.62   2
   6  -4  -5   -0.35    1.20   2
  -6   4   5   -0.73    1.31   2
  -6  -4   5   -0.52    2.02   6
  -6  -4   5   -1.08    1.19   2
  -6   4   5    2.90    1.81   7
  -5   4   5   10.37    2.30   2
   5   4  -5    9.04    2.23   2
  -5   4   5   10.47    2.55   7
   5  -4  -5   10.14    1.94   2
  -5  -4   5   11.80    2.29   2
  -5  -4   5   10.75    2.89   6
  -4  -4   5   14.43    2.67   5
  -4   4   5   14.70    2.72   7
  -4  -4   5   10.83    2.18   2
   4  -4  -5   14.77    2.22   2
   4   4  -5    9.34    2.29   2
  -4   4   5   11.87    2.31   2
  -4  -4   5   17.89    3.11   6
   4   4  -5    9.84    2.42   7
   3  -4  -5   14.07    2.73   5
  -3   4   5   17.23    2.56   2
  -3  -4   5   14.66    2.41   2
  -3   4   5   21.10    3.08   7
   3   4  -5   18.49    2.81   7
  -3  -4   5   21.91    3.09   6
   3  -4  -5   21.79    2.54   2
  -3  -4   5   17.80    2.75   5
   3   4  -5   22.28    2.93   2
  -2  -4   5    2.94    1.53   5
  -2  -4   5    1.65    1.33   2
  -2   4   5    2.13    1.66   7
   2  -4  -5    3.56    1.77   5
   2   4  -5   -0.28    1.40   7
  -2  -4   5    2.01    1.87   6
  -2   4   5    0.71    1.36   2
   2  -4  -5    0.61    1.25   2
   2   4  -5    3.57    1.79   2
   1   4  -5    6.14    1.99   7
  -1   4   5    5.82    1.91   2
  -1   4   5    7.33    2.20   7
  -1  -4   5    8.28    2.14   5
   1  -4  -5    8.21    2.26   5
   1   4  -5    7.01    2.10   2
  -1  -4   5    8.21    1.71   2
   1  -4  -5    5.65    1.71   2
   0  -4  -5   -0.50    1.13   2
   0   4  -5   -2.07    1.14   7
   0  -4   5   -1.00    1.13   5
   0   4   5    1.51    1.46   2
   0   4  -5    2.08    1.54   2
   0  -4   5    0.15    1.03   2
  -1  -4  -5    3.26    2.01   7
   1   4   5    3.56    1.76   2
  -1  -4  -5    8.03    2.02   2
   1  -4   5    3.51    1.68   5
  -1   4  -5    2.78    1.63   7
  -1   4  -5    6.39    2.01   2
   2   4   5    0.33    1.41   2
   2  -4   5    1.46    1.43   5
  -2   4  -5    0.01    1.41   7
  -2  -4  -5    1.73    2.19   6
  -2   4  -5    1.30    1.47   2
  -2  -4  -5    0.81    1.40   2
  -2  -4  -5    1.76    1.70   7
   3  -4   5  121.22    5.83   3
  -3   4  -5  113.71    5.89   7
   3  -4   5  124.48    6.18   5
   3   4   5  122.28    5.52   2
  -3  -4  -5  118.51    6.66   6
  -3  -4  -5  115.39    6.10   2
   4   4   5   15.68    2.57   8
  -4  -4  -5   14.60    2.67   2
   4  -4   5   10.97    2.25   3
   4  -4   5   16.50    2.67   5
  -4  -4  -5   17.27    3.18   6
  -4  -4  -5   11.84    2.80   7
   4   4   5   15.68    2.34   2
  -4   4  -5    8.97    2.26   7
  -5  -4  -5    4.84    2.65   6
   5   4   5    5.26    2.02   8
   5   4   5    5.09    1.62   2
  -5   4  -5    4.55    1.96   7
   5  -4   5    3.93    1.90   5
  -5  -4  -5    6.88    2.16   2
  -5  -4  -5    3.90    2.13   7
   6   4   5    1.41    1.78   8
  -6  -4  -5    0.61    1.83   7
  -6  -4  -5    1.50    1.76   2
  -6   4  -5    0.04    1.52   7
   6  -4   5    0.12    1.54   5
  -6  -4  -5    1.82    2.24   6
 -14   0   6    0.79    1.19   7
  13   0  -6   12.30    2.23   3
 -13   0   6   13.04    2.18   7
  12   0  -6    9.81    2.06   3
 -12   0   6   11.44    2.00   7
 -11   0   6   46.18    3.01   2
  11   0  -6   37.66    3.03   3
 -11   0   6   37.27    3.13   6
  11   0  -6   43.24    3.02   8
 -11   0   6   35.51    2.83   7
 -10   0   6   -0.14    0.82   2
 -10   0   6    0.77    0.91   7
 -10   0   6    0.65    1.40   6
  10   0  -6    0.36    0.85   2
  10   0  -6    0.06    1.15   3
  10   0  -6   -1.31    0.89   8
   9   0  -6  825.72   21.11   3
  -9   0   6  854.08   19.98   1
   9   0  -6  854.44   20.19   8
   9   0  -6  886.06   21.85   4
  -9   0   6  852.22   20.35   2
  -9   0   6  880.39   21.53   6
  -9   0   6  846.89   20.78   7
   9   0  -6  888.20   19.93   2
   8   0  -6   23.26    2.04   3
  -8   0   6   21.47    2.17   6
  -8   0   6   25.01    1.97   2
   8   0  -6   20.98    1.89   8
  -8   0   6   23.74    2.02   7
   8   0  -6   20.63    1.86   2
  -8   0   6   22.14    1.93   1
   8   0  -6   19.44    1.94   3
   7   0  -6   23.48    1.89   3
  -7   0   6   27.72    2.02   2
   7   0  -6   25.56    1.86   7
   7   0  -6   26.81    1.94   2
   7   0  -6   24.99    1.96   8
   7   0  -6   25.98    2.10   3
  -7   0   6   25.68    1.94   1
  -7   0   6   26.22    2.25   6
  -7   0   6   24.30    1.96   7
  -6   0   6   66.75    3.12   3
   6   0  -6   68.22    3.23   3
  -6   0   6   66.29    2.93   2
  -6   0   6   69.66    3.01   1
   6   0  -6   69.01    3.02   2
  -6   0   6   67.96    3.11   7
  -6   0   6   65.89    3.23   6
   6   0  -6   69.62    2.99   7
   6   0  -6   72.26    2.99   8
  -5   0   6  169.09    5.46   3
   5   0  -6  171.19    5.26   7
  -5   0   6  175.72    5.19   1
  -5   0   6  171.93    5.16   2
  -5   0   6  174.91    5.53   3
   5   0  -6  166.10    5.27   2
  -5   0   6  173.01    5.56   6
   5   0  -6  169.52    5.54   3
  -5   0   6  168.40    5.33   7
  -4   0   6   11.37    1.20   5
  -4   0   6   14.87    1.37   3
  -4   0   6   12.08    1.30   3
  -4   0   6   12.29    1.26   7
   4   0  -6   11.85    1.24   2
   4   0  -6   12.91    1.27   7
   4   0  -6   12.53    1.31   3
  -4   0   6   12.51    1.39   6
   4   0  -6   14.79    1.36   3
  -4   0   6   11.15    1.12   2
   3   0  -6  764.00   17.51   3
  -3   0   6  746.99   17.48   3
  -3   0   6  764.64   16.90   2
  -3   0   6  758.07   17.49   3
   3   0  -6  765.04   17.57   3
  -3   0   6  749.83   17.00   5
   3   0  -6  728.97   17.08   2
   3   0  -6  761.68   17.14   7
  -3   0   6  737.14   17.73   6
  -3   0   6  734.89   17.10   7
  -2   0   6  343.22    8.29   7
   2   0  -6  318.81    8.43   3
  -2   0   6  324.46    8.05   2
  -2   0   6  337.96    8.48   3
  -2   0   6  335.15    8.28   5
   2   0  -6  338.66    8.50   3
   2   0  -6  331.11    8.24   7
   2   0  -6  336.96    8.01   1
   2   0  -6  337.80    8.29   2
  -2   0   6  310.20    8.66   6
   1   0  -6  483.90   11.34   3
  -1   0   6  463.85   10.69   2
   1   0  -6  467.39   11.97   4
   1   0  -6  477.81   11.29   3
   1   0  -6  475.98   10.97   2
   1   0  -6  463.14   10.97   7
  -1   0   6  483.30   10.97   7
  -1   0   6  464.62   11.21   3
   1   0  -6  465.59   10.65   1
   1   0  -6  473.93   10.68   1
  -1   0   6  467.79   11.22   3
   0   0  -6  472.91   11.16   7
   0   0   6  483.03   11.45   3
   0   0  -6  481.88   10.87   1
   0   0  -6  493.66   10.88   1
   0   0   6  489.93   10.76   2
   0   0   6  479.36   11.38   3
   0   0  -6  504.40   11.53   3
   0   0  -6  496.51   12.58   4
   0   0  -6  500.11   11.16   2
  -1   0  -6   65.97    2.12   2
  -1   0  -6   65.94    2.32   3
   1   0   6   67.58    2.22   3
  -1   0  -6   64.58    2.19   1
  -1   0  -6   67.31    2.19   1
  -1   0  -6   71.45    2.96   4
   1   0   6   64.31    2.89   4
  -1   0  -6   61.63    2.14   7
   1   0   6   64.99    2.27   3
  -2   0  -6    0.16    0.34   7
   2   0   6    0.18    0.56   4
  -2   0  -6   -0.44    0.33   1
   2   0   6    0.21    0.30   3
  -2   0  -6    0.37    0.41   1
  -3   0  -6  131.77    3.32   7
  -3   0  -6  128.18    3.22   7
  -3   0  -6  127.58    3.32   1
   3   0   6  124.25    4.85   4
  -3   0  -6  122.85    3.17   1
   4   0   6  343.85   10.40   4
  -4   0  -6  343.80    7.47   1
  -4   0  -6  349.64    7.63   7
  -4   0  -6  359.75    7.71   7
  -4   0  -6  331.83    7.60   1
   5   0   6  107.68    4.83   4
   6   0   6  171.72    6.75   4
   7   0   6   49.22    3.49   4
  -8   0  -6   39.13    1.56   1
   8   0   6   41.95    3.38   4
  -8   0  -6   34.22    1.68   1
  -8   0  -6   45.64    3.38   6
   9   0   6   39.54    3.46   4
  -9   0  -6   37.59    1.69   1
  -9   0  -6   41.53    3.37   6
  -9   0  -6   41.02    1.80   7
  -9   0  -6   36.22    1.83   1
  10   0   6   28.16    3.34   4
 -10   0  -6   25.68    1.68   1
 -10   0  -6   26.11    1.54   1
 -10   0  -6   27.52    1.68   7
 -10   0  -6   22.04    3.00   6
 -11   0  -6   50.03    2.39   7
 -11   0  -6   50.23    4.20   6
 -11   0  -6   48.36    2.27   1
 -11   0  -6   49.47    2.23   1
 -12   0  -6   -0.02    0.80   1
 -12   0  -6    1.76    0.90   1
 -13   0  -6    1.35    0.96   1
 -13   0  -6    0.89    1.00   1
 -14  -1   6    4.63    1.71   7
 -14   1   6    6.72    1.83   7
 -14  -1   6   11.00    2.93   6
  14   1  -6    8.10    2.34   8
 -13   1   6    7.96    1.81   7
 -13  -1   6    5.09    1.69   7
  13   1  -6    9.21    2.26   3
  13   1  -6    6.43    2.01   8
 -13  -1   6    8.38    2.72   6
  12  -1  -6    7.12    1.81   3
 -12  -1   6    5.27    1.55   2
  12   1  -6   10.35    2.27   8
 -12  -1   6   11.11    2.13   7
  12   1  -6    8.56    2.19   3
 -12   1   6    9.05    1.82   7
 -12  -1   6    8.15    2.49   6
  11   1  -6    1.31    1.54   8
  11  -1  -6    0.95    1.22   3
 -11  -1   6    2.18    2.08   6
 -11   1   6   -0.57    0.92   7
 -11  -1   6    1.59    1.20   2
  11   1  -6    0.72    1.00   2
 -11  -1   6   -0.04    1.17   7
  11   1  -6    2.40    1.59   3
 -10  -1   6   56.37    3.64   7
  10   1  -6   55.73    3.85   8
 -10  -1   6   51.57    3.25   2
 -10   1   6   57.58    3.39   7
  10   1  -6   52.18    3.04   2
  10   1  -6   60.89    3.91   3
  10  -1  -6   50.53    3.25   3
 -10   1   6   55.59    3.25   2
 -10  -1   6   59.58    4.35   6
  -9   1   6    0.95    0.94   7
   9  -1  -6    2.64    1.27   3
  -9   1   6    1.84    1.05   1
  -9  -1   6    1.27    0.99   2
   9   1  -6   -0.28    1.47   8
   9  -1  -6    1.91    0.94   2
  -9  -1   6    0.33    1.00   7
  -9   1   6    1.67    1.08   2
   9   1  -6    0.82    1.09   2
   9   1  -6   -1.23    1.18   3
  -9  -1   6   -1.69    1.51   6
   8  -1  -6  171.19    5.90   3
  -8   1   6  159.30    5.67   7
  -8  -1   6  146.79    6.48   6
   8   1  -6  153.23    6.17   3
   8   1  -6  161.49    6.15   8
  -8   1   6  162.65    5.26   6
  -8   1   6  165.29    5.62   2
  -8  -1   6  160.23    6.01   7
  -8   1   6  157.58    5.52   1
   8  -1  -6  159.44    5.12   2
   8   1  -6  165.14    5.67   2
  -8  -1   6  152.21    5.59   2
   7   1  -6   74.00    3.82   3
  -7  -1   6   64.76    3.34   5
   7   1  -6   66.85    3.21   7
  -7   1   6   70.13    3.04   6
  -7   1   6   65.39    3.23   1
   7  -1  -6   70.29    3.09   2
   7   1  -6   65.54    3.31   2
  -7  -1   6   75.06    4.12   6
   7  -1  -6   71.11    3.56   3
  -7  -1   6   64.97    3.42   7
  -7  -1   6   72.66    3.34   2
  -7   1   6   64.76    3.23   7
   7  -1  -6   69.76    3.37   3
  -7   1   6   74.55    3.35   2
  -6  -1   6  111.02    4.39   7
  -6  -1   6  104.78    4.42   3
  -6  -1   6  106.69    4.19   5
   6  -1  -6  103.69    4.02   7
   6  -1  -6  102.31    4.24   3
  -6   1   6  105.86    4.05   1
  -6   1   6  108.70    3.78   6
  -6  -1   6  108.42    4.46   3
   6  -1  -6   99.97    3.82   2
  -6  -1   6   95.92    4.64   6
  -6   1   6   97.27    4.06   3
   6   1  -6  111.45    4.29   2
   6   1  -6  106.19    4.05   7
  -6  -1   6  102.11    4.06   1
  -6  -1   6  107.58    4.06   2
   6  -1  -6  102.81    4.13   3
  -6   1   6  104.44    3.98   2
  -6   1   6   98.14    3.99   7
   6   1  -6  103.43    4.50   3
   5   1  -6   51.36    2.60   7
  -5  -1   6   47.68    2.46   2
  -5  -1   6   46.22    2.64   7
  -5  -1   6   48.43    2.83   3
   5  -1  -6   46.26    2.55   3
   5  -1  -6   48.75    2.57   7
   5   1  -6   45.69    2.59   3
  -5  -1   6   43.54    2.96   6
  -5  -1   6   46.83    2.53   1
  -5   1   6   45.21    2.69   3
   5   1  -6   49.07    2.63   2
   5   1  -6   48.30    2.84   3
   5  -1  -6   44.89    2.38   2
  -5  -1   6   40.78    2.57   3
  -5   1   6   43.76    2.49   3
  -5   1   6   46.80    2.44   2
  -5   1   6   47.92    2.50   7
  -5  -1   6   46.83    2.55   5
  -5   1   6   48.64    2.55   1
   4  -1  -6  152.01    4.91   2
  -4  -1   6  143.49    4.81   2
  -4   1   6  153.69    4.88   1
   4   1  -6  149.80    5.03   2
  -4  -1   6  157.59    5.62   6
   4  -1  -6  151.72    4.98   7
  -4  -1   6  148.89    5.10   7
  -4   1   6  152.24    4.85   2
   4  -1  -6  150.18    5.10   3
  -4   1   6  154.83    5.12   3
   4   1  -6  151.02    5.37   3
  -4  -1   6  163.47    5.39   3
  -4  -1   6  155.43    5.08   5
   4   1  -6  157.41    5.23   3
  -4  -1   6  147.43    5.26   3
   4   1  -6  159.31    5.01   7
  -4   1   6  161.29    5.30   3
  -4   1   6  155.10    4.99   7
   3   1  -6  184.15    5.58   2
  -3   1   6  184.28    5.80   3
   3   1  -6  182.94    5.88   3
   3  -1  -6  177.97    5.68   3
   3   1  -6  191.71    5.51   1
   3  -1  -6  178.83    5.53   7
  -3   1   6  180.26    5.65   3
   3  -1  -6  188.52    5.53   2
  -3  -1   6  186.78    6.11   6
   3   1  -6  179.04    5.70   3
  -3  -1   6  192.81    5.68   7
  -3  -1   6  186.13    5.59   5
   3   1  -6  178.76    5.41   1
   3   1  -6  179.07    5.50   7
   3  -1  -6  171.86    5.72   3
  -3  -1   6  182.65    5.78   3
  -3   1   6  181.09    5.36   2
  -3   1   6  184.22    5.56   7
  -3  -1   6  178.01    5.29   2
  -2   1   6  137.54    3.81   4
  -2  -1   6  132.96    4.46   3
   2  -1  -6  137.35    4.35   1
  -2  -1   6  129.96    4.48   3
  -2   1   6  132.73    4.19   2
   2   1  -6  133.27    4.32   7
  -2  -1   6  135.87    4.29   7
  -2   1   6  136.27    4.54   3
   2   1  -6  131.94    4.21   1
  -2  -1   6  130.25    4.31   5
   2  -1  -6  131.41    4.33   2
   2   1  -6  134.10    4.60   3
  -2   1   6  130.31    4.36   7
   2  -1  -6  138.57    4.48   7
   2   1  -6  137.56    4.32   1
   2   1  -6  142.35    4.61   3
  -2  -1   6  132.33    4.10   2
   2  -1  -6  136.46    4.57   3
   2   1  -6  131.52    4.31   2
  -2  -1   6  138.10    4.83   6
   1  -1  -6   92.33    3.41   2
  -1   1   6   91.08    3.52   3
   1   1  -6   98.36    3.62   3
  -1  -1   6   93.67    3.24   7
  -1  -1   6   97.34    3.55   3
   1  -1  -6  100.95    3.49   1
  -1   1   6  100.19    3.53   7
   1   1  -6   97.49    3.38   2
  -1   1   6   98.75    3.29   2
   1  -1  -6  102.66    3.57   7
  -1  -1   6   97.33    3.39   5
  -1  -1   6   99.60    3.81   6
   1   1  -6   96.38    3.37   7
  -1  -1   6   92.85    3.42   3
   1   1  -6  104.77    3.41   1
  -1  -1   6   98.85    3.14   2
   1   1  -6   96.25    3.31   1
   1  -1  -6   96.87    3.68   3
  -1   1   6   95.16    3.21   4
   1  -1  -6   95.26    3.61   3
   0  -1  -6  148.27    4.85   3
   0  -1  -6  158.70    4.71   7
   0   1   6  144.60    4.55   7
   0   1  -6  161.79    4.77   3
   0  -1  -6  155.16    4.67   1
   0  -1  -6  144.26    4.57   2
   0   1  -6  154.45    4.38   1
   0   1  -6  149.09    4.37   1
   0  -1   6  160.75    5.06   6
   0  -1   6  157.89    4.50   5
   0   1  -6  146.50    4.32   2
   0   1  -6  146.32    4.43   7
   0  -1  -6  150.41    4.59   1
   0  -1   6  152.26    3.90   2
   0   1   6  144.56    4.67   3
   0   1   6  150.84    4.79   4
   0  -1   6  148.57    4.45   3
   0   1   6  151.12    4.26   2
  -1   1  -6  112.48    3.45   7
   1   1   6  105.25    4.03   4
  -1  -1  -6  108.52    3.67   1
  -1   1  -6  110.84    3.28   2
  -1  -1  -6  110.12    3.76   1
  -1   1  -6  108.11    3.31   1
  -1  -1  -6  110.99    3.70   2
  -1   1  -6  110.51    3.39   1
  -1  -1  -6  115.04    4.01   3
  -1  -1  -6  111.23    3.69   7
   1   1   6  108.49    3.19   2
   1   1   6  106.29    3.70   3
   1  -1   6  114.15    3.47   5
   1  -1   6  108.59    3.30   3
   2   1   6  431.61   10.65   3
   2   1   6  435.52    9.53   2
  -2   1  -6  428.37   10.09   7
   2  -1   6  428.24    9.91   3
   2   1   6  430.67   12.02   4
  -2  -1  -6  461.56   11.17   3
  -2  -1  -6  431.92   10.46   1
  -2   1  -6  434.15    9.90   1
  -2   1  -6  427.82    9.75   1
  -2  -1  -6  430.99   10.54   7
  -2  -1  -6  431.83   10.35   1
  -2  -1  -6  447.61   10.54   2
   2  -1   6  441.43   10.08   5
  -3   1  -6    6.16    0.67   7
   3   1   6    4.34    1.08   4
  -3  -1  -6    5.32    0.85   2
  -3  -1  -6    5.11    0.93   1
  -3  -1  -6    4.40    0.86   7
  -3   1  -6    4.76    0.67   7
  -3  -1  -6    3.92    0.87   5
  -3  -1  -6    4.71    0.93   1
  -3   1  -6    5.09    0.70   1
  -3   1  -6    4.45    0.60   1
   3   1   6    6.53    0.87   3
   3  -1   6    5.40    0.67   5
  -4   1  -6  134.38    3.37   1
  -4  -1  -6  127.83    4.18   1
  -4  -1  -6  129.13    4.28   1
  -4   1  -6  132.35    3.46   7
  -4   1  -6  140.26    3.40   7
   4   1   6  127.16    5.39   4
   4   1   6  135.69    3.98   3
  -4  -1  -6  139.45    4.11   2
   4  -1   6  134.34    3.54   5
  -4  -1  -6  125.98    4.13   7
  -4   1  -6  131.91    3.50   1
   5   1   6   12.16    1.03   3
  -5  -1  -6   14.78    1.43   1
   5   1   6   12.16    1.08   3
  -5   1  -6   13.47    0.87   1
  -5  -1  -6   15.46    1.46   1
  -5  -1  -6   15.28    1.38   7
   5   1   6   12.25    1.84   4
   5  -1   6   13.13    0.82   5
  -6  -1  -6   46.27    3.44   6
  -6  -1  -6   50.52    2.57   1
   6   1   6   51.67    1.76   3
  -6  -1  -6   53.78    2.65   1
  -6  -1  -6   51.49    2.54   7
   6   1   6   46.79    3.40   4
   6   1   6   55.01    1.76   3
  -7  -1  -6  181.31    5.48   1
  -7  -1  -6  169.48    5.39   1
   7   1   6  160.01    7.07   4
  -7  -1  -6  173.55    5.45   7
  -7  -1  -6  172.93    7.06   6
  -8  -1  -6  119.58    4.36   1
  -8  -1  -6  115.28    4.33   7
   8   1   6  117.53    6.04   4
  -8  -1  -6  121.29    4.37   1
  -8  -1  -6  114.25    5.75   6
  -9  -1  -6    8.99    1.53   7
  -9  -1  -6    5.67    1.32   1
   9   1   6    7.40    2.12   4
  -9  -1  -6    8.53    2.37   6
  -9  -1  -6    6.73    1.45   1
 -10  -1  -6    1.20    1.17   1
 -10  -1  -6   -0.23    0.98   1
 -10  -1  -6    0.12    1.06   7
 -10  -1  -6    1.21    1.86   6
 -11   1  -6    9.99    0.91   1
 -11  -1  -6   10.83    1.75   1
 -11  -1  -6   11.18    1.78   7
 -11  -1  -6   11.39    1.73   1
 -11  -1  -6   10.07    2.80   6
 -12  -1  -6    5.58    1.66   7
 -12   1  -6    6.82    0.94   1
 -12  -1  -6    9.19    1.74   1
 -12  -1  -6    8.52    2.87   6
 -12  -1  -6    7.64    1.70   1
 -13  -2   6   -1.56    1.43   7
 -13   2   6    1.06    1.36   7
 -13  -2   6   -0.06    1.44   2
 -13  -2   6    4.95    2.57   6
  13   2  -6    3.58    2.20   8
 -12  -2   6    1.19    1.54   7
 -12  -2   6    3.28    1.66   2
  12   2  -6    1.73    1.92   8
 -12  -2   6    5.84    2.56   6
 -12   2   6    1.93    1.39   7
 -11  -2   6   40.60    4.38   6
 -11  -2   6   42.56    3.68   7
  11  -2  -6   54.00    3.52   3
  11   2  -6   54.99    3.33   2
 -11  -2   6   50.69    3.68   2
 -11   2   6   40.59    3.30   7
  11   2  -6   54.94    4.34   8
  10   2  -6   40.03    2.98   2
  10  -2  -6   42.54    3.14   3
 -10   2   6   44.40    3.17   2
  10   2  -6   37.70    3.77   8
 -10   2   6   40.39    3.11   7
 -10  -2   6   42.34    3.22   2
 -10  -2   6   46.44    4.40   6
 -10  -2   6   41.81    3.39   7
  -9  -2   6   13.48    2.30   7
  -9   2   6   10.55    1.75   2
   9   2  -6   10.42    2.53   8
  -9  -2   6   10.45    1.93   2
  -9   2   6   14.47    2.02   7
  -9  -2   6   16.11    2.88   6
   9   2  -6   13.90    2.11   2
   9  -2  -6   14.50    1.50   2
   9  -2  -6   15.00    2.01   3
   8  -2  -6   42.13    2.49   2
  -8  -2   6   41.23    3.00   2
  -8   2   6   46.43    3.04   7
  -8  -2   6   42.05    3.88   6
   8   2  -6   52.13    3.38   2
  -8   2   6   48.31    3.04   2
  -8  -2   6   45.02    3.34   7
   8  -2  -6   48.31    3.14   3
  -7  -2   6    4.29    1.39   5
   7   2  -6    7.20    1.58   7
  -7   2   6    4.58    1.29   2
  -7  -2   6    7.99    2.18   6
  -7   2   6    7.46    1.52   7
   7  -2  -6    6.92    1.51   3
  -7  -2   6    6.39    1.43   2
  -7  -2   6    5.40    1.58   7
   7  -2  -6    6.02    1.22   2
   7   2  -6    7.08    1.64   2
   6   2  -6   36.36    2.75   2
  -6   2   6   39.26    2.69   7
  -6  -2   6   43.52    2.77   2
  -6  -2   6   36.13    3.35   6
  -6   2   6   36.52    2.59   2
  -6  -2   6   37.37    2.80   7
  -6  -2   6   39.47    2.82   5
   6  -2  -6   39.43    2.46   2
   6   2  -6   39.46    2.78   7
   6  -2  -6   38.92    2.77   3
  -5  -2   6  348.79    9.95   7
  -5  -2   6  313.83    9.27   2
  -5  -2   6  328.49   10.50   6
   5  -2  -6  327.68    9.68   3
   5  -2  -6  334.59    9.18   2
  -5   2   6  330.01    9.37   2
   5  -2  -6  322.44    9.56   7
   5   2  -6  321.03    9.58   2
   5   2  -6  326.90    9.52   7
  -5  -2   6  318.14    9.52   5
  -5   2   6  327.89    9.53   7
   4  -2  -6   26.61    2.06   2
   4  -2  -6   25.01    2.33   7
  -4  -2   6   28.31    2.27   5
  -4  -2   6   29.55    2.79   6
   4   2  -6   28.32    2.29   7
  -4   2   6   27.08    2.17   2
  -4  -2   6   29.71    2.21   2
  -4   2   6   27.44    2.24   7
  -4  -2   6   28.76    2.37   7
   4   2  -6   27.04    2.34   2
   4  -2  -6   28.14    2.34   3
  -3  -2   6  103.43    4.31   7
  -3  -2   6  103.53    4.25   5
   3   2  -6   94.37    4.21   2
  -3   2   6   96.17    4.19   7
   3  -2  -6   95.71    3.99   2
  -3   2   6   98.72    4.26   7
  -3   2   6  105.84    4.53   3
  -3  -2   6  103.31    4.69   6
   3  -2  -6   92.20    4.24   3
  -3   2   6  101.20    3.29   4
   3   2  -6  100.47    4.34   1
  -3   2   6  101.94    4.10   2
  -3  -2   6   97.86    4.00   2
   3  -2  -6  108.42    4.47   7
   3   2  -6   98.97    4.19   7
   2  -2  -6   14.57    1.94   3
  -2   2   6   14.84    1.71   7
  -2   2   6   14.63    1.76   3
  -2  -2   6   13.77    1.44   2
  -2   2   6   13.23    1.23   4
   2   2  -6   16.31    1.80   1
  -2   2   6   13.71    0.93   8
  -2  -2   6    8.74    1.49   3
  -2  -2   6    9.86    1.43   5
   2  -2  -6   11.34    1.48   2
  -2  -2   6   13.16    1.64   7
  -2  -2   6   10.92    1.72   6
   2   2  -6   13.10    1.57   2
   2   2  -6   12.61    1.77   3
  -2   2   6   14.14    1.57   2
   2  -2  -6   13.54    1.76   3
   2  -2  -6   11.06    1.67   7
   2   2  -6   12.52    1.59   7
  -1   2   6   73.34    3.29   2
   1   2  -6   74.85    3.42   2
   1  -2  -6   73.70    3.62   7
   1  -2  -6   73.19    3.41   2
  -1   2   6   76.62    2.62   8
   1  -2  -6   77.00    3.56   1
   1   2  -6   77.72    3.48   1
   1   2  -6   70.86    3.35   7
  -1  -2   6   71.35    3.48   3
  -1  -2   6   77.38    3.49   5
  -1  -2   6   75.50    3.06   2
  -1  -2   6   77.80    3.37   7
   1   2  -6   72.14    3.46   1
   1  -2  -6   81.57    4.16   3
  -1   2   6   73.91    3.71   3
  -1   2   6   78.08    3.24   4
  -1  -2   6   70.95    3.61   6
   1  -2  -6   72.25    3.70   3
   1   2  -6   75.53    3.88   3
  -1   2   6   77.68    3.60   7
   0   2   6   28.70    1.76   8
   0  -2  -6   28.55    2.15   2
   0   2   6   27.15    1.94   2
   0  -2  -6   25.23    2.22   1
   0   2   6   29.91    2.27   7
   0   2  -6   29.70    2.14   2
   0   2   6   31.70    2.45   3
   0  -2  -6   29.78    2.31   7
   0  -2   6   29.37    1.69   2
   0  -2   6   30.41    2.12   3
   0  -2   6   28.36    2.07   5
   0   2  -6   31.10    2.54   3
   0   2   6   29.02    2.10   4
   0  -2  -6   30.25    2.53   3
   0   2  -6   28.70    2.09   1
   0   2  -6   23.53    1.89   7
   0  -2   6   29.58    2.23   6
   0   2  -6   26.98    2.11   1
  -1   2  -6   97.68    3.86   2
   1   2   6  102.76    3.78   8
  -1  -2  -6   96.56    4.21   7
   1  -2   6   95.09    3.88   5
   1   2   6   98.86    3.72   2
  -1  -2  -6  100.32    4.27   1
  -1   2  -6  100.11    4.00   1
   1  -2   6   99.58    4.07   6
  -1  -2  -6  109.43    4.29   2
  -1   2  -6  100.38    3.92   7
   1   2   6  102.70    4.40   4
   1   2   6  102.21    4.18   7
   1  -2   6  101.32    2.75   2
   1  -2   6  106.06    3.94   3
  -1   2  -6  102.35    3.96   1
   1   2   6   99.84    4.37   3
   2   2   6  190.88    6.93   4
   2  -2   6  195.97    5.98   5
   2   2   6  204.54    6.31   7
  -2   2  -6  183.14    5.92   7
  -2  -2  -6  197.68    6.50   1
  -2  -2  -6  180.32    6.76   6
   2   2   6  189.60    6.51   3
  -2  -2  -6  200.42    6.40   2
   2   2   6  185.26    5.62   2
   2   2   6  192.74    6.06   8
   2  -2   6  204.76    5.85   3
  -2   2  -6  193.41    5.93   1
   2  -2   6  199.21    6.16   6
  -2   2  -6  201.15    6.04   1
  -2  -2  -6  185.16    6.45   7
  -2   2  -6  186.69    5.74   2
  -2  -2  -6  195.73    6.57   5
   3   2   6    1.49    1.04   8
   3   2   6   -0.15    0.88   4
  -3   2  -6    1.79    1.03   1
   3   2   6    2.42    1.15   3
  -3   2  -6    1.80    0.85   1
  -3  -2  -6    2.29    1.37   6
   3  -2   6    1.58    0.73   3
   3  -2   6    1.59    0.82   5
  -3  -2  -6    1.77    1.05   7
  -3   2  -6    2.93    0.94   7
   3   2   6    2.78    0.79   2
  -3  -2  -6    1.36    1.12   1
  -3  -2  -6    2.64    1.02   2
   4  -2   6   25.00    1.34   3
   4   2   6   25.40    2.58   4
  -4  -2  -6   24.70    2.23   1
   4  -2   6   22.55    1.28   3
  -4  -2  -6   22.37    2.64   6
  -4  -2  -6   25.07    2.14   2
   4   2   6   22.01    1.39   2
  -4   2  -6   30.23    1.92   7
  -4  -2  -6   22.44    2.19   7
  -4   2  -6   26.02    1.96   1
   4   2   6   26.19    2.34   8
   4   2   6   27.24    2.29   3
   4  -2   6   25.76    1.82   5
  -4   2  -6   22.68    1.85   1
  -5   2  -6   13.25    1.42   7
   5   2   6   12.79    1.93   8
  -5   2  -6   12.98    1.46   1
  -5   2  -6   11.65    1.45   1
   5  -2   6   12.25    1.36   5
   5   2   6   11.42    1.66   3
  -5  -2  -6   13.46    1.92   1
  -5  -2  -6    9.72    1.55   2
  -5  -2  -6    6.02    1.95   6
   5   2   6   13.28    2.13   4
  -5  -2  -6    8.66    1.66   7
   6   2   6   58.79    3.21   3
  -6  -2  -6   58.51    3.52   7
  -6   2  -6   57.12    2.82   1
  -6   2  -6   59.87    2.73   7
  -6  -2  -6   69.06    4.48   6
   6   2   6   57.52    4.06   4
   6  -2   6   59.23    2.69   5
   6   2   6   54.84    3.67   8
  -6  -2  -6   59.14    3.52   1
   6   2   6   61.54    3.22   3
  -6   2  -6   58.22    2.83   1
   7   2   6   59.28    3.10   3
  -7  -2  -6   64.07    3.71   1
  -7  -2  -6   50.94    4.23   6
   7   2   6   64.12    3.21   3
  -7   2  -6   55.87    2.82   1
   7  -2   6   61.49    2.66   5
  -7   2  -6   58.32    2.79   1
   7   2   6   67.23    4.12   8
  -7   2  -6   62.34    2.75   7
   7   2   6   54.12    4.13   4
  -7  -2  -6   55.59    3.51   7
   8   2   6   15.77    2.46   8
  -8  -2  -6   16.39    2.23   1
  -8   2  -6   16.00    1.49   7
   8  -2   6   13.92    1.33   5
  -8   2  -6   14.65    1.53   1
  -8  -2  -6   10.84    2.59   6
  -8   2  -6   12.69    1.51   1
  -8  -2  -6   12.48    2.08   7
   8   2   6   13.62    1.63   3
   8   2   6   15.24    1.58   3
  -9  -2  -6    9.50    1.97   1
  -9  -2  -6   10.19    2.76   6
   9   2   6    7.11    1.24   3
  -9  -2  -6    6.15    1.84   7
   9   2   6    7.97    1.21   3
   9   2   6    7.06    2.11   8
   9  -2   6    6.84    1.02   5
  -9   2  -6    7.50    1.31   1
  -9   2  -6    7.93    1.17   7
  -9   2  -6    7.57    1.29   1
 -10  -2  -6    2.58    1.72   1
 -10   2  -6    2.27    0.95   7
  10   2   6    2.24    0.74   3
  10   2   6    1.75    1.77   8
 -10   2  -6    1.20    1.00   1
 -10  -2  -6    1.19    1.46   7
 -10  -2  -6    2.41    2.36   6
 -10   2  -6    2.58    0.97   7
 -10   2  -6    3.11    1.12   1
 -11  -2  -6    0.19    2.29   6
 -11  -2  -6    0.53    1.72   1
 -11   2  -6    1.18    0.99   7
 -11   2  -6    2.19    1.03   1
 -11   2  -6    1.35    1.09   1
 -11  -2  -6    1.88    1.50   7
  11   2   6    0.02    1.68   8
 -11  -3   6   25.24    3.52   7
  11   3  -6   27.23    3.85   8
 -11  -3   6   29.56    4.32   6
 -11   3   6   30.51    3.33   7
 -11  -3   6   21.16    3.04   2
  11   3  -6   32.23    3.08   2
  10   3  -6   27.94    2.98   2
 -10   3   6   29.05    3.17   7
  10  -3  -6   28.07    3.00   3
 -10  -3   6   25.64    3.16   2
 -10  -3   6   26.56    3.45   7
  10   3  -6   23.72    3.46   8
 -10  -3   6   36.03    4.42   6
  -9  -3   6   61.18    4.51   7
  -9  -3   6   61.56    4.18   2
   9  -3  -6   57.87    3.95   3
  -9  -3   6   62.73    5.10   6
  -9   3   6   56.51    4.04   7
   9   3  -6   56.42    4.76   8
   9   3  -6   53.84    3.82   2
  -8  -3   6   -0.38    1.12   2
  -8  -3   6    1.32    1.54   7
   8   3  -6    0.92    1.31   2
   8  -3  -6   -0.04    1.25   3
  -8  -3   6    0.02    1.87   6
  -8   3   6    2.98    1.57   2
   8  -3  -6    0.50    0.99   2
  -8   3   6    2.36    1.37   7
  -7   3   6    0.28    1.11   7
  -7  -3   6    1.19    1.19   2
   7  -3  -6    0.30    0.94   2
  -7   3   6    0.15    1.02   7
   7   3  -6   -1.45    1.17   2
  -7   3   6    1.54    1.33   2
  -7  -3   6    1.66    1.39   7
  -7  -3   6    1.41    2.00   6
  -6   3   6   -0.70    0.87   7
   6   3  -6    0.64    1.23   7
  -6   3   6    0.22    1.02   7
  -6  -3   6    1.04    1.41   7
  -6  -3   6    0.57    1.57   6
  -6  -3   6    3.33    1.40   2
  -6  -3   6    0.26    1.16   5
   6  -3  -6   -0.11    0.95   2
  -6   3   6    0.43    1.19   2
   6   3  -6    0.76    1.30   2
   5  -3  -6   13.31    1.86   2
   5   3  -6   14.29    2.28   7
  -5  -3   6   10.55    1.95   5
   5   3  -6    9.16    1.93   2
  -5  -3   6   14.61    2.35   7
  -5   3   6   14.94    2.13   2
  -5  -3   6   12.57    2.00   2
  -5   3   6   10.70    2.01   7
  -5  -3   6   11.69    2.53   6
  -4   3   6    0.98    1.23   7
  -4  -3   6    1.11    1.13   5
  -4   3   6   -0.21    1.07   2
   4   3  -6    0.41    1.22   2
   4   3  -6    0.58    1.15   7
  -4  -3   6    1.55    1.45   7
   4  -3  -6    0.73    1.03   2
  -4  -3   6    0.22    1.04   2
  -4  -3   6    0.91    1.56   6
  -3   3   6  103.20    4.76   2
  -3   3   6   90.21    4.80   7
   3   3  -6  111.55    5.13   2
   3   3  -6   96.83    4.88   7
   3  -3  -6   93.30    4.47   2
   3  -3  -6  110.02    5.30   7
  -3  -3   6  103.90    4.62   2
  -3  -3   6  108.95    5.07   5
  -3  -3   6  100.25    5.23   6
  -2  -3   6   44.21    3.23   5
  -2   3   6   37.58    2.91   2
   2  -3  -6   46.35    3.08   2
   2  -3  -6   41.92    2.93   6
  -2  -3   6   45.64    2.90   2
  -2   3   6   49.31    3.35   7
   2  -3  -6   45.19    3.37   7
  -2  -3   6   38.26    3.31   6
   2   3  -6   39.98    3.07   2
   2   3  -6   46.55    3.23   7
  -1  -3   6    7.89    1.39   2
   1  -3  -6    8.77    1.71   2
  -1   3   6    8.35    1.92   7
  -1  -3   6    7.81    1.67   5
   1   3  -6    8.37    1.76   7
   1  -3  -6    7.88    1.89   6
   1   3  -6   10.30    1.83   2
  -1   3   6   10.28    1.82   2
  -1  -3   6   10.44    1.88   6
   1  -3  -6    8.12    1.95   7
   0  -3   6   12.62    1.46   2
   0  -3  -6   11.59    2.20   7
   0  -3  -6   12.21    2.12   6
   0  -3   6   10.54    1.88   6
   0   3  -6    9.55    1.81   2
   0  -3  -6   11.83    2.12   5
   0  -3  -6    9.22    1.80   2
   0   3  -6   17.93    2.19   7
   0   3   6    9.52    1.73   2
   0   3   6   14.91    2.20   7
   0  -3   6   12.31    1.92   5
  -1  -3  -6   18.47    2.27   2
   1  -3   6   24.34    2.36   6
   1   3   6   26.33    2.24   8
  -1  -3  -6   21.46    2.75   6
  -1   3  -6   23.69    2.45   7
   1  -3   6   18.95    2.22   5
  -1   3  -6   26.27    2.77   1
   1   3   6   24.59    2.36   2
  -1  -3  -6   24.34    2.83   7
  -1   3  -6   25.43    2.43   2
   1  -3   6   22.68    1.57   2
  -2   3  -6   58.55    3.44   2
  -2   3  -6   59.80    3.88   1
  -2   3  -6   64.10    3.62   7
  -2  -3  -6   66.37    4.22   7
   2   3   6   57.49    3.47   8
   2   3   6   64.29    3.48   2
  -2  -3  -6   54.09    3.66   2
   2  -3   6   65.21    3.68   5
  -2  -3  -6   58.88    4.09   6
  -3  -3  -6   88.99    5.19   6
   3   3   6   94.08    5.11   3
  -3  -3  -6   94.21    4.77   2
  -3   3  -6   90.47    4.46   7
  -3   3  -6   98.33    4.75   1
   3   3   6   94.60    5.31   4
   3   3   6   99.59    4.72   8
   3   3   6   91.54    4.07   2
  -3  -3  -6   98.10    5.17   7
   3  -3   6   91.40    4.47   5
   3  -3   6   95.85    4.28   3
  -4  -3  -6   72.81    4.87   6
   4   3   6   65.18    4.57   4
   4   3   6   75.75    4.21   8
  -4  -3  -6   68.70    4.12   2
  -4  -3  -6   63.05    4.31   7
   4  -3   6   72.93    3.41   3
   4  -3   6   68.11    3.77   5
  -4   3  -6   66.91    3.88   1
   4  -3   6   73.96    3.46   3
   4   3   6   73.10    3.34   2
  -4   3  -6   71.30    3.88   7
   4   3   6   70.30    4.43   3
   5  -3   6    0.90    0.83   3
  -5  -3  -6   -0.79    1.32   7
   5   3   6    0.68    1.36   8
   5   3   6    1.30    1.46   3
   5  -3   6    0.37    1.18   5
  -5   3  -6    1.97    1.50   1
   5   3   6   -1.56    0.91   2
  -5   3  -6    0.27    1.10   7
   5  -3   6    0.54    0.87   3
  -5  -3  -6   -0.38    1.62   6
   5   3   6    0.18    1.30   4
  -5  -3  -6    1.57    1.34   2
   6  -3   6    0.54    0.60   3
   6   3   6    0.30    1.39   8
   6  -3   6    0.78    0.63   3
  -6   3  -6    1.24    1.11   7
  -6  -3  -6   -0.23    1.31   7
  -6   3  -6    1.46    1.38   1
   6   3   6    1.42    1.50   3
  -6  -3  -6    1.08    1.87   6
  -6  -3  -6    1.84    1.28   2
   6  -3   6    0.04    1.09   5
   7   3   6    7.10    1.94   3
   7  -3   6    9.87    1.73   5
  -7   3  -6   10.63    1.81   7
  -7  -3  -6   11.13    2.40   7
   7   3   6    6.70    2.06   8
  -7   3  -6    5.40    1.64   1
  -7  -3  -6   11.06    2.81   6
   8   3   6   30.89    3.02   3
   8  -3   6   19.02    2.23   5
  -8   3  -6   30.82    2.71   7
   8   3   6   22.28    3.13   8
  -8   3  -6   29.34    2.70   1
  -8  -3  -6   33.43    3.52   7
  -8  -3  -6   27.49    3.98   6
  -9   3  -6   16.42    2.27   1
  -9   3  -6   19.53    2.32   7
   9  -3   6   21.66    2.22   5
  -9  -3  -6   20.15    3.80   6
   9   3   6   16.72    2.94   8
  -9  -3  -6   18.17    3.03   7
  -8   4   6    3.95    2.11   7
  -8  -4   6    1.34    1.52   2
   8   4  -6    3.65    2.01   2
  -8   4   6    2.07    1.70   2
  -8  -4   6    1.70    2.41   6
  -7   4   6   -0.53    1.60   7
  -7  -4   6   -0.62    1.42   2
  -7   4   6   -0.26    1.42   2
   7   4  -6    0.58    1.73   2
  -7  -4   6   -0.45    2.22   6
  -6  -4   6    6.00    2.56   6
   6  -4  -6    5.89    1.78   2
  -6  -4   6    2.30    1.71   2
  -6   4   6    4.07    1.97   7
   6   4  -6    4.27    1.92   2
  -6   4   6    4.38    2.00   2
  -5  -4   6    7.53    2.63   6
  -5  -4   6    5.34    1.84   2
   5   4  -6   11.15    2.43   2
   5  -4  -6    6.33    1.81   2
  -5   4   6    5.83    2.16   7
  -5   4   6    5.25    1.95   2
  -4   4   6   18.76    2.91   7
   4   4  -6   13.62    2.75   7
   4  -4  -6   19.12    2.53   2
  -4  -4   6   16.41    2.47   2
  -4  -4   6   15.35    2.67   5
   4   4  -6   14.60    2.68   2
  -4  -4   6   14.11    2.96   6
  -4   4   6   19.41    2.76   2
   3   4  -6   10.91    2.53   7
  -3  -4   6   11.76    2.21   2
  -3   4   6    8.65    2.30   7
  -3   4   6   12.00    2.36   2
  -3  -4   6    9.76    2.25   5
   3  -4  -6   10.21    2.08   2
  -3  -4   6   12.62    2.73   6
   3  -4  -6    8.52    2.33   5
   3   4  -6   16.12    2.72   2
  -2  -4   6   33.42    3.38   6
  -2   4   6   34.64    3.33   2
   2   4  -6   37.08    3.62   7
  -2  -4   6   32.48    3.39   5
  -2  -4   6   29.03    2.78   2
   2  -4  -6   22.98    2.77   2
   2   4  -6   33.34    3.43   2
   2  -4  -6   22.90    3.20   5
  -2   4   6   27.33    3.35   7
   1   4  -6    9.75    2.29   7
  -1  -4   6    7.71    1.68   2
  -1  -4   6   10.33    2.29   5
  -1   4   6    7.06    2.03   2
   1   4  -6   12.75    2.43   2
   1  -4  -6    8.96    2.13   2
   0  -4  -6    3.53    2.03   7
   0  -4  -6    2.07    1.57   2
   0  -4   6    1.58    1.16   2
   0   4   6    4.14    1.76   2
   0  -4   6    3.92    1.76   5
   0   4  -6    3.56    1.70   7
   0   4  -6    5.73    1.92   2
  -1   4  -6    3.03    1.63   7
   1  -4   6    1.79    1.47   5
  -1  -4  -6    3.28    2.05   7
  -1   4  -6    6.22    1.99   2
  -1  -4  -6    1.17    1.49   2
   1   4   6    5.86    1.78   2
   2  -4   6   15.41    2.60   5
  -2  -4  -6   18.37    3.20   6
  -2  -4  -6   18.86    3.14   7
  -2   4  -6   18.36    2.76   7
  -2  -4  -6   16.78    2.74   2
   2   4   6   18.15    2.48   2
  -3  -4  -6    1.06    2.16   6
  -3  -4  -6    2.32    1.64   2
  -3  -4  -6    4.87    2.25   7
  -3   4  -6   -0.34    1.41   7
   3  -4   6    0.64    1.53   5
   3  -4   6    1.94    1.70   3
   3   4   6    1.95    1.58   2
  -4  -4  -6   25.11    3.19   2
  -4  -4  -6   17.92    3.22   7
  -4   4  -6   23.98    3.09   7
   4  -4   6   20.70    2.85   5
  -4  -4  -6   16.32    3.39   6
   4   4   6   20.72    2.46   2
   5   4   6    7.03    2.22   8
  -5  -4  -6   12.91    2.67   2
   5   4   6    7.94    1.74   2
   5  -4   6    9.35    2.28   5
  -5   4  -6   10.38    2.37   7
  -5  -4  -6    7.14    2.86   6
  -5  -4  -6   15.01    3.04   7
  -6  -4  -6   -0.24    1.53   2
  -6  -4  -6    1.04    1.92   7
   6   4   6   -0.25    1.59   8
   6  -4   6   -1.15    1.46   5
  -6   4  -6    0.25    1.47   7
  -6  -4  -6   -0.99    2.24   6
 -14   0   7    0.23    1.19   7
 -13   0   7    2.05    1.25   7
  13   0  -7   -0.51    1.53   3
  12   0  -7    4.95    1.86   3
 -12   0   7    6.52    1.63   2
 -12   0   7    6.31    1.66   7
  11   0  -7    3.27    1.59   3
 -11   0   7    3.39    1.29   2
 -11   0   7    3.04    1.26   7
 -11   0   7    3.42    1.66   6
  10   0  -7   23.09    2.01   2
  10   0  -7   20.32    2.34   3
 -10   0   7   25.74    2.30   2
 -10   0   7   17.52    2.17   7
  10   0  -7   19.94    2.13   8
 -10   0   7   23.11    2.49   6
  -9   0   7  679.29   17.55   6
   9   0  -7  668.82   16.28   8
  -9   0   7  680.52   17.14   7
   9   0  -7  669.47   17.42   3
  -9   0   7  652.58   16.55   2
   9   0  -7  681.11   16.39   2
  -8   0   7   28.74    2.18   2
   8   0  -7   27.78    2.38   3
  -8   0   7   28.47    2.50   6
   8   0  -7   29.06    2.20   2
   8   0  -7   27.68    2.23   8
  -8   0   7   30.58    2.35   7
   7   0  -7   54.57    2.84   7
   7   0  -7   56.14    3.13   3
   7   0  -7   51.51    2.82   8
  -7   0   7   55.35    2.96   7
  -7   0   7   57.56    2.91   1
  -7   0   7   60.21    3.33   6
  -7   0   7   57.18    2.86   2
   7   0  -7   55.21    2.88   2
   6   0  -7    3.79    1.11   3
  -6   0   7    4.59    1.01   1
  -6   0   7    4.39    1.14   3
  -6   0   7    3.46    1.02   7
   6   0  -7    2.85    0.95   2
  -6   0   7    4.62    1.26   6
   6   0  -7    4.35    1.03   7
  -6   0   7    4.34    1.05   3
  -6   0   7    2.94    0.90   2
   5   0  -7  307.77    8.49   2
   5   0  -7  310.60    8.66   3
   5   0  -7  320.46    8.51   7
  -5   0   7  301.80    8.45   7
  -5   0   7  314.65    8.84   6
  -5   0   7  314.61    8.27   1
  -5   0   7  314.27    8.77   3
  -5   0   7  321.81    8.80   3
   5   0  -7  303.61    8.78   3
  -5   0   7  306.56    8.27   2
   4   0  -7  767.98   17.86   7
  -4   0   7  778.52   18.35   3
  -4   0   7  790.24   18.00   7
   4   0  -7  762.65   18.39   3
   4   0  -7  765.09   17.91   2
  -4   0   7  766.00   17.66   2
   4   0  -7  786.48   18.39   3
  -4   0   7  769.71   18.33   3
  -4   0   7  764.96   18.55   6
  -3   0   7  561.14   13.04   7
   3   0  -7  543.12   13.31   3
   3   0  -7  534.86   12.99   2
   3   0  -7  546.31   12.61   1
   3   0  -7  539.56   13.32   3
  -3   0   7  538.00   13.27   3
  -3   0   7  535.31   12.72   2
  -3   0   7  534.17   13.55   6
   3   0  -7  542.66   12.99   7
   2   0  -7 1174.42   25.77   7
  -2   0   7 1144.01   26.79   6
  -2   0   7 1214.29   25.77   7
  -2   0   7 1162.49   26.26   3
   2   0  -7 1170.95   25.75   2
   2   0  -7 1173.15   26.30   3
  -2   0   7 1168.37   25.41   2
   2   0  -7 1155.87   24.91   1
   2   0  -7 1159.48   26.31   3
   1   0  -7   87.63    3.25   3
  -1   0   7   93.16    3.29   3
  -1   0   7   92.31    3.12   7
   1   0  -7   90.16    3.43   4
  -1   0   7   92.06    2.91   2
   1   0  -7   94.44    3.13   1
   1   0  -7   90.76    3.15   2
   1   0  -7   95.82    3.22   7
  -1   0   7   96.75    3.30   3
   0   0  -7  324.57    7.88   1
   0   0   7  323.02    8.21   3
   0   0  -7  321.63    8.06   7
   0   0  -7  325.73    9.17   4
   0   0  -7  343.28    8.11   2
   0   0   7  338.21    8.34   3
   0   0  -7  339.62    7.93   1
   0   0   7  323.09    7.52   2
   0   0  -7  334.53    8.37   3
  -1   0  -7    0.65    0.46   2
  -1   0  -7    1.42    0.50   7
   1   0   7    0.50    0.42   3
  -1   0  -7    1.08    0.53   1
  -1   0  -7    0.22    0.45   1
   1   0   7    0.38    0.49   3
   2   0   7  112.57    4.47   4
  -2   0  -7  112.09    3.22   7
   2   0   7  109.21    3.10   3
  -2   0  -7  112.13    3.17   1
  -2   0  -7  109.36    3.23   1
  -3   0  -7 1218.48   25.16   1
  -3   0  -7 1229.84   25.31   1
  -3   0  -7 1227.56   25.98   7
   3   0   7 1195.03   30.19   4
  -4   0  -7   99.92    2.76   1
  -4   0  -7  100.17    2.88   1
  -4   0  -7  106.38    2.89   7
  -4   0  -7  100.08    2.74   7
   4   0   7   98.66    4.57   4
  -5   0  -7   56.72    1.99   1
   5   0   7   70.28    3.88   4
  -5   0  -7   64.54    1.96   7
  -5   0  -7   61.07    1.89   1
  -5   0  -7   63.68    1.82   7
  -6   0  -7    0.48    0.46   1
   6   0   7    0.27    0.96   4
  -6   0  -7    1.39    0.45   1
  -7   0  -7    3.70    0.63   1
   7   0   7    5.31    1.62   4
  -8   0  -7  272.02    9.10   6
  -8   0  -7  253.61    6.06   1
  -8   0  -7  253.09    6.08   1
   8   0   7  249.24    9.65   4
  -9   0  -7  133.80    3.96   1
  -9   0  -7  147.94    3.99   7
  -9   0  -7  141.75    3.95   1
   9   0   7  146.95    7.13   4
  -9   0  -7  154.42    6.67   6
 -10   0  -7   44.63    2.09   1
 -10   0  -7   49.66    3.88   6
 -10   0  -7   46.95    2.16   1
 -11   0  -7    1.70    0.86   1
 -11   0  -7    5.95    2.29   6
 -11   0  -7    2.88    0.93   1
 -12   0  -7    2.07    0.90   1
 -12   0  -7    0.98    0.81   1
 -12   0  -7    0.63    0.86   1
 -14  -1   7    7.28    2.74   6
 -14   1   7    3.22    1.56   7
  14   1  -7    8.21    2.36   8
 -14  -1   7    8.43    2.17   7
  13   1  -7    1.30    1.82   3
 -13  -1   7    1.28    1.89   6
 -13  -1   7   -0.70    1.25   7
  13  -1  -7    2.97    1.75   3
  13   1  -7    4.61    1.92   8
 -13   1   7    0.85    1.14   7
 -13  -1   7    2.79    1.57   2
  12   1  -7    5.46    2.02   8
  12  -1  -7    6.23    1.83   3
 -12  -1   7    3.46    1.61   2
  12   1  -7    2.83    1.75   3
 -12  -1   7    4.44    1.69   7
 -12  -1   7    1.92    1.83   6
 -12   1   7    6.12    1.66   7
 -11  -1   7   13.14    2.17   7
 -11   1   7   19.71    2.32   7
  11   1  -7   22.07    2.18   2
 -11  -1   7   12.76    2.65   6
 -11  -1   7   18.57    2.29   2
  11   1  -7   16.21    2.52   3
  11  -1  -7   14.63    2.21   3
  11   1  -7   15.28    2.44   8
 -11   1   7   13.84    2.01   2
  10   1  -7  235.49    8.38   8
 -10  -1   7  237.80    9.14   6
  10   1  -7  238.22    8.78   3
  10  -1  -7  250.60    8.32   3
 -10   1   7  243.97    8.16   7
  10  -1  -7  252.03    7.07   2
 -10  -1   7  238.60    8.40   7
 -10  -1   7  248.06    8.16   2
  10   1  -7  256.88    7.81   2
 -10   1   7  242.66    7.91   2
   9  -1  -7   61.16    3.03   2
  -9  -1   7   52.73    3.96   6
  -9   1   7   59.27    3.37   7
   9   1  -7   57.99    3.78   8
  -9  -1   7   57.03    3.56   7
   9   1  -7   50.34    3.55   3
   9   1  -7   53.44    3.24   2
  -9   1   7   54.04    3.14   2
  -9  -1   7   52.58    3.25   2
   9  -1  -7   57.92    3.44   3
   8   1  -7  284.95    9.18   3
  -8  -1   7  276.46    8.79   7
  -8   1   7  270.23    8.21   2
   8  -1  -7  286.39    8.70   3
   8  -1  -7  278.94    7.99   2
  -8   1   7  265.48    8.36   7
  -8   1   7  270.52    7.96   6
  -8  -1   7  275.08    8.41   2
  -8  -1   7  279.40    8.56   5
  -8  -1   7  278.78    9.46   6
   8   1  -7  278.72    8.46   2
  -7   1   7   47.14    2.80   7
   7  -1  -7   50.26    2.82   7
  -7   1   7   47.65    2.79   1
  -7  -1   7   45.48    2.94   7
   7   1  -7   40.61    2.71   2
  -7  -1   7   44.76    2.71   2
  -7  -1   7   44.61    2.84   5
   7  -1  -7   49.46    2.70   2
   7  -1  -7   43.07    2.71   3
   7   1  -7   42.82    3.05   3
  -7   1   7   45.76    2.69   2
  -7   1   7   47.36    2.61   6
  -7  -1   7   45.71    3.37   6
   7   1  -7   46.89    2.75   7
  -6  -1   7    7.65    1.42   7
  -6  -1   7    9.94    1.78   6
  -6  -1   7   10.34    1.40   2
  -6   1   7    9.66    1.30   6
   6   1  -7   10.36    1.41   7
   6  -1  -7    8.96    1.34   2
   6  -1  -7   13.01    1.57   7
  -6   1   7   11.15    1.43   2
   6   1  -7   11.49    1.73   3
   6  -1  -7    7.80    1.36   3
  -6   1   7    8.73    1.38   1
   6   1  -7    7.76    1.39   2
  -6   1   7    8.80    1.42   7
  -6  -1   7   10.16    1.46   5
  -6  -1   7    5.61    1.26   3
  -5  -1   7   12.66    1.82   6
   5  -1  -7   16.92    1.68   3
  -5   1   7   14.90    1.53   1
  -5   1   7   16.82    1.65   7
  -5  -1   7   15.61    1.74   3
  -5  -1   7   16.57    1.65   5
   5   1  -7   13.20    1.54   7
  -5  -1   7   15.28    1.52   2
   5   1  -7   18.37    1.78   2
  -5   1   7   16.39    1.76   3
   5   1  -7   13.26    1.57   3
  -5   1   7   15.07    1.59   3
   5  -1  -7   17.41    1.71   7
  -5   1   7   15.16    1.56   2
   5   1  -7   15.01    1.77   3
  -5  -1   7   15.58    1.69   3
   5  -1  -7   12.94    1.47   2
  -5  -1   7   16.48    1.73   7
  -4   1   7  557.52   14.09   3
  -4   1   7  552.50   13.54   2
  -4  -1   7  591.30   14.35   3
   4  -1  -7  545.78   13.67   2
   4   1  -7  562.77   14.40   3
   4   1  -7  544.77   13.67   7
  -4  -1   7  547.88   14.29   3
   4   1  -7  590.02   14.24   3
  -4  -1   7  575.85   13.89   7
  -4  -1   7  563.36   13.59   2
   4   1  -7  550.56   13.45   1
   4   1  -7  542.23   13.37   1
   4   1  -7  554.63   13.85   2
  -4  -1   7  564.42   14.70   6
  -4   1   7  576.25   14.28   3
   4  -1  -7  556.75   14.25   3
  -4  -1   7  529.63   13.62   5
  -4   1   7  587.31   13.91   7
   4  -1  -7  552.76   14.08   3
   4  -1  -7  558.08   13.82   7
  -3   1   7  108.66    3.84   2
  -3   1   7  108.91    4.04   7
   3  -1  -7  104.39    3.94   2
   3   1  -7  109.35    3.99   7
  -3   1   7  112.79    4.30   3
  -3  -1   7  111.46    4.04   5
   3   1  -7  107.08    3.96   1
   3   1  -7  109.25    3.93   1
   3   1  -7  112.16    4.20   3
   3  -1  -7  107.83    4.23   3
   3   1  -7  105.02    3.99   2
   3   1  -7  104.64    4.24   3
   3  -1  -7  111.17    4.07   7
   3  -1  -7  106.47    4.09   3
  -3  -1   7  106.00    4.14   3
  -3  -1   7  107.52    4.44   6
  -3  -1   7  114.72    4.07   7
  -3   1   7  109.46    4.10   3
  -3  -1   7  111.16    3.80   2
   2  -1  -7  390.96   10.32   3
   2   1  -7  373.42    9.76   7
  -2  -1   7  383.85   10.12   3
  -2   1   7  374.75    9.66   4
   2   1  -7  380.23    9.56   1
   2   1  -7  394.80   10.28   3
   2  -1  -7  388.76    9.66   1
  -2   1   7  386.30    9.90   7
  -2  -1   7  390.90   10.03   3
  -2  -1   7  374.38    9.40   2
   2  -1  -7  381.08   10.16   3
   2   1  -7  396.28    9.57   1
  -2  -1   7  393.68    9.74   7
  -2  -1   7  389.04   10.48   6
  -2  -1   7  387.06    9.80   5
  -2   1   7  369.97   10.00   3
   2   1  -7  373.96    9.76   2
   2  -1  -7  363.28    9.77   2
   2  -1  -7  387.96    9.92   7
  -2   1   7  389.74    9.58   2
   1  -1  -7   95.94    3.58   7
  -1  -1   7   96.00    3.49   3
  -1   1   7   92.01    3.54   7
   1  -1  -7   99.99    3.44   4
   1  -1  -7   95.50    3.53   2
   1   1  -7   96.03    3.43   2
   1   1  -7   98.07    3.73   3
  -1  -1   7   96.56    3.13   2
   1  -1  -7   89.96    3.64   3
  -1  -1   7  101.93    4.04   6
  -1   1   7   94.41    3.59   3
   1  -1  -7   97.69    3.58   1
  -1   1   7   97.19    3.38   4
  -1   1   7   94.15    3.79   3
   1   1  -7   98.42    3.46   1
  -1  -1   7   91.47    3.43   5
  -1   1   7   94.72    3.28   2
   1   1  -7   98.71    3.50   7
  -1  -1   7   93.07    3.58   3
   1   1  -7   91.17    3.37   1
   0  -1   7   14.03    1.18   3
   0  -1  -7   13.78    1.40   3
   0   1   7   15.97    1.55   3
   0  -1  -7   14.70    1.38   1
   0  -1  -7   12.85    1.29   2
   0   1  -7   13.51    1.20   1
   0   1  -7   11.07    1.14   1
   0  -1  -7   15.66    1.41   4
   0   1   7   13.79    1.17   2
   0  -1  -7   14.52    1.40   1
   0   1   7   15.61    1.40   3
   0  -1  -7   14.79    1.40   7
   0   1  -7   16.26    1.42   3
   0  -1   7   16.79    1.30   5
   0   1  -7   17.08    1.35   7
   0  -1   7   13.58    1.56   6
   0   1  -7   14.24    1.20   2
   0   1   7   16.00    1.38   4
   0   1   7   12.83    1.27   7
   0  -1   7   13.48    0.87   2
  -1  -1  -7   36.17    2.06   1
  -1   1  -7   35.85    1.75   1
  -1  -1  -7   35.10    1.99   7
   1   1   7   35.56    1.57   2
  -1  -1  -7   32.43    2.00   1
   1  -1   7   35.91    1.82   5
  -1  -1  -7   35.84    2.03   2
  -1   1  -7   39.26    1.77   2
  -1   1  -7   36.25    1.80   1
  -1   1  -7   33.96    1.76   7
  -1  -1  -7   37.28    2.20   3
   1   1   7   35.12    2.19   4
   1   1   7   40.20    2.08   3
   1  -1   7   34.01    1.66   3
  -2   1  -7  325.84    7.97   1
   2  -1   7  341.94    8.15   5
  -2  -1  -7  344.70    8.49   1
   2   1   7  326.62    9.83   4
   2  -1   7  338.04    7.91   3
   2   1   7  332.41    8.58   3
  -2   1  -7  331.08    7.88   1
  -2  -1  -7  328.72    8.57   7
  -2  -1  -7  342.02    8.61   2
  -2  -1  -7  344.32    8.63   1
  -2   1  -7  337.97    8.19   7
  -3   1  -7  182.30    4.62   1
   3   1   7  181.29    5.16   3
  -3  -1  -7  171.00    5.34   1
  -3  -1  -7  179.29    5.30   7
  -3  -1  -7  189.99    5.35   1
  -3  -1  -7  183.27    5.31   2
  -3   1  -7  179.87    4.80   7
   3  -1   7  182.20    4.78   5
   3   1   7  178.94    6.50   4
  -3   1  -7  183.43    4.75   1
  -4  -1  -7   39.94    2.21   1
   4  -1   7   39.47    1.63   5
  -4  -1  -7   41.92    2.15   7
  -4   1  -7   41.78    1.63   7
   4   1   7   40.68    1.86   3
  -4  -1  -7   44.38    2.28   1
  -4   1  -7   40.93    1.58   1
  -4   1  -7   43.37    1.74   1
   4   1   7   40.32    2.86   4
  -5   1  -7   68.25    2.06   7
   5  -1   7   68.19    2.07   5
  -5   1  -7   68.36    2.02   1
  -5   1  -7   66.84    2.17   1
   5   1   7   68.48    2.42   3
  -5  -1  -7   72.06    3.05   1
   5   1   7   66.65    2.29   3
   5   1   7   60.29    3.74   4
  -5  -1  -7   65.90    2.96   1
  -5  -1  -7   70.58    2.89   7
  -6  -1  -7   14.42    1.52   7
  -6  -1  -7   15.60    1.63   1
   6   1   7   11.21    1.97   4
  -6  -1  -7   15.13    2.33   6
  -6  -1  -7   16.77    1.59   1
   7   1   7  121.16    6.03   4
  -7  -1  -7  117.50    4.37   1
  -7  -1  -7  109.80    5.70   6
  -7  -1  -7  124.77    4.35   7
  -7  -1  -7  124.97    4.42   1
  -8  -1  -7   63.40    3.23   1
   8   1   7   67.40    4.54   4
  -8  -1  -7   63.61    3.09   7
  -8  -1  -7   66.44    3.21   1
  -8  -1  -7   66.07    4.47   6
  -9  -1  -7  101.77    4.15   1
  -9  -1  -7   95.28    5.62   6
  -9  -1  -7   97.48    4.09   1
  -9  -1  -7   99.00    4.14   7
 -10  -1  -7   26.15    3.50   6
 -10  -1  -7   21.60    2.15   7
 -10  -1  -7   20.24    2.04   1
 -10  -1  -7   23.93    2.22   1
 -11  -1  -7    7.25    1.61   1
 -11  -1  -7    5.35    1.51   1
 -11  -1  -7    1.61    2.34   6
 -11  -1  -7    7.68    1.66   7
 -12  -1  -7    9.65    1.85   7
 -12  -1  -7    8.06    1.78   1
 -12  -1  -7    9.89    3.14   6
 -12  -1  -7   11.25    1.90   1
 -13  -2   7    0.86    2.18   6
 -13  -2   7    0.64    1.57   7
 -13   2   7   -0.16    1.34   7
 -13  -2   7    1.30    1.68   2
  13   2  -7    1.75    1.84   8
 -12  -2   7    9.60    2.18   2
  12  -2  -7    5.22    1.83   3
 -12  -2   7    6.90    2.82   6
 -12   2   7    7.23    1.92   7
 -12  -2   7    5.13    2.07   7
  12   2  -7    7.02    2.49   8
  11   2  -7   65.77    3.80   2
 -11  -2   7   56.91    3.94   2
  11   2  -7   66.74    4.72   8
  11  -2  -7   55.83    3.85   3
 -11   2   7   53.23    3.81   7
 -11  -2   7   50.15    4.03   7
 -11  -2   7   61.98    5.11   6
  10   2  -7   34.22    3.64   8
 -10  -2   7   29.13    3.75   6
 -10   2   7   38.31    3.08   7
 -10   2   7   39.29    3.13   2
  10   2  -7   40.93    3.16   2
 -10  -2   7   35.52    3.05   2
  10  -2  -7   33.00    2.94   3
 -10  -2   7   41.01    3.46   7
   9  -2  -7  138.26    4.79   2
  -9  -2   7  116.00    5.77   7
  -9   2   7  115.03    5.36   7
  -9  -2   7  126.41    5.56   2
   9   2  -7  111.48    5.85   8
  -9   2   7  130.08    5.44   2
   9  -2  -7  133.22    5.63   3
   9   2  -7  133.97    5.67   2
  -9  -2   7  125.62    6.69   6
   8  -2  -7   13.22    1.65   2
  -8  -2   7   11.15    1.87   2
  -8   2   7   10.90    1.78   7
   8   2  -7   11.26    1.95   2
  -8   2   7   10.25    1.80   2
  -8  -2   7   14.33    2.68   6
  -8  -2   7   14.44    2.29   7
   8  -2  -7    7.42    1.71   3
  -7   2   7   35.53    2.77   7
  -7  -2   7   39.27    2.82   2
  -7  -2   7   42.84    3.80   6
  -7  -2   7   38.64    3.02   5
  -7   2   7   41.38    2.85   2
  -7  -2   7   44.46    3.24   7
   7  -2  -7   40.37    2.96   3
   7   2  -7   40.72    3.11   2
   7  -2  -7   44.36    2.71   2
   7   2  -7   36.87    2.91   7
   6   2  -7    3.08    1.27   7
   6  -2  -7    1.70    1.07   2
  -6  -2   7    2.25    1.27   7
  -6   2   7    1.13    1.02   7
  -6  -2   7    0.48    1.42   6
   6   2  -7    2.08    1.32   2
  -6   2   7    2.47    1.21   2
  -6  -2   7    1.96    1.01   5
  -6  -2   7    1.70    1.03   2
   6  -2  -7    3.83    1.40   3
  -5  -2   7    7.35    1.44   5
  -5   2   7    5.07    1.36   7
   5  -2  -7    8.23    1.61   3
   5  -2  -7    6.18    1.35   2
  -5   2   7    6.31    1.33   2
  -5  -2   7    5.59    1.88   6
   5   2  -7    9.92    1.65   7
   5  -2  -7    7.02    1.59   7
  -5  -2   7    6.76    1.34   2
  -5  -2   7    6.71    1.58   7
   5   2  -7    4.84    1.42   2
  -4   2   7   -0.46    0.79   2
   4  -2  -7    4.03    1.33   7
   4   2  -7    0.85    1.00   2
   4  -2  -7    1.95    1.14   3
  -4   2   7    2.41    1.13   7
  -4  -2   7    2.50    0.97   2
   4   2  -7    2.59    0.99   7
   4  -2  -7    2.19    0.96   2
  -4  -2   7    1.42    1.32   6
  -4  -2   7    1.50    1.04   7
  -4  -2   7    0.32    0.88   5
  -3  -2   7   31.80    2.37   5
  -3   2   7   30.08    2.41   3
  -3  -2   7   32.62    2.41   7
   3  -2  -7   29.44    2.22   2
   3  -2  -7   33.36    2.57   7
  -3  -2   7   30.76    2.16   2
   3  -2  -7   26.57    2.34   3
  -3  -2   7   31.32    2.76   6
  -3   2   7   31.00    2.26   2
  -3   2   7   34.66    1.59   4
   3   2  -7   33.65    2.49   2
   3   2  -7   29.59    2.26   7
  -3   2   7   33.43    2.40   7
  -3   2   7   35.67    2.47   7
  -2  -2   7   73.16    3.46   7
   2  -2  -7   71.77    3.44   2
  -2   2   7   71.28    2.90   4
   2   2  -7   68.16    3.53   1
  -2  -2   7   70.72    3.79   6
  -2  -2   7   74.16    3.63   3
   2  -2  -7   67.29    3.63   7
   2   2  -7   77.08    3.58   7
  -2   2   7   69.68    3.33   2
  -2   2   7   67.84    3.64   3
  -2   2   7   75.30    3.60   7
  -2  -2   7   74.86    3.22   2
   2  -2  -7   74.62    3.81   3
  -2  -2   7   71.37    3.45   5
   2   2  -7   75.88    3.60   2
  -2   2   7   78.99    3.65   7
   1   2  -7   21.69    1.95   2
   1  -2  -7   25.91    2.10   2
  -1  -2   7   20.93    2.12   6
  -1   2   7   22.52    2.16   3
   1  -2  -7   22.20    2.17   7
  -1  -2   7   22.19    2.00   3
  -1  -2   7   22.97    1.92   5
   1   2  -7   26.24    2.07   7
  -1   2   7   24.61    1.95   2
  -1   2   7   23.45    1.79   4
  -1   2   7   28.94    2.25   7
  -1  -2   7   25.10    1.73   2
   1   2  -7   23.62    2.08   1
   0   2   7    9.44    1.63   3
   0   2  -7    8.73    1.35   1
   0  -2   7   10.05    1.40   5
   0   2  -7    8.87    1.47   1
   0  -2   7    8.57    1.31   3
   0  -2  -7    9.34    1.63   7
   0   2  -7    7.63    1.35   7
   0  -2   7    8.76    1.56   6
   0   2   7   10.09    1.57   7
   0  -2  -7    8.24    1.53   1
   0   2   7    9.15    1.37   4
   0   2  -7    9.30    1.33   2
   0   2   7   10.67    1.18   8
   0   2   7   10.49    1.44   2
   0  -2  -7    8.79    1.41   2
   0  -2   7   10.07    1.03   2
   1   2   7  104.73    4.50   3
   1  -2   7  105.79    4.36   6
  -1   2  -7  112.00    4.10   2
   1   2   7  100.60    4.47   4
  -1  -2  -7  100.22    4.41   1
   1   2   7  110.77    4.42   7
  -1   2  -7  110.86    4.15   1
   1   2   7  108.67    3.93   8
   1  -2   7   97.57    4.00   5
   1  -2   7  112.29    4.08   3
  -1  -2  -7   97.44    4.40   7
  -1  -2  -7  101.90    4.30   2
  -1   2  -7  107.34    4.08   7
   1   2   7   97.28    3.79   2
  -1   2  -7  103.39    4.06   1
   2   2   7   20.99    2.16   4
   2   2   7   24.40    2.03   8
   2  -2   7   25.03    1.73   3
  -2  -2  -7   17.37    1.91   2
   2   2   7   23.21    1.71   2
  -2  -2  -7   21.99    2.20   1
   2  -2   7   24.39    1.89   5
  -2   2  -7   22.00    1.88   1
  -2   2  -7   21.20    1.80   7
   2   2   7   24.74    2.17   3
  -2   2  -7   21.72    1.86   1
  -2  -2  -7   22.93    2.19   7
  -3   2  -7    5.85    1.15   1
  -3   2  -7    9.14    1.34   1
  -3  -2  -7    8.02    1.59   7
  -3   2  -7    7.51    1.24   7
   3  -2   7    6.18    0.92   3
   3   2   7    4.97    1.28   3
  -3  -2  -7    5.32    1.68   6
  -3  -2  -7    7.35    1.58   1
  -3  -2  -7    5.53    1.27   2
   3   2   7    7.50    1.46   8
   3   2   7    8.19    1.03   2
   3  -2   7    5.54    1.07   5
   3   2   7    5.53    1.48   4
   4  -2   7    4.29    0.61   3
  -4  -2  -7    1.99    1.18   7
   4   2   7    1.43    1.13   8
   4  -2   7    1.41    0.83   5
  -4  -2  -7    3.87    1.36   1
  -4   2  -7    2.48    1.05   1
  -4   2  -7    3.22    0.98   7
  -4  -2  -7    1.58    1.52   6
  -4  -2  -7    2.58    1.14   2
   4   2   7    3.45    1.39   4
   4   2   7    4.12    1.23   3
  -4   2  -7    3.69    1.03   1
   4  -2   7    4.28    0.59   3
  -5  -2  -7   43.59    3.68   6
   5   2   7   44.23    2.76   3
  -5   2  -7   44.31    2.52   1
   5   2   7   40.13    3.38   4
  -5  -2  -7   46.54    3.11   1
   5   2   7   49.69    3.27   8
   5  -2   7   41.89    2.26   5
  -5   2  -7   44.63    2.41   7
  -5   2  -7   42.38    2.43   1
  -5  -2  -7   41.24    2.97   7
  -6   2  -7    1.07    0.96   1
  -6   2  -7    0.50    0.79   7
   6  -2   7    0.49    0.74   5
   6   2   7    2.36    1.33   8
   6   2   7    0.85    1.14   4
   6   2   7    1.04    1.12   3
   6   2   7   -0.46    0.91   3
  -6  -2  -7    2.21    1.31   7
  -6   2  -7    1.40    1.04   1
  -6  -2  -7    0.43    1.26   1
  -6  -2  -7    1.01    1.74   6
   7   2   7   38.31    3.26   8
   7   2   7   32.64    2.26   3
  -7   2  -7   30.46    2.14   1
  -7  -2  -7   29.11    2.71   7
  -7   2  -7   31.55    2.17   1
  -7   2  -7   36.15    2.05   7
  -7  -2  -7   27.43    3.42   6
   7   2   7   36.42    3.60   4
   7   2   7   33.96    2.32   3
   7  -2   7   34.58    1.91   5
  -7  -2  -7   27.00    2.62   1
  -8   2  -7   28.91    1.90   7
  -8   2  -7   28.29    2.06   1
  -8  -2  -7   29.20    2.81   7
   8   2   7   30.63    2.04   3
   8  -2   7   29.71    1.68   5
  -8  -2  -7   27.57    3.59   6
  -8   2  -7   26.54    2.04   1
  -8  -2  -7   28.24    2.71   1
   8   2   7   28.76    2.00   3
   8   2   7   28.04    3.15   8
  -9   2  -7    7.20    1.21   7
  -9   2  -7    3.92    1.16   1
  -9  -2  -7    4.32    1.76   7
  -9  -2  -7    5.38    1.79   1
  -9  -2  -7    6.83    2.56   6
   9   2   7    6.04    1.03   3
   9   2   7    5.09    0.94   3
  -9   2  -7    6.51    1.26   1
   9   2   7    4.98    1.91   8
 -10  -2  -7    9.21    2.16   1
 -10   2  -7    9.38    1.40   1
 -10   2  -7   11.07    1.38   7
 -10   2  -7    9.11    1.41   1
 -10  -2  -7   11.86    2.25   7
 -10  -2  -7   14.63    3.27   6
 -11  -2  -7    4.41    2.05   1
 -11   2  -7    1.00    1.08   1
 -11   2  -7    1.19    0.93   1
 -11  -2  -7    0.74    1.52   7
 -11  -2  -7    2.63    2.63   6
 -11  -3   7    5.77    2.28   7
  11   3  -7    3.51    2.36   8
 -11  -3   7    6.74    3.05   6
  11   3  -7    6.07    2.04   2
 -11   3   7    4.12    1.84   7
 -11  -3   7    5.71    2.15   2
  10   3  -7   10.45    2.31   2
  10   3  -7    6.90    2.82   8
 -10  -3   7    9.40    3.11   6
 -10   3   7   11.15    2.22   2
 -10  -3   7    9.99    2.32   2
 -10   3   7   14.40    2.54   7
 -10  -3   7    7.24    2.33   7
  -9  -3   7    8.72    2.37   7
   9   3  -7    4.46    1.91   2
  -9  -3   7    5.39    2.71   6
  -9   3   7    6.20    1.91   7
  -9  -3   7    5.71    1.82   2
  -9   3   7    9.42    2.01   2
  -8  -3   7   10.33    2.40   7
  -8  -3   7   12.72    2.26   2
   8  -3  -7   11.59    1.80   2
   8   3  -7   14.18    2.57   2
  -8  -3   7   11.09    2.91   6
  -8   3   7   13.74    2.17   2
  -8   3   7   13.94    2.38   7
  -7  -3   7    3.92    2.11   6
   7   3  -7    2.92    1.71   2
  -7   3   7    3.46    1.55   7
  -7   3   7    3.71    1.59   2
   7  -3  -7    2.36    1.28   2
  -7  -3   7    5.54    1.98   7
  -7   3   7    4.45    1.58   7
  -7  -3   7    4.99    1.58   2
  -6   3   7    7.78    2.00   7
  -6  -3   7   10.95    2.01   2
  -6   3   7   13.19    2.26   7
  -6  -3   7   13.67    2.47   7
  -6   3   7   11.07    1.97   2
   6   3  -7    9.71    2.06   7
  -6  -3   7    8.80    2.00   5
  -6  -3   7    9.95    2.56   6
   6   3  -7    9.28    2.08   2
   6  -3  -7   14.85    2.01   2
  -5  -3   7   40.00    3.23   5
  -5  -3   7   46.23    3.93   6
   5   3  -7   46.73    3.46   2
  -5   3   7   45.57    3.26   2
   5   3  -7   45.78    3.40   7
  -5  -3   7   39.12    3.07   2
  -5   3   7   37.35    3.14   7
   5  -3  -7   43.05    3.00   2
  -4  -3   7    0.99    1.10   2
   4   3  -7    2.66    1.23   7
   4  -3  -7    2.89    1.28   2
  -4   3   7    2.78    1.47   7
  -4  -3   7    5.68    1.58   5
  -4   3   7    2.11    1.33   2
  -4  -3   7    2.01    1.60   6
   4   3  -7    1.82    1.39   2
   3  -3  -7   63.67    4.19   7
  -3   3   7   75.69    4.30   7
  -3   3   7   68.22    3.90   2
  -3  -3   7   69.80    3.75   2
   3  -3  -7   62.78    3.69   2
  -3  -3   7   69.89    4.32   6
   3   3  -7   64.99    4.02   2
   3   3  -7   70.84    4.10   7
  -3  -3   7   65.36    3.95   5
  -2  -3   7    1.34    1.52   6
   2  -3  -7    2.57    1.61   7
  -2   3   7    3.47    1.40   2
  -2  -3   7    1.74    1.25   5
   2   3  -7    1.86    1.27   7
  -2   3   7    2.42    1.43   7
   2  -3  -7    4.44    1.44   2
   2  -3  -7    3.34    1.48   6
  -2  -3   7    5.77    1.39   2
   2   3  -7    2.31    1.34   2
   1  -3  -7   13.83    2.39   7
  -1   3   7   21.48    2.53   7
   1   3  -7   22.43    2.38   2
  -1  -3   7   21.84    2.39   5
  -1  -3   7   17.38    2.28   6
   1   3  -7   19.26    2.31   7
  -1   3   7   19.60    2.25   2
   1  -3  -7   20.71    2.33   2
   1  -3  -7   19.27    2.35   6
  -1  -3   7   21.36    1.94   2
   0  -3  -7   15.56    2.42   7
   0   3   7   13.96    1.95   2
   0  -3  -7   14.58    2.11   2
   0  -3   7   12.88    1.43   2
   0   3   7   16.47    2.14   4
   0   3  -7   13.74    2.03   7
   0  -3   7   12.08    2.00   6
   0  -3   7    9.90    1.82   5
   0   3  -7   13.40    1.94   2
   0  -3  -7   14.55    2.24   6
   1   3   7   30.25    2.44   2
   1   3   7   32.54    2.93   4
   1  -3   7   28.32    2.62   5
  -1  -3  -7   32.91    2.94   2
   1  -3   7   23.99    2.43   6
  -1   3  -7   27.49    2.53   2
  -1  -3  -7   31.13    3.12   6
  -1   3  -7   31.53    2.94   1
  -1  -3  -7   26.12    2.95   7
  -1   3  -7   31.05    2.65   7
  -2   3  -7    3.37    1.62   1
   2   3   7    2.23    1.19   2
  -2  -3  -7    2.24    1.28   2
  -2  -3  -7    5.62    1.81   7
   2  -3   7    4.23    1.37   5
   2   3   7    5.15    1.51   8
  -2   3  -7    4.85    1.41   7
   2   3   7    5.03    1.76   4
  -2  -3  -7    3.63    1.80   6
  -3  -3  -7   39.48    3.22   2
  -3  -3  -7   35.20    3.56   6
   3   3   7   43.15    2.64   2
   3   3   7   38.84    3.37   3
   3  -3   7   43.60    3.07   5
   3   3   7   33.86    3.25   4
  -3  -3  -7   40.74    3.47   7
   3  -3   7   35.11    2.57   3
  -3   3  -7   40.06    3.12   1
  -3   3  -7   38.12    2.83   7
   3   3   7   39.43    3.00   8
  -4  -3  -7   16.50    2.61   7
   4  -3   7   23.95    1.98   3
   4   3   7   24.17    2.56   8
   4   3   7   23.66    2.73   3
  -4   3  -7   25.39    2.61   1
  -4  -3  -7   21.06    3.11   6
   4  -3   7   21.90    1.92   3
   4   3   7   21.99    1.98   2
   4  -3   7   23.86    2.33   5
  -4   3  -7   24.60    2.48   7
  -4  -3  -7   28.05    2.89   2
   4   3   7   23.97    3.00   4
   5   3   7   14.54    2.31   3
   5   3   7   22.13    2.61   8
   5  -3   7   18.68    1.48   3
  -5  -3  -7   22.31    3.26   6
   5  -3   7   17.77    1.48   3
  -5  -3  -7   18.35    2.44   2
  -5   3  -7   20.93    2.33   7
  -5   3  -7   19.12    2.42   1
   5   3   7   18.21    2.91   4
  -5  -3  -7   17.04    2.72   7
   5  -3   7   16.58    2.08   5
  -6  -3  -7    0.89    1.51   7
  -6  -3  -7   -0.16    1.81   6
  -6   3  -7   -0.85    1.31   1
   6   3   7    1.33    1.48   8
   6   3   7    0.66    1.50   3
  -6   3  -7    0.62    1.20   7
   6  -3   7   -0.23    1.13   5
  -7   3  -7    0.75    1.45   1
   7  -3   7    1.60    1.23   5
  -7  -3  -7    2.13    1.71   7
  -7   3  -7    0.09    1.22   7
   7   3   7    0.66    1.42   3
  -7  -3  -7    0.29    2.09   6
   7   3   7    2.09    1.62   8
  -8   3  -7    1.68    1.59   1
   8  -3   7    2.38    1.29   5
   8   3   7    4.43    1.88   8
  -8  -3  -7    3.29    2.71   6
  -8  -3  -7    1.99    1.87   7
  -8   3  -7    4.27    1.61   7
  -9  -3  -7    0.75    1.69   7
   9  -3   7    3.29    1.36   5
  -9   3  -7    0.62    1.47   1
  -9   3  -7    1.61    1.33   7
   9   3   7    2.14    1.86   8
  -9  -3  -7    4.55    2.74   6
   7   4  -7    3.46    1.98   2
  -7   4   7    3.95    1.90   2
  -7   4   7    2.80    2.12   7
  -7  -4   7    3.11    1.83   2
  -7  -4   7    1.90    2.30   6
   7  -4  -7    2.57    1.50   2
  -6  -4   7    1.59    1.66   2
   6   4  -7    1.32    1.68   2
  -6   4   7    1.06    1.59   2
   6  -4  -7    4.54    1.70   2
  -6  -4   7   -1.47    1.82   6
  -6   4   7    2.18    1.79   7
  -5   4   7   11.80    2.45   2
  -5  -4   7    8.96    2.44   5
   5   4  -7   11.90    2.59   2
   5   4  -7   12.19    2.76   7
  -5   4   7   17.02    3.02   7
  -5  -4   7   12.95    3.05   6
  -5  -4   7   12.44    2.42   2
   5  -4  -7    8.79    2.09   2
  -4   4   7   25.51    3.05   2
  -4  -4   7   32.10    3.53   5
  -4  -4   7   32.12    3.16   2
   4  -4  -7   21.48    2.75   2
  -4   4   7   27.18    3.46   7
  -4  -4   7   29.67    3.60   6
   4   4  -7   25.45    3.32   7
   4   4  -7   25.63    3.23   2
  -3  -4   7   34.62    3.69   6
   3  -4  -7   25.96    2.93   2
   3   4  -7   28.70    3.34   7
  -3  -4   7   26.44    3.26   5
  -3   4   7   34.40    3.35   2
  -3   4   7   37.52    3.80   7
   3   4  -7   24.09    3.17   2
  -3  -4   7   27.61    2.91   2
  -2  -4   7    5.30    1.91   5
   2   4  -7    3.14    1.77   7
   2  -4  -7    4.36    1.81   2
   2   4  -7    4.38    1.95   2
  -2  -4   7    0.97    1.31   2
  -2  -4   7    4.56    2.13   6
  -2   4   7    5.80    1.97   2
   1   4  -7   33.09    3.46   7
   1   4  -7   27.32    3.25   2
   1  -4  -7   28.29    3.12   2
  -1  -4   7   29.45    3.31   5
  -1  -4   7   26.91    2.46   2
  -1   4   7   26.65    3.00   2
   0   4  -7   30.18    3.30   7
   0  -4  -7   26.29    3.62   7
   0  -4   7   32.00    3.35   5
   0  -4  -7   36.38    3.44   2
   0   4  -7   33.67    3.49   2
   0   4   7   28.03    3.04   2
   1  -4   7   12.62    2.47   5
  -1  -4  -7   13.95    2.92   7
  -1   4  -7   18.48    2.82   2
  -1   4  -7   16.10    2.66   7
  -1  -4  -7   15.67    2.60   2
   1   4   7   15.44    2.37   2
  -2  -4  -7   20.15    3.47   6
   2  -4   7   22.64    2.96   5
  -2   4  -7   19.06    2.80   7
  -2  -4  -7   16.05    2.77   2
   2   4   7   18.39    2.50   2
  -2  -4  -7   19.68    3.26   7
  -3  -4  -7   11.76    2.84   7
   3  -4   7   13.99    2.45   5
  -3   4  -7   19.07    2.78   7
   3   4   7   11.73    2.07   2
  -3  -4  -7   17.96    3.38   6
  -3  -4  -7   15.15    2.73   2
  -4   4  -7   34.33    3.44   7
  -4  -4  -7   31.56    4.15   6
  -4  -4  -7   42.15    4.28   7
  -4  -4  -7   41.45    3.97   2
   4  -4   7   38.84    3.61   5
   4   4   7   37.50    2.98   2
  -5  -4  -7   11.88    2.74   2
  -5   4  -7   14.46    2.60   7
  -5  -4  -7   15.15    3.45   6
   5  -4   7   16.08    2.59   5
  -5  -4  -7   11.11    2.80   7
 -14   0   8    2.06    1.51   7
 -13   0   8    5.40    1.74   7
  13   0  -8    7.52    2.27   3
  12   0  -8   43.96    3.58   3
 -12   0   8   47.02    3.35   2
 -12   0   8   44.52    3.40   7
 -11   0   8    1.55    1.25   2
 -11   0   8    0.28    1.01   7
  11   0  -8    0.81    1.35   3
 -11   0   8    1.35    1.54   6
  11   0  -8    1.45    1.18   2
  10   0  -8   56.64    3.20   2
 -10   0   8   57.00    3.58   7
 -10   0   8   56.49    3.78   6
 -10   0   8   61.36    3.48   2
  10   0  -8   53.70    3.68   3
   9   0  -8    6.51    1.64   3
   9   0  -8    9.68    1.75   8
  -9   0   8    6.69    1.57   7
  -9   0   8    5.72    1.40   2
  -9   0   8    8.99    1.91   6
   9   0  -8    3.60    1.31   2
  -8   0   8   99.16    4.18   2
  -8   0   8   94.03    4.29   7
   8   0  -8   95.10    4.00   8
   8   0  -8   90.57    4.11   2
  -8   0   8  100.66    4.62   6
   8   0  -8   92.36    4.47   3
  -7   0   8    4.19    1.19   7
   7   0  -8    3.51    1.22   3
   7   0  -8    2.36    1.05   7
   7   0  -8    4.59    1.24   2
  -7   0   8    2.77    0.99   2
  -7   0   8    2.65    1.35   6
  -6   0   8  108.36    4.32   7
   6   0  -8  106.74    4.50   3
  -6   0   8  112.15    4.56   6
  -6   0   8  107.58    4.11   2
   6   0  -8  110.93    4.28   7
  -6   0   8  108.45    4.46   3
   6   0  -8  101.27    4.23   2
  -5   0   8  209.71    6.78   3
   5   0  -8  209.68    6.60   2
   5   0  -8  220.29    6.66   7
  -5   0   8  217.25    6.96   6
   5   0  -8  225.59    6.91   3
  -5   0   8  222.45    6.89   3
  -5   0   8  224.15    6.73   7
   5   0  -8  212.83    6.87   3
  -5   0   8  215.30    6.44   2
  -4   0   8   91.10    3.75   3
  -4   0   8   88.57    3.73   3
   4   0  -8   86.24    3.62   2
  -4   0   8   88.12    3.43   2
   4   0  -8   90.98    3.58   7
  -4   0   8   97.81    3.76   7
   4   0  -8   94.77    3.60   1
  -4   0   8   83.34    3.83   6
   4   0  -8   90.12    3.82   3
   3   0  -8  582.00   14.33   3
   3   0  -8  576.16   13.97   2
  -3   0   8  557.33   14.19   3
  -3   0   8  578.36   14.66   6
   3   0  -8  563.83   13.49   1
  -3   0   8  571.15   13.63   2
  -3   0   8  598.00   13.96   7
   3   0  -8  587.65   13.98   7
   3   0  -8  589.11   14.35   3
  -2   0   8    3.13    0.70   2
   2   0  -8    3.43    0.83   1
   2   0  -8    3.79    0.86   1
   2   0  -8    3.87    0.86   2
   2   0  -8    2.46    0.72   4
  -2   0   8    3.68    0.85   7
   2   0  -8    2.34    0.81   3
  -2   0   8    3.32    0.88   3
  -2   0   8    2.56    0.77   3
   1   0  -8 1030.57   23.42   3
  -1   0   8  985.50   23.21   3
  -1   0   8 1013.39   22.33   2
  -1   0   8 1035.15   22.80   7
   1   0  -8 1012.79   22.80   2
  -1   0   8 1035.75   23.35   3
   1   0  -8 1063.23   25.10   4
   1   0  -8 1033.44   22.19   1
   1   0  -8 1041.33   22.93   7
   1   0  -8 1026.32   22.17   1
   0   0  -8   52.01    2.26   1
   0   0   8   52.73    2.29   3
   0   0  -8   57.12    2.49   3
   0   0  -8   50.38    2.26   7
   0   0  -8   55.51    2.31   2
   0   0   8   52.78    1.76   2
   0   0   8   50.52    2.33   3
   0   0  -8   50.48    2.22   1
  -1   0  -8   37.52    1.79   1
  -1   0  -8   38.97    1.80   7
  -1   0  -8   38.17    1.79   2
   1   0   8   37.45    1.76   3
   1   0   8   35.09    1.82   3
  -1   0  -8   36.35    1.79   1
  -2   0  -8  242.68    6.14   1
  -2   0  -8  244.97    6.08   1
   2   0   8  243.77    7.96   4
  -2   0  -8  255.04    6.15   2
   2   0   8  238.17    6.09   3
  -2   0  -8  245.82    6.21   7
  -3   0  -8  248.28    6.26   7
   3   0   8  253.86    8.46   4
  -3   0  -8  257.20    6.19   1
  -3   0  -8  260.40    6.28   1
  -4   0  -8    4.68    0.64   7
   4   0   8    2.82    1.12   4
  -4   0  -8    4.97    0.68   1
  -4   0  -8    3.22    0.67   1
  -5   0  -8    6.85    0.70   1
  -5   0  -8    5.58    0.67   7
  -5   0  -8    5.37    0.78   1
   5   0   8    4.62    1.39   4
  -6   0  -8   12.24    1.00   1
  -6   0  -8   12.78    0.96   1
  -6   0  -8   14.55    0.90   7
   6   0   8   11.00    1.97   4
  -7   0  -8    4.00    0.75   1
   7   0   8    4.20    1.50   4
  -7   0  -8    4.98    0.62   7
  -7   0  -8    5.87    0.77   1
  -8   0  -8  436.96    9.63   1
   8   0   8  432.86   14.26   4
  -8   0  -8  423.86    9.67   7
  -8   0  -8  425.21    9.71   1
  -9   0  -8  104.07    3.18   1
  -9   0  -8   89.44    3.06   1
  -9   0  -8  100.28    5.47   6
 -10   0  -8   36.82    1.98   1
 -10   0  -8   43.71    3.78   6
 -10   0  -8   40.32    1.98   1
 -11   0  -8   13.65    1.36   1
 -11   0  -8   12.02    1.28   1
 -12   0  -8    0.11    0.90   1
 -12   0  -8    1.45    0.81   1
 -14  -1   8   11.53    2.88   6
 -14  -1   8   10.50    2.56   7
 -14   1   8    8.00    2.06   7
 -13   1   8    3.05    1.50   7
 -13  -1   8    2.26    1.58   7
  13  -1  -8    1.79    1.78   3
 -13  -1   8    0.82    1.44   2
 -13  -1   8    2.14    1.98   6
  13   1  -8    1.56    1.55   8
 -12  -1   8    6.88    1.89   7
  12   1  -8    3.84    1.83   8
 -12   1   8    7.15    1.76   2
 -12  -1   8    6.81    2.34   6
 -12  -1   8    4.30    1.63   2
  12  -1  -8    2.17    1.58   3
 -12   1   8    5.57    1.67   7
 -11  -1   8   13.29    2.32   7
 -11   1   8   20.90    2.52   7
  11  -1  -8   21.24    2.55   3
 -11  -1   8   22.56    2.54   2
 -11  -1   8   23.35    3.11   6
  11   1  -8   23.20    2.37   2
  11   1  -8   20.62    2.72   8
 -11   1   8   22.42    2.43   2
  10  -1  -8   67.61    4.08   3
  10   1  -8   71.04    4.30   8
 -10   1   8   69.41    3.96   7
 -10  -1   8   68.35    4.17   7
 -10   1   8   73.91    3.91   2
 -10  -1   8   73.37    4.79   6
  10   1  -8   74.57    3.93   2
 -10  -1   8   69.04    3.94   2
  10  -1  -8   73.26    3.52   2
  -9  -1   8   -0.47    1.44   6
  -9  -1   8    0.59    1.05   2
  -9   1   8    1.06    1.04   2
  -9  -1   8    3.99    1.49   7
   9  -1  -8    4.08    1.44   3
   9   1  -8    0.41    1.59   8
  -9   1   8    2.49    1.23   7
   9   1  -8    3.57    1.49   2
   9  -1  -8    3.15    1.26   2
   8   1  -8   23.82    2.27   7
   8  -1  -8   27.43    2.33   2
   8   1  -8   27.64    2.50   2
  -8   1   8   32.58    2.48   6
  -8  -1   8   28.02    2.58   7
  -8  -1   8   28.25    2.39   2
  -8  -1   8   31.22    2.67   5
  -8   1   8   29.01    2.40   2
   8  -1  -8   37.96    2.86   3
  -8   1   8   28.27    2.47   7
  -8  -1   8   23.25    2.87   6
  -7  -1   8   40.18    2.86   7
  -7  -1   8   41.03    2.86   5
  -7   1   8   44.00    2.65   6
   7  -1  -8   36.53    2.60   7
  -7   1   8   43.02    2.76   7
   7   1  -8   41.69    3.11   3
  -7  -1   8   38.44    2.61   2
   7  -1  -8   39.12    2.77   3
  -7   1   8   37.95    2.56   2
   7   1  -8   39.10    2.65   7
   7   1  -8   43.72    2.90   2
  -7  -1   8   41.05    3.28   6
   7  -1  -8   38.00    2.51   2
  -6   1   8   95.42    4.14   7
  -6   1   8   88.96    3.87   2
   6   1  -8   93.01    4.17   2
   6  -1  -8   95.47    4.14   7
  -6  -1   8   99.22    4.08   2
  -6  -1   8   92.96    4.15   5
   6   1  -8  102.55    4.69   3
  -6  -1   8   95.16    4.74   6
  -6  -1   8  100.01    4.37   7
   6   1  -8   99.79    4.16   7
   6  -1  -8   95.02    4.01   2
   6  -1  -8  100.06    4.34   3
   5   1  -8    9.75    1.53   2
   5  -1  -8   14.43    1.70   3
  -5   1   8    7.01    1.30   3
   5   1  -8   10.78    1.62   3
  -5  -1   8   10.05    1.47   5
   5   1  -8   10.55    1.45   7
  -5  -1   8   11.15    1.85   6
   5  -1  -8    6.26    1.27   7
  -5  -1   8   12.26    1.63   7
  -5   1   8   11.90    1.46   2
  -5  -1   8   11.39    1.55   3
  -5   1   8   12.59    1.58   7
   5  -1  -8    9.17    1.38   2
  -5  -1   8   11.50    1.41   2
  -4   1   8  238.64    7.67   3
  -4  -1   8  251.76    7.82   3
   4   1  -8  251.70    7.69   3
   4   1  -8  264.29    8.03   3
   4  -1  -8  252.34    7.45   2
   4   1  -8  260.39    7.57   2
  -4   1   8  251.95    7.25   2
  -4   1   8  252.91    7.67   3
   4   1  -8  258.85    7.35   1
  -4  -1   8  240.94    7.17   2
  -4   1   8  248.14    7.47   7
   4  -1  -8  266.81    7.60   7
   4  -1  -8  245.08    7.63   3
  -4  -1   8  260.13    7.55   7
   4   1  -8  257.08    7.40   1
  -4  -1   8  247.25    7.47   5
   4  -1  -8  252.75    7.83   3
   4   1  -8  246.39    7.39   7
   3  -1  -8  288.75    8.11   2
   3   1  -8  284.55    8.12   2
  -3  -1   8  283.73    8.37   3
   3  -1  -8  299.92    7.98   1
  -3   1   8  276.44    7.77   2
   3  -1  -8  292.16    8.51   3
  -3  -1   8  296.59    8.08   7
  -3   1   8  285.68    8.28   3
   3  -1  -8  274.23    8.02   7
  -3  -1   8  288.48    8.09   5
   3   1  -8  286.48    7.94   1
   3  -1  -8  288.10    7.38   4
   3   1  -8  290.91    8.52   3
  -3  -1   8  288.26    8.73   6
  -3  -1   8  281.15    7.72   2
  -3   1   8  293.36    8.20   7
   3   1  -8  292.93    8.05   7
   3  -1  -8  293.16    8.41   3
   2   1  -8   31.89    2.04   7
  -2  -1   8   32.10    2.08   3
   2   1  -8   34.17    2.22   3
   2   1  -8   34.09    2.06   1
  -2   1   8   32.88    2.10   7
  -2  -1   8   31.19    2.42   6
   2  -1  -8   33.17    1.75   4
  -2  -1   8   34.72    2.20   3
   2   1  -8   35.28    2.14   1
   2  -1  -8   35.62    2.16   2
   2  -1  -8   33.00    2.13   1
   2  -1  -8   37.76    2.22   7
  -2   1   8   33.14    1.94   2
   2  -1  -8   35.86    2.30   3
  -2  -1   8   34.76    2.08   5
   2  -1  -8   38.17    2.48   3
   2   1  -8   32.82    2.13   2
  -2  -1   8   31.09    1.95   7
  -2  -1   8   33.48    1.85   2
  -2   1   8   32.71    2.17   3
  -1  -1   8  188.57    5.77   3
  -1   1   8  194.34    5.50   2
  -1  -1   8  191.67    5.25   2
  -1  -1   8  186.43    6.38   6
   1  -1  -8  198.68    5.95   2
   1   1  -8  192.15    5.65   1
   1  -1  -8  197.03    5.94   4
   1   1  -8  191.48    6.06   3
   1  -1  -8  196.14    5.93   7
   1  -1  -8  203.27    5.93   1
  -1   1   8  195.48    6.30   3
  -1   1   8  200.22    6.04   3
   1  -1  -8  192.22    6.17   3
  -1   1   8  198.58    5.93   4
   1   1  -8  204.75    5.73   1
   1   1  -8  187.34    5.72   2
  -1  -1   8  192.64    5.98   3
   1  -1  -8  201.46    5.90   1
   1   1  -8  195.41    5.80   7
  -1   1   8  191.70    5.89   7
  -1  -1   8  192.86    5.78   5
   0  -1  -8   64.38    2.92   7
   0  -1  -8   67.34    2.97   1
   0  -1   8   70.74    2.95   3
   0   1  -8   68.67    2.81   1
   0   1   8   75.11    3.02   7
   0   1   8   70.40    3.12   4
   0  -1   8   65.67    2.80   5
   0   1   8   68.69    2.59   2
   0   1   8   68.91    3.21   3
   0  -1  -8   68.39    3.16   3
   0  -1   8   75.67    3.49   6
   0  -1   8   68.42    2.00   2
   0   1  -8   68.05    2.83   7
   0   1  -8   72.55    3.08   3
   0   1   8   73.89    3.06   3
   0  -1  -8   67.99    3.02   1
   0   1  -8   69.27    2.78   1
   0   1  -8   74.82    2.86   2
   0  -1   8   69.83    2.80   3
   0  -1  -8   64.21    2.91   2
  -1  -1  -8   35.02    2.13   1
   1  -1   8   40.33    1.87   3
  -1   1  -8   37.08    1.95   7
  -1  -1  -8   36.77    2.12   7
  -1   1  -8   34.86    1.84   1
  -1   1  -8   36.65    1.87   2
  -1   1  -8   39.32    1.96   1
  -1  -1  -8   39.15    2.34   3
   1   1   8   38.76    2.10   3
   1   1   8   33.66    2.29   4
   1   1   8   39.67    1.62   2
  -1  -1  -8   35.75    2.09   2
   1  -1   8   39.92    2.01   5
  -1  -1  -8   40.28    2.23   1
  -2  -1  -8   32.27    1.97   1
   2   1   8   30.53    1.82   3
  -2  -1  -8   32.96    2.10   1
  -2   1  -8   31.66    1.71   1
  -2  -1  -8   38.19    2.11   2
  -2   1  -8   30.17    1.68   7
   2  -1   8   33.45    1.48   3
   2   1   8   32.29    2.37   4
  -2  -1  -8   31.03    1.93   7
   2  -1   8   26.61    1.63   5
  -2   1  -8   30.58    1.63   1
  -3  -1  -8   28.45    1.97   1
  -3   1  -8   28.87    1.53   7
  -3  -1  -8   34.74    2.03   1
  -3   1  -8   25.46    1.43   1
   3   1   8   31.05    1.73   3
   3   1   8   29.99    2.43   4
   3  -1   8   27.81    1.52   5
  -3  -1  -8   28.69    1.82   7
  -3  -1  -8   31.27    1.97   2
  -3   1  -8   27.07    1.54   1
  -4   1  -8   49.41    1.98   7
  -4   1  -8   52.68    2.04   1
  -4   1  -8   52.56    1.95   1
   4  -1   8   51.66    1.97   5
  -4  -1  -8   52.77    2.61   1
  -4  -1  -8   50.33    2.63   1
   4   1   8   51.04    3.30   4
  -4  -1  -8   53.68    2.50   7
   4   1   8   53.06    2.18   3
   5   1   8   62.53    3.92   4
   5   1   8   60.16    2.13   3
  -5   1  -8   62.49    2.12   7
   5   1   8   65.10    2.29   3
   5  -1   8   65.30    2.09   5
  -5  -1  -8   63.60    2.89   1
  -5  -1  -8   63.68    2.95   1
  -5  -1  -8   61.96    2.81   7
  -5   1  -8   63.03    2.19   1
  -5   1  -8   62.53    2.07   1
   6   1   8   27.69    2.92   4
  -6  -1  -8   29.93    2.10   1
  -6  -1  -8   33.42    2.16   7
  -6   1  -8   30.91    1.28   1
  -6  -1  -8   31.34    2.20   1
  -6   1  -8   31.53    1.42   1
  -7  -1  -8   11.48    2.37   6
   7   1   8   10.49    2.25   4
  -7  -1  -8   11.60    1.48   7
  -7  -1  -8   11.69    1.53   1
  -7  -1  -8   10.11    1.57   1
  -8  -1  -8   47.79    2.77   1
   8   1   8   51.87    4.14   4
  -8  -1  -8   50.82    2.78   7
  -8  -1  -8   51.71    2.96   1
  -8  -1  -8   53.01    4.16   6
  -9  -1  -8   50.73    2.97   1
  -9  -1  -8   59.79    3.12   7
  -9  -1  -8   57.70    3.20   1
  -9  -1  -8   57.26    4.56   6
 -10  -1  -8    2.97    1.31   7
 -10  -1  -8    2.55    1.41   1
 -10  -1  -8    3.21    1.40   1
 -10  -1  -8    4.16    2.35   6
 -11  -1  -8    9.53    1.72   7
 -11  -1  -8    7.51    2.68   6
 -11  -1  -8   11.53    1.83   1
 -11  -1  -8    8.31    1.75   1
 -13  -2   8    4.71    2.58   6
 -13  -2   8    3.53    1.95   7
 -13  -2   8    3.99    1.98   2
  13   2  -8    1.39    1.94   8
 -13   2   8    0.81    1.48   7
  12   2  -8    4.37    2.34   8
  12  -2  -8    4.15    1.93   3
 -12   2   8    7.74    1.93   7
 -12  -2   8    5.35    1.84   2
 -12  -2   8    6.62    2.24   7
  12   2  -8    3.81    1.72   2
 -12  -2   8    5.19    2.48   6
 -11  -2   8    4.66    1.62   2
 -11  -2   8    4.81    2.43   6
  11   2  -8    1.50    1.54   2
 -11   2   8    1.62    1.46   2
 -11  -2   8    3.40    1.70   7
 -11   2   8    3.62    1.60   7
  11  -2  -8    4.66    1.83   3
  11   2  -8    3.73    2.22   8
  10   2  -8   53.69    3.75   2
 -10   2   8   59.55    3.80   2
 -10  -2   8   57.72    3.86   2
  10  -2  -8   59.36    3.17   2
 -10  -2   8   60.30    4.23   7
  10  -2  -8   61.27    3.93   3
 -10   2   8   61.10    3.94   7
 -10  -2   8   70.36    5.14   6
  10   2  -8   56.01    4.45   8
   9  -2  -8   27.97    2.29   2
  -9   2   8   27.83    2.76   7
  -9  -2   8   30.49    3.14   7
  -9  -2   8   20.52    3.14   6
  -9  -2   8   24.49    2.59   2
   9   2  -8   22.26    2.61   2
  -9   2   8   27.20    2.65   2
  -8  -2   8   96.24    5.60   6
  -8   2   8   84.70    4.33   2
  -8   2   8   87.02    4.52   7
  -8  -2   8   84.51    4.71   7
   8   2  -8   95.20    4.73   2
   8  -2  -8   90.23    4.12   2
  -8  -2   8   87.80    4.48   2
  -7  -2   8  128.82    5.75   7
  -7  -2   8  120.53    5.17   2
   7  -2  -8  119.98    4.98   2
   7   2  -8  129.91    5.43   7
  -7   2   8  124.58    5.19   2
   7   2  -8  131.59    5.60   2
  -7   2   8  126.78    5.45   7
  -7  -2   8  115.40    5.38   5
  -7  -2   8  132.79    6.41   6
   6  -2  -8    3.39    1.26   2
  -6  -2   8    5.94    1.96   6
  -6   2   8    6.32    1.45   7
  -6  -2   8    4.67    1.40   5
  -6   2   8    3.56    1.34   2
   6   2  -8    5.50    1.62   2
   6   2  -8    5.88    1.55   7
  -6  -2   8    5.09    1.36   2
  -6  -2   8    8.03    1.79   7
  -5  -2   8   29.09    2.61   7
  -5  -2   8   18.81    2.54   6
   5  -2  -8   24.68    2.44   7
  -5  -2   8   23.97    2.31   5
  -5  -2   8   23.07    2.14   2
  -5   2   8   20.11    2.20   7
   5   2  -8   23.03    2.31   7
  -5   2   8   24.86    2.28   2
   5   2  -8   27.79    2.52   2
   5  -2  -8   27.37    2.25   2
  -4   2   8   18.08    2.07   7
   4  -2  -8   12.29    1.85   7
  -4  -2   8   13.91    2.24   6
  -4  -2   8   15.66    1.96   7
   4   2  -8   15.30    1.93   7
  -4  -2   8   15.59    1.77   2
   4  -2  -8   12.89    1.73   2
  -4   2   8   16.71    1.86   2
  -4  -2   8   14.44    1.87   5
   4   2  -8   15.58    1.95   2
   3  -2  -8   12.54    1.87   7
  -3  -2   8   16.42    1.86   5
  -3   2   8   12.75    1.81   7
  -3   2   8   15.49    1.92   7
   3  -2  -8   15.31    1.82   2
  -3  -2   8   11.24    2.02   6
  -3  -2   8   11.97    1.73   7
  -3   2   8   12.37    1.67   2
  -3  -2   8   12.66    1.57   2
   3   2  -8    8.92    1.62   2
   3   2  -8   12.53    1.74   7
  -2  -2   8   48.49    3.27   6
   2   2  -8   47.49    3.01   1
  -2  -2   8   47.42    2.86   5
   2  -2  -8   44.89    2.81   2
  -2  -2   8   46.24    2.55   2
  -2   2   8   45.14    3.06   3
   2   2  -8   45.97    2.87   2
  -2   2   8   50.97    2.37   4
  -2   2   8   50.30    3.02   7
  -2   2   8   43.51    2.68   2
   2   2  -8   49.74    2.93   7
   2  -2  -8   45.83    3.00   7
   1   2  -8   59.97    3.21   2
  -1  -2   8   60.15    3.22   3
  -1   2   8   64.76    2.95   4
   1   2  -8   56.15    3.07   7
   1  -2  -8   60.86    3.41   7
  -1   2   8   59.35    3.33   3
   1   2  -8   62.64    3.30   1
  -1   2   8   61.62    3.33   7
   1  -2  -8   58.73    3.24   2
  -1  -2   8   60.16    3.46   6
  -1  -2   8   58.68    2.63   2
  -1   2   8   56.39    2.91   2
  -1  -2   8   53.58    3.05   5
   0  -2  -8   21.94    2.07   2
   0   2   8   19.98    2.06   3
   0  -2   8   21.42    1.90   5
   0   2   8   18.38    1.79   4
   0   2   8   20.33    1.79   2
   0  -2   8   21.33    1.90   3
   0  -2   8   21.58    1.30   2
   0   2  -8   19.76    1.94   1
   0  -2   8   20.03    2.12   6
   0   2  -8   19.60    1.88   7
   0  -2  -8   17.30    2.06   7
   0   2   8   19.50    2.02   7
   0   2  -8   20.71    1.90   2
   1  -2   8   32.47    2.54   6
  -1  -2  -8   32.72    2.55   7
  -1   2  -8   28.40    2.11   7
   1  -2   8   36.88    2.24   3
   1  -2   8   33.41    2.22   5
   1   2   8   31.32    2.44   3
  -1  -2  -8   33.59    2.62   1
  -1   2  -8   35.93    2.35   2
   1   2   8   34.31    2.51   4
  -1   2  -8   33.72    2.32   1
   1   2   8   30.43    2.02   2
  -1  -2  -8   28.64    2.35   2
  -1   2  -8   31.40    2.35   1
  -2   2  -8    8.17    1.42   1
  -2   2  -8   12.36    1.51   7
   2  -2   8   12.20    1.29   3
   2   2   8   12.84    1.79   4
  -2  -2  -8    9.91    1.55   2
  -2  -2  -8   13.42    1.87   1
   2  -2   8   11.74    1.40   5
   2   2   8   11.93    1.68   3
  -2  -2  -8   13.77    1.83   7
   2   2   8   15.16    1.36   2
  -2   2  -8   15.51    1.65   1
  -3   2  -8    7.40    1.33   1
   3   2   8    7.29    1.43   3
   3   2   8   10.20    1.64   8
  -3  -2  -8    9.18    1.54   2
  -3   2  -8    6.30    1.25   1
   3   2   8    7.48    1.67   4
   3   2   8    7.68    0.94   2
  -3  -2  -8    8.51    1.62   7
  -3   2  -8    6.25    1.21   7
   3  -2   8    8.19    1.22   5
   3  -2   8    6.72    0.89   3
  -3  -2  -8    6.77    1.60   1
  -4   2  -8   53.52    2.71   1
   4   2   8   46.76    3.14   8
  -4  -2  -8   44.44    3.04   1
  -4   2  -8   53.53    2.78   1
  -4  -2  -8   46.83    3.07   7
   4   2   8   46.70    2.79   3
  -4  -2  -8   51.48    3.80   6
   4  -2   8   47.64    2.51   5
  -4  -2  -8   49.45    3.05   2
  -4   2  -8   50.04    2.60   7
   4   2   8   49.80    3.58   4
  -5  -2  -8   28.79    3.16   6
  -5  -2  -8   27.35    2.55   1
  -5  -2  -8   28.75    2.50   7
   5   2   8   32.58    2.86   8
   5   2   8   26.12    2.90   4
  -5   2  -8   28.02    2.09   1
  -5   2  -8   30.15    2.13   1
   5   2   8   30.35    2.22   3
  -5   2  -8   27.29    1.97   7
   5  -2   8   33.98    2.00   5
  -6   2  -8   41.10    2.40   1
   6  -2   8   40.49    2.11   5
  -6  -2  -8   40.06    3.03   7
   6   2   8   40.54    3.25   8
  -6   2  -8   39.02    2.30   7
  -6  -2  -8   40.92    3.64   6
   6   2   8   37.52    3.43   4
  -6   2  -8   42.48    2.45   1
   6   2   8   41.93    2.73   3
  -6  -2  -8   37.47    2.96   1
   6   2   8   40.98    2.50   3
  -7   2  -8    1.74    0.96   1
   7  -2   8    2.75    0.80   5
  -7  -2  -8    2.69    1.47   7
   7   2   8    2.04    1.07   3
  -7   2  -8    1.59    1.08   1
  -7  -2  -8    4.28    1.58   1
   7   2   8    4.62    1.16   3
  -7  -2  -8    2.32    1.67   6
  -7   2  -8    3.57    1.06   7
   8   2   8    3.15    0.98   3
  -8   2  -8    2.24    0.97   7
  -8  -2  -8    4.26    1.68   7
  -8  -2  -8    2.54    1.61   1
   8  -2   8    2.77    0.75   5
   8   2   8    2.49    0.94   3
  -8   2  -8    0.85    0.99   1
  -8  -2  -8    7.78    2.46   6
  -8   2  -8    1.42    1.07   1
  -9  -2  -8   16.31    2.37   7
  -9   2  -8   13.14    1.53   1
  -9   2  -8   15.69    1.65   1
  -9  -2  -8   13.52    2.36   1
  -9  -2  -8   22.42    3.53   6
  -9   2  -8   19.01    1.63   7
 -10  -2  -8   51.72    3.76   7
 -10  -2  -8   44.60    4.87   6
 -10  -2  -8   47.58    3.66   1
 -10   2  -8   42.15    2.39   1
 -10   2  -8   45.92    2.56   1
  11   3  -8    8.01    2.35   2
  11   3  -8    5.64    2.78   8
 -11  -3   8    4.84    2.90   6
 -11  -3   8    4.04    1.99   2
 -11   3   8    3.06    1.82   7
 -11  -3   8    3.09    2.16   7
 -10  -3   8    2.66    1.91   7
 -10  -3   8    0.45    2.22   6
  10   3  -8   -1.67    2.07   8
  10   3  -8   -0.28    1.51   2
 -10   3   8   -0.02    1.34   7
 -10   3   8   -1.55    1.24   2
 -10  -3   8   -0.61    1.14   2
   9  -3  -8   62.01    3.51   2
  -9  -3   8   65.58    4.66   7
   9   3  -8   49.56    3.99   2
  -9   3   8   60.01    4.33   7
  -9  -3   8   65.41    5.38   6
  -9  -3   8   61.89    4.28   2
  -8   3   8   21.28    2.61   2
  -8  -3   8   24.70    2.85   2
  -8   3   8   24.04    2.92   7
  -8  -3   8   27.67    3.81   6
   8  -3  -8   23.34    2.39   2
   8   3  -8   22.96    2.99   2
  -8  -3   8   20.38    3.04   7
  -7   3   8    3.10    1.44   2
  -7   3   8    0.38    1.33   7
  -7   3   8    1.87    1.53   7
  -7  -3   8    1.04    1.50   7
  -7  -3   8   -0.09    1.12   2
   7   3  -8    2.56    1.56   2
   7  -3  -8    1.71    1.25   2
  -7  -3   8   -1.60    1.72   6
  -6  -3   8    2.79    1.91   6
  -6   3   8    0.91    1.36   7
  -6  -3   8    1.85    1.46   5
  -6   3   8    0.57    1.20   2
   6   3  -8    2.00    1.52   7
   6   3  -8    1.13    1.39   2
  -6   3   8    1.16    1.39   7
   6  -3  -8    4.91    1.55   2
  -6  -3   8    2.06    1.38   2
  -5   3   8   17.85    2.30   2
   5   3  -8   13.76    2.32   2
  -5  -3   8   13.33    2.24   5
   5  -3  -8   20.00    2.33   2
  -5   3   8   18.27    2.51   7
   5   3  -8   16.23    2.41   7
  -5  -3   8   18.86    2.85   6
  -5  -3   8   16.33    2.19   2
  -5   3   8   14.41    2.35   7
  -4  -3   8   98.18    4.58   2
  -4   3   8   91.31    4.93   7
  -4  -3   8   96.99    5.35   6
   4   3  -8   97.76    5.02   2
  -4   3   8   97.65    4.76   2
  -4  -3   8   93.72    4.92   5
   4  -3  -8   95.61    4.74   2
   4   3  -8   89.03    4.82   7
   3  -3  -8   55.25    3.84   7
  -3  -3   8   61.34    3.86   5
  -3   3   8   54.92    3.50   2
   3  -3  -8   53.92    3.51   2
  -3  -3   8   55.24    4.03   6
  -3  -3   8   60.87    3.47   2
   3   3  -8   54.68    3.70   2
  -3   3   8   56.43    3.85   7
   3   3  -8   54.80    3.61   7
   2  -3  -8   65.53    3.88   2
  -2  -3   8   81.89    4.74   6
   2  -3  -8   74.32    4.06   6
   2  -3  -8   68.53    4.35   7
  -2  -3   8   66.34    3.97   5
  -2   3   8   64.71    4.13   7
   2   3  -8   67.08    4.10   2
   2   3  -8   67.67    3.99   7
  -2  -3   8   71.17    3.57   2
  -2   3   8   74.21    3.97   2
  -1  -3   8   23.51    2.00   2
   1  -3  -8   15.23    2.18   2
   1  -3  -8   20.48    2.67   7
  -1   3   8   19.74    2.18   2
  -1  -3   8   21.10    2.43   5
   1  -3  -8   18.94    2.45   6
   1   3  -8   14.62    2.15   2
  -1  -3   8   15.62    2.33   6
   1   3  -8   24.40    2.57   7
   0  -3  -8   32.92    2.83   2
   0   3  -8   29.95    2.73   2
   0   3  -8   27.55    2.72   7
   0  -3  -8   33.22    3.21   7
   0  -3   8   32.23    2.92   6
   0  -3   8   34.32    2.83   5
   0  -3   8   33.69    1.99   2
   0   3   8   34.49    2.69   2
   0  -3  -8   34.92    3.14   6
  -1  -3  -8   88.03    4.68   2
  -1   3  -8   93.60    4.78   1
   1  -3   8   89.06    4.53   6
  -1   3  -8   85.83    4.40   7
   1  -3   8   86.86    4.41   5
   1   3   8   89.63    4.17   2
  -1  -3  -8   88.97    4.96   6
  -1   3  -8   88.56    4.45   2
  -1  -3  -8   92.57    5.00   7
   1   3   8   92.79    4.86   4
   2   3   8   80.17    4.75   4
  -2   3  -8   76.62    4.20   7
   2  -3   8   81.82    4.22   5
   2   3   8   86.95    4.01   2
  -2  -3  -8   84.45    4.88   7
  -2  -3  -8   86.01    4.68   2
  -2   3  -8   82.93    4.53   1
  -2  -3  -8   82.93    4.94   6
  -3  -3  -8   28.30    3.06   7
   3   3   8   29.24    3.07   4
   3   3   8   27.32    2.26   2
   3  -3   8   25.24    2.46   5
   3  -3   8   26.93    2.25   3
   3   3   8   23.85    2.82   3
  -3   3  -8   30.77    2.93   1
  -3   3  -8   22.00    2.42   7
  -3  -3  -8   25.89    2.81   2
   3   3   8   29.55    2.66   8
  -3  -3  -8   26.27    3.19   6
   4  -3   8   33.05    2.68   5
  -4   3  -8   29.53    2.67   7
  -4   3  -8   28.57    2.82   1
  -4  -3  -8   34.83    3.39   7
   4   3   8   35.30    3.10   8
  -4  -3  -8   26.01    2.89   2
  -4  -3  -8   31.30    3.60   6
   4  -3   8   32.38    2.16   3
   4  -3   8   31.96    2.11   3
   4   3   8   25.55    3.12   4
   4   3   8   35.96    3.15   3
   5  -3   8    2.22    0.70   3
  -5  -3  -8   -0.20    1.83   6
   5  -3   8    3.34    0.76   3
   5   3   8    4.04    1.73   3
  -5  -3  -8    4.11    1.72   7
  -5   3  -8    1.72    1.55   1
  -5  -3  -8    3.61    1.65   2
  -5   3  -8    2.38    1.30   7
   5  -3   8    3.19    1.35   5
   5   3   8    3.02    1.50   8
  -6   3  -8    5.60    1.74   1
  -6  -3  -8    1.14    1.67   7
  -6   3  -8    2.44    1.28   7
   6   3   8   -0.21    1.35   3
   6   3   8    0.91    1.42   8
  -6  -3  -8    8.53    2.66   6
   6  -3   8    3.39    1.33   5
  -7  -3  -8    5.18    2.16   7
  -7  -3  -8    7.10    2.65   6
  -7   3  -8    4.60    1.73   1
  -7   3  -8    5.94    1.66   7
   7   3   8    4.67    1.94   8
   7  -3   8    4.44    1.40   5
   8   3   8    5.54    2.05   8
  -8   3  -8    6.21    1.69   7
  -8   3  -8    5.15    1.76   1
  -8  -3  -8    9.92    2.47   7
  -8  -3  -8   11.49    3.25   6
   8  -3   8    7.70    1.57   5
   7   4  -8    1.34    1.83   2
  -7  -4   8    5.81    2.20   2
  -7   4   8    1.75    1.86   7
  -7  -4   8    4.82    2.44   6
   7  -4  -8    6.59    1.84   2
  -7   4   8    4.43    1.80   2
  -6  -4   8   -0.12    2.06   6
  -6   4   8    1.44    1.63   2
  -6   4   8    1.22    1.81   7
   6   4  -8    0.54    1.64   2
   6  -4  -8    0.86    1.50   2
  -6  -4   8   -0.11    1.45   2
  -5   4   8   -1.15    1.62   7
  -5  -4   8    0.41    2.02   6
   5   4  -8    0.37    1.72   2
  -5  -4   8   -0.15    1.40   2
  -5  -4   8    1.29    1.69   5
   5   4  -8    0.40    1.64   7
  -5   4   8   -0.47    1.47   2
   5  -4  -8   -0.25    1.23   2
   4   4  -8    4.25    1.96   7
  -4   4   8    1.58    1.81   7
  -4  -4   8    0.77    1.44   2
  -4  -4   8    1.65    1.57   5
   4   4  -8    1.40    1.78   2
  -4   4   8    0.69    1.49   2
  -4  -4   8    3.94    2.10   6
   4  -4  -8    2.09    1.65   2
   3   4  -8   17.66    2.90   2
  -3  -4   8   21.43    3.24   6
  -3  -4   8   16.70    2.80   5
   3  -4  -8   17.86    2.67   2
  -3  -4   8   21.80    2.65   2
  -3   4   8   18.22    2.72   2
   3   4  -8   21.84    3.13   7
  -2  -4   8   19.24    2.27   2
  -2  -4   8   18.97    2.89   5
  -2  -4   8   19.15    3.02   6
  -2   4   8   15.41    2.55   2
   2   4  -8   15.26    2.84   2
   2  -4  -8   19.37    2.71   2
   2   4  -8   16.85    2.84   7
   1   4  -8    8.67    2.37   2
   1  -4  -8   12.12    2.40   2
  -1  -4   8   13.92    2.63   5
   1   4  -8   12.48    2.61   7
  -1   4   8   14.24    2.36   2
   0   4  -8   21.11    3.00   7
   0   4   8   22.29    2.70   2
   0  -4  -8   15.22    3.06   7
   0  -4   8   21.21    2.84   5
   0   4  -8   13.01    2.60   2
   0  -4  -8   18.94    2.77   2
  -1   4  -8   10.81    2.36   7
   1  -4   8    7.55    2.14   5
  -1  -4  -8    5.74    2.00   2
   1   4   8    8.67    2.02   2
  -1  -4  -8    6.31    2.42   7
  -2  -4  -8    0.36    1.81   7
  -2  -4  -8    3.52    2.43   6
   2  -4   8    2.46    1.70   5
  -2   4  -8    4.64    1.84   7
  -2  -4  -8    2.63    1.84   2
   2   4   8    3.67    1.63   2
   3  -4   8   20.16    2.84   5
   3   4   8   31.19    2.83   2
  -3  -4  -8   31.00    3.58   2
  -3  -4  -8   28.61    4.08   6
  -3   4  -8   30.70    3.37   7
  -3  -4  -8   29.30    3.82   7
  -4  -4  -8   12.10    3.29   6
   4  -4   8    7.01    2.07   5
  -4  -4  -8   10.45    2.78   7
  -4  -4  -8    5.39    2.16   2
  -4   4  -8    7.88    2.25   7
 -14   0   9   11.27    2.44   7
 -13   0   9   22.24    2.73   2
 -13   0   9   18.07    2.66   7
 -12   0   9    0.53    1.22   7
 -12   0   9    2.53    1.38   2
  11   0  -9   24.82    2.37   2
 -11   0   9   25.35    2.90   6
 -11   0   9   18.05    2.38   2
 -11   0   9   18.57    2.43   7
  10   0  -9    1.02    1.32   2
 -10   0   9    4.17    1.71   6
 -10   0   9    4.71    1.54   7
 -10   0   9    5.14    1.47   2
  -9   0   9  229.44    7.92   7
  -9   0   9  237.63    8.15   6
  -9   0   9  226.82    7.61   2
   9   0  -9  231.79    7.61   2
   8   0  -9   36.37    2.68   8
   8   0  -9   45.15    3.20   3
  -8   0   9   34.76    2.60   2
   8   0  -9   38.20    2.74   2
  -8   0   9   36.46    3.10   6
  -8   0   9   41.12    2.89   7
   8   0  -9   40.15    2.75   7
  -7   0   9    3.77    1.10   2
   7   0  -9    4.12    1.34   3
   7   0  -9    2.62    1.13   2
   7   0  -9    4.45    1.25   7
  -7   0   9    3.30    1.19   7
  -7   0   9    3.68    1.40   6
   6   0  -9  356.81   10.03   7
  -6   0   9  360.50    9.91   2
   6   0  -9  355.60   10.50   3
  -6   0   9  369.39   10.60   6
   6   0  -9  362.32   10.16   2
  -6   0   9  374.34   10.27   7
   5   0  -9   18.62    1.84   7
  -5   0   9   19.91    2.10   6
   5   0  -9   20.11    1.94   3
  -5   0   9   16.86    1.79   7
  -5   0   9   18.29    1.81   3
  -5   0   9   16.45    1.61   2
   5   0  -9   20.05    1.86   2
  -4   0   9   36.24    2.56   6
   4   0  -9   26.80    2.05   2
   4   0  -9   28.66    2.17   3
  -4   0   9   27.83    2.09   3
   4   0  -9   33.35    2.19   1
   4   0  -9   33.25    2.34   3
   4   0  -9   29.03    2.06   7
  -4   0   9   30.23    2.00   2
  -4   0   9   27.39    1.99   7
   3   0  -9  294.16    8.50   3
  -3   0   9  302.12    8.86   6
  -3   0   9  293.31    8.38   3
   3   0  -9  302.34    8.07   1
  -3   0   9  297.25    8.17   7
   3   0  -9  282.88    8.12   7
  -3   0   9  290.23    7.88   2
   3   0  -9  308.75    8.34   2
  -2   0   9   10.33    1.12   2
  -2   0   9   11.84    1.30   7
   2   0  -9   11.08    1.32   2
  -2   0   9   11.98    1.32   3
   2   0  -9   11.42    1.31   1
   2   0  -9   10.61    1.25   1
  -2   0   9   12.81    1.42   3
   2   0  -9   10.16    1.25   7
   2   0  -9   13.20    1.45   3
   1   0  -9   55.12    2.65   2
  -1   0   9   57.89    2.29   2
   1   0  -9   62.88    2.69   1
  -1   0   9   63.92    2.77   3
   1   0  -9   56.20    2.64   7
   1   0  -9   59.22    2.69   1
   1   0  -9   59.28    2.82   3
  -1   0   9   69.36    2.90   3
   0   0   9    0.45    0.36   2
   0   0   9    0.53    0.68   3
   0   0  -9    0.20    0.56   2
   0   0   9    0.04    0.49   3
   0   0  -9   -0.20    0.48   7
   0   0  -9    0.35    0.61   3
   0   0  -9    0.52    0.59   1
   0   0  -9    0.12    0.61   1
   1   0   9    3.21    0.79   3
  -1   0  -9    4.08    0.80   7
  -1   0  -9    2.24    0.74   1
   1   0   9    2.08    0.66   3
  -1   0  -9    2.39    0.70   2
  -1   0  -9    2.77    0.79   1
  -2   0  -9    3.17    0.74   1
  -2   0  -9    3.89    0.79   1
   2   0   9    3.74    0.68   3
  -2   0  -9    3.87    0.80   7
  -3   0  -9  227.14    5.85   1
   3   0   9  228.20    8.05   4
   3   0   9  227.97    5.43   3
  -3   0  -9  227.74    5.91   1
  -3   0  -9  228.02    5.96   7
   4   0   9   28.86    2.63   4
  -4   0  -9   25.22    1.42   7
  -4   0  -9   27.77    1.50   1
  -4   0  -9   26.10    1.56   1
  -5   0  -9   10.57    0.92   7
  -5   0  -9    8.31    0.95   1
   5   0   9    8.40    1.77   4
  -5   0  -9    9.18    0.90   1
   6   0   9    0.52    1.04   4
  -6   0  -9    0.89    0.58   1
  -6   0  -9    0.18    0.52   7
  -6   0  -9    2.12    0.68   1
  -7   0  -9    7.91    0.78   7
   7   0   9    5.43    1.75   4
  -7   0  -9    7.17    0.85   1
  -7   0  -9    7.63    0.94   1
  -8   0  -9    0.99    0.68   1
  -8   0  -9    1.14    0.75   1
  -8   0  -9    1.05    0.64   7
  -9   0  -9    4.59    2.03   6
  -9   0  -9    2.67    0.88   1
  -9   0  -9    2.08    0.78   1
 -10   0  -9    3.15    0.90   1
 -10   0  -9    5.66    2.22   6
 -10   0  -9    5.43    0.99   1
 -11   0  -9    0.85    0.81   1
 -11   0  -9    0.23    0.80   1
 -13  -1   9    2.08    1.60   2
 -13  -1   9    1.75    1.61   7
  13  -1  -9    0.91    1.71   3
 -13  -1   9    4.93    2.20   6
 -13   1   9   -0.08    1.25   7
 -12  -1   9    0.88    1.50   7
 -12   1   9   -0.08    1.35   2
 -12   1   9    1.96    1.39   7
  12   1  -9    4.80    2.01   8
  12   1  -9   -0.05    1.25   2
  12  -1  -9    1.78    1.51   3
 -12  -1   9    3.05    1.55   2
 -12  -1   9    2.32    1.90   6
  11  -1  -9    3.69    1.38   2
 -11   1   9    3.82    1.52   7
 -11   1   9    3.36    1.49   2
 -11  -1   9    2.16    1.93   6
 -11  -1   9    4.09    1.62   7
 -11  -1   9    5.13    1.70   2
  11   1  -9    2.55    1.47   2
  11   1  -9    4.35    1.91   8
 -10  -1   9   94.16    4.72   2
  10   1  -9  102.43    4.86   2
 -10   1   9   95.12    4.66   2
  10  -1  -9  102.77    4.47   2
 -10  -1   9   93.12    5.42   6
 -10  -1   9   98.15    5.08   7
  10   1  -9   96.93    4.99   8
 -10   1   9   95.63    4.83   7
   9   1  -9  209.87    7.25   2
  -9   1   9  188.05    6.89   2
  -9  -1   9  199.82    7.48   7
   9  -1  -9  196.90    6.72   2
  -9  -1   9  192.69    7.05   2
  -9   1   9  193.38    7.17   7
  -9  -1   9  206.72    8.08   6
  -8  -1   9  531.42   14.72   7
  -8  -1   9  525.03   14.27   2
  -8   1   9  544.67   14.27   2
  -8  -1   9  545.36   14.63   5
  -8  -1   9  532.20   15.59   6
   8   1  -9  542.97   14.59   2
  -8   1   9  564.76   14.35   6
   8  -1  -9  538.50   14.16   2
   8   1  -9  571.72   14.50   7
  -8   1   9  528.62   14.48   7
   7   1  -9   50.38    3.26   2
   7  -1  -9   45.43    2.90   2
  -7  -1   9   56.15    3.41   7
   7  -1  -9   51.55    3.20   7
  -7  -1   9   52.73    3.24   5
  -7   1   9   47.49    2.95   2
  -7   1   9   52.67    3.22   7
   7  -1  -9   53.56    3.34   3
  -7  -1   9   48.17    3.53   6
  -7  -1   9   57.43    3.20   2
   7   1  -9   53.21    3.16   7
   6  -1  -9   35.87    2.71   3
   6  -1  -9   38.81    2.64   7
  -6   1   9   41.24    2.69   7
  -6  -1   9   32.65    2.86   6
  -6   1   9   34.66    2.45   2
   6  -1  -9   34.39    2.47   2
  -6  -1   9   33.76    2.41   2
  -6  -1   9   32.03    2.57   7
  -6  -1   9   30.50    2.47   5
   6   1  -9   33.92    2.62   2
   6   1  -9   37.92    2.60   7
   5   1  -9   28.92    2.35   2
   5  -1  -9   30.24    2.38   3
  -5  -1   9   31.37    2.34   5
  -5   1   9   26.05    2.09   2
  -5  -1   9   27.14    2.10   2
  -5  -1   9   30.80    2.27   7
   5  -1  -9   28.34    2.22   2
   5   1  -9   27.28    2.20   7
  -5  -1   9   25.88    2.61   6
  -5  -1   9   28.80    2.37   3
   5  -1  -9   28.39    2.26   7
  -5   1   9   26.64    2.24   7
   4   1  -9    2.93    1.07   7
   4  -1  -9    0.56    0.91   7
  -4  -1   9    0.39    0.84   3
  -4   1   9    1.22    0.90   7
  -4   1   9    1.25    0.81   2
  -4  -1   9    0.19    0.73   5
  -4  -1   9    1.03    1.15   6
  -4  -1   9    1.41    0.94   7
   4  -1  -9    2.03    0.98   3
   4   1  -9    1.71    0.97   2
   4  -1  -9    0.59    0.44   4
   4  -1  -9    0.72    0.87   2
  -4  -1   9    0.60    0.69   2
  -4   1   9    1.42    0.82   3
   3   1  -9  147.17    5.14   1
   3  -1  -9  142.39    5.16   2
   3  -1  -9  147.90    4.48   4
  -3  -1   9  153.06    5.14   7
  -3  -1   9  144.62    5.18   5
   3   1  -9  154.52    5.32   2
  -3  -1   9  153.21    5.82   6
  -3   1   9  151.30    4.98   2
  -3   1   9  149.08    5.37   3
   3  -1  -9  148.12    5.19   7
  -3   1   9  152.38    5.29   7
  -3  -1   9  150.75    5.28   3
  -3  -1   9  141.27    5.37   3
  -3  -1   9  148.27    4.85   2
   3  -1  -9  153.50    5.18   1
   3   1  -9  146.17    5.14   7
   3  -1  -9  158.99    5.56   3
  -2   1   9  139.51    4.69   2
   2   1  -9  146.38    4.87   1
  -2  -1   9  150.09    5.68   6
   2  -1  -9  141.67    5.04   2
  -2  -1   9  140.90    5.11   3
  -2  -1   9  156.91    4.91   7
   2   1  -9  139.93    4.97   2
  -2   1   9  147.99    5.08   7
   2   1  -9  141.72    4.93   7
  -2  -1   9  141.10    4.96   5
  -2  -1   9  143.16    4.99   3
  -2   1   9  149.22    5.22   3
   2   1  -9  151.73    4.96   1
   2   1  -9  141.31    5.23   3
   2  -1  -9  152.26    5.34   3
   2  -1  -9  149.39    5.00   1
  -2   1   9  144.14    5.33   3
  -2  -1   9  140.37    4.49   2
   2  -1  -9  148.67    4.73   4
   2  -1  -9  145.34    5.05   7
  -1   1   9   50.55    2.75   3
  -1   1   9   54.42    2.75   7
   1  -1  -9   54.30    2.79   7
   1   1  -9   59.63    2.72   1
  -1  -1   9   54.23    2.74   3
   1   1  -9   62.65    2.75   1
  -1   1   9   56.64    2.71   4
   1   1  -9   57.24    2.96   3
   1   1  -9   58.04    2.77   7
  -1  -1   9   53.66    2.64   3
  -1   1   9   49.14    2.89   3
   1  -1  -9   55.41    2.74   4
  -1   1   9   51.52    2.43   2
   1  -1  -9   57.87    2.87   2
   1  -1  -9   56.06    2.94   3
  -1   1   9   54.33    2.75   7
   1   1  -9   59.04    2.77   2
   1  -1  -9   50.12    2.78   1
  -1  -1   9   55.96    3.23   6
  -1  -1   9   53.90    2.23   2
  -1  -1   9   50.35    2.63   5
   0  -1   9  301.07    8.29   5
   0   1   9  308.32    7.81   2
   0  -1   9  312.02    8.54   3
   0   1  -9  317.26    8.14   1
   0  -1  -9  327.36    8.52   1
   0  -1   9  307.16    8.27   3
   0  -1  -9  336.35    9.08   3
   0   1   9  306.25    9.17   4
   0   1  -9  324.15    8.34   2
   0   1  -9  308.86    8.36   7
   0  -1  -9  320.82    8.61   7
   0  -1  -9  307.88    8.59   2
   0   1   9  304.98    8.62   3
   0   1  -9  315.75    8.17   1
   0  -1  -9  315.78    8.52   1
   0   1   9  323.92    9.04   3
  -1  -1  -9   56.58    2.85   1
  -1  -1  -9   59.27    2.82   2
   1   1   9   53.13    1.95   2
  -1   1  -9   55.98    2.44   2
   1   1   9   54.98    3.03   4
  -1   1  -9   58.89    2.58   7
   1  -1   9   57.00    2.37   3
   1  -1   9   54.34    2.49   5
  -1  -1  -9   53.38    2.68   7
  -1   1  -9   56.48    2.47   1
  -1  -1  -9   56.14    2.77   1
   1   1   9   52.53    2.61   3
  -1   1  -9   56.71    2.53   1
  -2   1  -9  127.34    4.05   7
   2  -1   9  124.99    4.00   5
  -2  -1  -9  116.78    4.30   7
   2   1   9  119.41    5.15   4
   2   1   9  126.69    4.23   3
  -2   1  -9  127.14    3.93   1
  -2  -1  -9  122.96    4.34   1
   2  -1   9  126.18    3.67   3
  -2   1  -9  123.88    3.97   1
  -2  -1  -9  124.59    4.43   1
  -2  -1  -9  128.23    4.43   2
  -3   1  -9   67.05    2.57   1
   3   1   9   67.63    2.72   3
   3   1   9   64.27    3.74   4
   3  -1   9   65.25    2.56   5
  -3  -1  -9   65.05    3.06   1
  -3  -1  -9   66.54    2.96   7
  -3   1  -9   68.23    2.54   1
  -3  -1  -9   67.46    3.01   1
  -3   1  -9   66.93    2.60   7
  -4   1  -9   61.22    2.37   1
  -4   1  -9   62.40    2.39   7
   4  -1   9   61.34    2.32   5
  -4  -1  -9   57.80    2.77   7
  -4   1  -9   62.42    2.31   1
  -4  -1  -9   58.14    2.83   1
  -4  -1  -9   56.20    2.85   1
   4   1   9   60.59    2.38   3
   4   1   9   70.17    4.00   4
   5   1   9    3.20    0.62   3
  -5   1  -9    1.97    0.63   1
   5   1   9    3.26    0.72   3
  -5  -1  -9    3.02    0.98   7
   5   1   9    3.04    1.36   4
  -5   1  -9    1.57    0.63   1
  -5  -1  -9    2.83    1.05   1
  -5   1  -9    2.56    0.66   7
  -5  -1  -9    3.61    1.13   1
   5  -1   9    2.39    0.63   5
   6   1   9    8.00    1.90   4
  -6  -1  -9   10.15    1.57   1
  -6  -1  -9   14.63    1.59   7
  -6   1  -9   12.17    1.01   1
  -6   1  -9   13.12    0.98   1
  -6   1  -9   12.36    0.99   7
  -6  -1  -9    8.51    1.42   1
  -7  -1  -9   24.25    2.03   1
  -7  -1  -9   24.33    3.03   6
   7   1   9   22.76    2.98   4
  -7  -1  -9   21.58    1.94   1
  -7  -1  -9   25.72    1.98   7
  -8  -1  -9   11.78    2.61   6
  -8  -1  -9    9.39    1.65   1
  -8  -1  -9    9.86    1.56   1
  -8  -1  -9    7.28    1.41   7
  -9  -1  -9   83.31    3.89   1
  -9  -1  -9   94.11    4.10   1
  -9  -1  -9   90.35    3.96   7
  -9  -1  -9   89.31    5.68   6
 -10  -1  -9   28.07    2.44   7
 -10  -1  -9   33.96    2.66   1
 -10  -1  -9   22.61    3.54   6
 -10  -1  -9   30.77    2.54   1
 -11  -1  -9    3.27    1.41   7
 -11  -1  -9    3.64    1.55   1
 -11  -1  -9    5.56    2.49   6
 -11  -1  -9    2.49    1.38   1
 -12  -2   9    2.91    2.28   6
  12   2  -9    2.31    1.85   2
  12   2  -9    1.54    2.13   8
 -12  -2   9    3.11    1.75   7
 -12   2   9    1.88    1.60   2
 -12  -2   9    0.85    1.46   2
 -12   2   9    3.98    1.68   7
 -11  -2   9   -0.37    1.21   2
  11   2  -9    3.12    1.72   2
 -11  -2   9    2.78    2.04   6
 -11   2   9    0.03    1.41   2
 -11   2   9    2.38    1.43   7
 -11  -2   9    2.97    1.73   7
  11   2  -9    3.87    2.20   8
  10  -2  -9   16.08    2.02   2
  10   2  -9   20.31    2.62   2
 -10  -2   9   14.32    3.10   6
 -10  -2   9   16.07    2.40   2
  10   2  -9   14.35    2.96   8
 -10  -2   9   16.53    2.70   7
 -10   2   9   14.30    2.32   7
 -10   2   9   16.42    2.32   2
  -9   2   9   24.14    2.63   7
  -9  -2   9   22.77    2.56   2
  -9  -2   9   30.42    3.18   7
   9   2  -9   19.30    2.55   2
  -9   2   9   17.65    2.34   2
   9  -2  -9   20.02    2.24   2
  -9  -2   9   16.11    2.88   6
   8   2  -9   21.07    2.57   2
  -8   2   9   17.99    2.26   2
  -8   2   9   16.39    2.30   7
   8  -2  -9   16.77    2.08   2
  -8  -2   9   16.28    2.22   2
  -8  -2   9   16.61    2.93   6
  -8  -2   9   19.37    2.68   7
  -7  -2   9   54.38    3.66   5
   7  -2  -9   54.51    3.34   2
   7   2  -9   58.54    3.77   2
  -7  -2   9   53.25    3.39   2
  -7  -2   9   48.75    4.05   6
  -7   2   9   43.09    3.16   2
  -7  -2   9   52.74    3.73   7
   7   2  -9   51.82    3.49   7
  -7   2   9   54.90    3.56   7
   6  -2  -9    4.24    1.34   2
  -6   2   9    2.52    1.27   7
  -6  -2   9    4.04    1.37   5
  -6  -2   9    4.16    1.33   2
  -6  -2   9    1.38    1.67   6
   6   2  -9    2.90    1.39   2
  -6   2   9    0.95    1.12   2
   6   2  -9    3.77    1.40   7
   6  -2  -9    2.28    1.41   7
  -6  -2   9    1.56    1.25   7
  -5   2   9    2.05    1.13   7
   5  -2  -9    3.19    1.25   7
   5  -2  -9    4.95    1.37   2
  -5   2   9    3.33    1.32   2
  -5  -2   9    2.24    1.10   2
  -5  -2   9    3.23    1.65   6
  -5  -2   9    1.92    1.14   5
   5   2  -9    0.51    1.00   7
  -5  -2   9    0.96    1.18   7
   5   2  -9    2.50    1.29   2
   4   2  -9   55.12    3.44   2
   4   2  -9   61.88    3.52   7
  -4   2   9   61.91    3.59   7
   4  -2  -9   62.21    3.59   7
  -4  -2   9   64.25    3.28   2
   4  -2  -9   57.57    3.37   2
  -4   2   9   62.79    3.40   2
  -4  -2   9   64.14    4.13   6
  -4  -2   9   59.59    3.53   5
  -4  -2   9   62.85    3.53   7
  -3   2   9  109.58    4.45   2
   3   2  -9  110.63    4.72   2
  -3   2   9  107.09    4.72   7
  -3  -2   9  100.43    4.17   2
   3  -2  -9   97.57    4.44   2
   3   2  -9   95.06    4.41   7
  -3  -2   9   99.03    4.53   5
  -3   2   9  108.70    4.76   7
  -3  -2   9   94.80    4.92   6
   3  -2  -9  107.40    4.74   7
   2   2  -9   10.70    1.70   7
  -2   2   9   11.76    1.81   3
   2   2  -9   11.39    1.69   2
  -2  -2   9   14.29    1.82   5
   2  -2  -9   10.61    1.64   2
   2   2  -9    7.47    1.62   1
  -2  -2   9    9.92    1.87   6
  -2   2   9    9.27    1.65   7
  -2  -2   9    8.05    1.29   2
  -2   2   9   10.84    1.56   2
   2  -2  -9    8.24    1.74   7
  -1   2   9   60.80    3.02   4
   1  -2  -9   62.59    3.55   7
   1   2  -9   56.83    3.27   1
  -1  -2   9   58.83    3.25   3
  -1  -2   9   62.55    2.68   2
  -1  -2   9   58.31    3.23   5
   1   2  -9   62.53    3.32   2
   1  -2  -9   66.15    3.51   2
  -1   2   9   65.03    3.55   3
  -1  -2   9   61.13    3.73   6
  -1   2   9   62.85    3.17   2
   1   2  -9   64.39    3.34   7
  -1   2   9   67.86    3.54   7
   0  -2   9   17.61    1.81   3
   0   2   9   16.64    1.76   4
   0   2   9   19.07    2.07   3
   0   2  -9   19.49    1.95   7
   0   2  -9   18.56    1.92   2
   0  -2   9   18.24    1.85   5
   0   2  -9   17.40    1.86   1
   0   2   9   17.70    1.69   2
   0  -2  -9   16.19    1.94   2
   0  -2   9   19.66    2.20   6
   0  -2  -9   19.49    2.17   7
   1  -2   9  105.88    4.00   3
   1  -2   9  100.02    4.19   5
  -1  -2  -9   99.15    4.57   1
  -1   2  -9  110.35    4.29   1
  -1   2  -9  108.36    4.28   1
   1   2   9  107.39    4.77   4
   1   2   9  105.22    3.81   2
  -1   2  -9  105.05    4.29   7
  -1  -2  -9  101.84    4.65   7
   1   2   9   97.07    4.47   3
  -1  -2  -9  107.91    4.63   2
   1  -2   9   96.63    4.55   6
  -2  -2  -9    4.46    1.46   7
   2   2   9    6.00    1.00   2
  -2  -2  -9    6.19    1.46   2
   2  -2   9    5.88    1.24   5
  -2   2  -9    5.51    1.28   1
  -2   2  -9    6.00    1.27   7
  -2   2  -9    7.02    1.38   1
   2   2   9    5.30    1.38   3
  -2  -2  -9   10.39    1.77   1
   2   2   9    7.04    1.60   4
   2  -2   9    4.49    1.02   3
   3   2   9   33.36    2.92   4
  -3  -2  -9   33.97    2.69   1
  -3   2  -9   32.22    2.31   1
  -3  -2  -9   31.16    2.50   2
  -3  -2  -9   30.80    2.58   7
   3  -2   9   29.69    2.14   5
  -3   2  -9   34.01    2.36   1
   3  -2   9   34.52    1.70   3
  -3   2  -9   32.91    2.20   7
   3   2   9   32.91    2.52   3
   4   2   9   30.06    2.32   3
  -4  -2  -9   25.91    2.50   1
  -4   2  -9   30.15    2.13   7
  -4  -2  -9   27.99    2.55   7
  -4   2  -9   26.74    2.12   1
  -4   2  -9   30.46    2.23   1
   4  -2   9   27.67    2.01   5
   4   2   9   25.85    2.82   4
   5  -2   9   32.63    2.07   5
   5   2   9   33.76    3.32   4
  -5  -2  -9   31.48    2.62   7
  -5   2  -9   35.28    2.29   1
  -5  -2  -9   37.17    2.86   1
   5   2   9   29.48    2.29   3
  -5  -2  -9   34.54    3.45   6
  -5   2  -9   30.47    2.25   1
  -5   2  -9   35.28    2.22   7
  -6   2  -9   20.37    1.73   7
   6   2   9   26.82    3.19   4
  -6   2  -9   17.10    1.77   1
   6   2   9   18.86    1.77   3
  -6   2  -9   19.02    1.78   1
   6  -2   9   15.70    1.41   5
  -6  -2  -9   19.07    2.99   6
  -6  -2  -9   15.35    2.15   7
  -6  -2  -9   18.01    2.27   1
  -7   2  -9   12.32    1.55   1
  -7   2  -9   12.88    1.55   1
   7   2   9   11.86    1.52   3
   7  -2   9   13.54    1.19   5
  -7  -2  -9   12.22    2.09   7
   7   2   9   15.22    1.52   3
  -7  -2  -9    8.64    2.46   6
  -7   2  -9   11.87    1.44   7
  -7  -2  -9   16.02    2.22   1
  -8   2  -9    6.00    1.26   1
  -8   2  -9    5.94    1.16   7
  -8  -2  -9    7.13    2.50   6
  -8  -2  -9    5.06    1.70   7
  -8  -2  -9    1.79    1.51   1
  -8   2  -9    4.37    1.16   1
   8   2   9    4.02    0.89   3
  -9   2  -9    9.31    1.38   1
  -9   2  -9   11.02    1.47   1
  -9  -2  -9   11.11    2.21   1
  -9  -2  -9   10.02    2.15   7
  -9  -2  -9   12.22    3.00   6
 -10   2  -9    7.86    1.29   1
 -10  -2  -9    4.63    2.72   6
 -10  -2  -9    9.68    2.23   1
 -10  -2  -9    6.61    1.95   7
 -10   2  -9    8.31    1.39   1
  10   3  -9    6.38    2.31   2
 -10  -3   9    9.07    2.38   2
 -10   3   9   11.33    2.45   7
 -10  -3   9    8.07    2.89   6
 -10  -3   9    6.94    2.39   7
 -10   3   9    9.68    2.24   2
  -9   3   9    0.69    1.44   2
   9  -3  -9    1.92    1.46   2
   9   3  -9   -0.35    1.50   2
  -9   3   9    0.83    1.47   7
  -9  -3   9    2.20    2.20   6
  -9  -3   9   -0.22    1.33   2
   8   3  -9    2.84    1.87   2
  -8  -3   9    2.16    2.10   6
  -8   3   9    3.55    1.64   2
  -8  -3   9    3.49    1.68   2
  -8   3   9    3.55    1.65   7
   8  -3  -9    2.85    1.47   2
  -7   3   9   24.06    3.00   7
  -7  -3   9   31.51    3.77   6
   7   3  -9   25.34    3.02   2
   7  -3  -9   27.69    2.71   2
  -7   3   9   24.25    2.76   2
  -7   3   9   23.43    3.01   7
  -7  -3   9   33.43    3.18   2
  -6  -3   9   18.45    3.04   6
  -6   3   9   12.46    2.38   7
  -6  -3   9   15.75    2.35   2
  -6  -3   9   12.42    2.35   5
  -6   3   9   17.64    2.65   7
   6   3  -9   16.52    2.59   7
  -6   3   9   15.45    2.36   2
   6   3  -9   13.80    2.46   2
   6  -3  -9   14.14    2.21   2
  -5   3   9    0.41    1.28   2
   5   3  -9    1.18    1.21   7
  -5  -3   9   -0.55    1.02   5
  -5   3   9   -0.44    1.07   7
   5  -3  -9   -0.37    1.06   2
  -5  -3   9   -0.69    1.47   6
  -5   3   9   -1.25    1.03   7
  -5  -3   9   -0.49    1.00   2
   5   3  -9    1.71    1.49   2
   4   3  -9    6.53    1.86   7
   4   3  -9    4.73    1.81   2
  -4  -3   9    6.58    1.89   5
   4  -3  -9    6.84    1.75   2
  -4   3   9    7.57    1.82   2
  -4   3   9    5.87    1.87   7
  -4  -3   9    5.07    1.56   2
  -4  -3   9    6.71    2.09   6
   3  -3  -9   29.04    2.79   2
   3  -3  -9   22.72    2.88   7
  -3  -3   9   30.89    3.02   5
  -3   3   9   25.89    2.63   2
  -3   3   9   26.44    2.94   7
   3   3  -9   29.90    2.95   2
  -3  -3   9   32.27    2.59   2
   3   3  -9   24.88    2.80   7
  -3  -3   9   28.93    3.15   6
  -2  -3   9   67.15    3.44   2
  -2  -3   9   61.65    3.96   5
   2  -3  -9   56.60    3.77   2
  -2  -3   9   68.37    4.35   6
   2   3  -9   68.84    4.10   7
   2  -3  -9   63.02    4.27   7
   2   3  -9   63.47    4.04   2
  -2   3   9   68.85    4.06   2
  -1  -3   9   44.09    2.49   2
  -1  -3   9   40.17    3.31   6
   1  -3  -9   39.57    3.18   2
  -1   3   9   43.35    3.08   2
   1  -3  -9   32.34    3.24   7
  -1  -3   9   39.35    3.08   5
   1   3  -9   38.27    3.14   7
   1   3  -9   36.64    3.15   2
   1  -3  -9   39.00    3.32   6
   0   3   9   46.79    3.13   2
   0  -3   9   46.92    3.33   5
   0  -3  -9   44.35    3.35   2
   0  -3  -9   39.86    3.47   7
   0  -3   9   45.68    3.48   6
   0   3  -9   50.48    3.39   7
   0   3  -9   42.93    3.32   2
   0  -3  -9   54.93    3.95   6
   1  -3   9   62.07    3.71   5
   1   3   9   66.09    3.51   2
  -1  -3  -9   51.83    3.71   2
  -1   3  -9   55.25    3.56   7
   1  -3   9   58.40    3.82   6
  -1  -3  -9   61.00    4.16   7
  -1  -3  -9   55.12    4.15   6
  -2  -3  -9   31.34    3.46   6
  -2  -3  -9   34.00    3.17   2
  -2   3  -9   34.90    3.16   1
  -2  -3  -9   29.83    3.23   7
   2   3   9   31.34    3.05   4
   2   3   9   33.55    2.51   2
  -2   3  -9   38.64    2.95   7
   2  -3   9   29.89    2.72   5
  -3  -3  -9    0.84    1.41   2
  -3   3  -9    1.21    1.54   1
   3   3   9    0.19    1.24   4
   3   3   9    0.00    0.95   2
  -3  -3  -9    2.27    1.80   6
   3  -3   9    1.54    1.08   3
   3   3   9    2.61    1.60   3
   3  -3   9    0.59    1.17   5
  -3   3  -9    1.37    1.20   7
  -3  -3  -9    0.40    1.33   7
   4  -3   9   14.94    1.39   3
   4  -3   9   16.27    2.09   5
   4   3   9   16.09    2.36   3
  -4   3  -9   11.00    2.13   1
  -4   3  -9   12.75    1.97   7
   4  -3   9    9.48    1.32   3
  -4  -3  -9   12.90    2.52   7
  -4  -3  -9   15.37    2.90   6
  -4  -3  -9   11.61    2.29   2
   4   3   9   12.57    2.19   8
   4   3   9   13.18    2.44   4
   5  -3   9    0.62    1.16   5
  -5  -3  -9    1.94    1.62   7
  -5   3  -9    0.68    1.13   7
  -5  -3  -9   -1.00    1.83   6
   5   3   9    1.08    1.38   8
   5   3   9   -1.23    1.26   3
  -5   3  -9    0.25    1.39   1
  -6   3  -9    7.42    1.86   1
   6  -3   9    4.30    1.40   5
   6   3   9    3.11    1.61   3
  -6  -3  -9    4.41    2.38   6
   6   3   9    3.32    1.77   8
  -6  -3  -9    4.86    1.91   7
  -6   3  -9    4.52    1.54   7
  -7  -3  -9    0.58    2.11   6
  -7  -3  -9    2.33    1.76   7
  -7   3  -9    2.50    1.68   1
  -7   3  -9    0.19    1.23   7
   7   3   9    1.12    1.64   8
   7  -3   9    1.15    1.13   5
  -8   3  -9    5.88    1.68   7
   8  -3   9    2.78    1.27   5
  -8   3  -9    2.09    1.60   1
  -8  -3  -9    6.38    2.22   7
  -8  -3  -9    1.29    2.26   6
  -6   4   9    2.92    1.76   2
   6  -4  -9    0.00    1.51   2
   6   4  -9    4.09    2.21   2
  -6  -4   9    2.89    2.30   6
  -6   4   9    4.11    2.32   7
  -6  -4   9    6.57    2.15   2
  -5   4   9    6.75    2.39   7
   5   4  -9    9.87    2.67   7
  -5  -4   9    5.85    2.27   5
  -5  -4   9   10.86    2.97   6
   5  -4  -9    9.96    2.30   2
  -5  -4   9    7.39    2.09   2
  -5   4   9    8.06    2.22   2
   5   4  -9    8.21    2.55   2
  -4  -4   9   31.24    3.81   6
  -4  -4   9   29.59    3.10   2
   4  -4  -9   20.58    2.91   2
   4   4  -9   22.85    3.35   7
  -4  -4   9   31.23    3.61   5
  -4   4   9   32.13    3.37   2
   4   4  -9   26.45    3.45   2
  -3   4   9   17.11    2.65   2
   3   4  -9   14.29    2.84   2
  -3  -4   9   18.23    3.18   6
   3   4  -9   15.35    2.84   7
  -3  -4   9   15.68    2.77   5
  -3  -4   9   16.50    2.40   2
   3  -4  -9   16.38    2.68   2
   2   4  -9    7.35    2.33   7
   2   4  -9   15.24    2.80   2
  -2   4   9   13.04    2.41   2
  -2  -4   9   13.72    2.66   5
   2  -4  -9   11.90    2.48   2
  -2  -4   9    8.22    1.85   2
   1   4  -9    1.91    1.64   7
   1  -4  -9    1.07    1.43   2
  -1  -4   9    0.28    1.40   5
  -1   4   9   -1.47    1.35   2
   1  -4  -9    1.98    2.00   7
   1   4  -9    0.75    1.61   2
   0  -4  -9    1.33    1.55   2
   0   4   9    2.38    1.65   2
   0  -4   9    0.91    1.62   5
   0   4  -9    2.61    1.88   2
   0   4  -9    1.40    1.60   7
   0  -4  -9    0.99    1.98   7
   1  -4   9   -1.66    1.36   5
   1   4   9    0.14    1.47   2
  -1   4  -9    1.16    1.56   7
  -1  -4  -9    0.24    1.87   7
  -1  -4  -9    1.43    1.67   2
  -2   4  -9   11.69    2.47   7
   2   4   9   11.57    2.21   2
  -2  -4  -9    7.67    2.35   2
   2  -4   9   13.45    2.56   5
  -2  -4  -9   15.45    3.25   6
  -2  -4  -9   13.37    3.07   7
   3   4   9    7.93    1.89   2
  -3   4  -9    4.67    1.85   7
  -3  -4  -9    7.07    2.82   6
  -3  -4  -9    4.00    2.38   7
   3  -4   9    4.70    1.89   5
  -3  -4  -9    3.76    1.99   2
 -13   0  10    0.75    1.37   7
 -13   0  10   -0.99    1.19   2
 -12   0  10    6.72    1.98   7
  12   0 -10    7.67    1.81   2
 -12   0  10    7.68    1.91   2
 -11   0  10    1.63    1.25   2
  11   0 -10    0.94    1.28   2
 -11   0  10    3.26    1.49   7
 -11   0  10    3.21    1.67   6
 -10   0  10    0.32    1.02   7
 -10   0  10    2.32    1.62   6
  10   0 -10    0.77    1.22   2
 -10   0  10    0.17    1.00   2
  -9   0  10  647.36   16.95   2
  -9   0  10  682.62   17.84   6
  -9   0  10  663.32   17.41   7
   9   0 -10  638.88   16.97   2
   8   0 -10  140.81    5.49   7
  -8   0  10  133.77    5.41   2
   8   0 -10  136.58    5.57   2
  -8   0  10  137.80    5.71   7
  -8   0  10  131.89    5.82   6
   7   0 -10  303.18    9.34   2
   7   0 -10  295.15    9.20   7
  -7   0  10  314.25    9.83   6
  -7   0  10  317.53    9.22   2
  -7   0  10  323.24    9.57   7
   6   0 -10   62.13    3.38   7
  -6   0  10   54.66    3.27   7
  -6   0  10   67.08    3.81   6
  -6   0  10   57.89    3.18   2
   6   0 -10   60.73    3.38   2
  -5   0  10   80.98    3.80   7
  -5   0  10   86.59    4.23   6
   5   0 -10   83.76    3.86   7
  -5   0  10   82.59    3.66   2
  -5   0  10   81.34    3.91   3
   5   0 -10   87.30    3.91   2
   4   0 -10   22.63    2.05   2
   4   0 -10   18.37    1.81   7
  -4   0  10   19.94    1.88   3
  -4   0  10   18.59    1.81   7
  -4   0  10   22.34    2.23   6
  -4   0  10   21.06    1.78   2
  -3   0  10  252.60    7.64   3
   3   0 -10  258.50    7.58   2
  -3   0  10  258.91    7.70   3
  -3   0  10  258.29    7.45   7
  -3   0  10  237.29    6.98   2
   3   0 -10  254.66    7.46   7
   3   0 -10  249.84    7.30   1
  -2   0  10   26.06    1.98   3
  -2   0  10   27.22    2.00   3
   2   0 -10   27.58    2.00   7
  -2   0  10   32.26    1.83   2
   2   0 -10   31.68    2.06   1
  -2   0  10   24.75    1.85   7
   2   0 -10   27.93    2.03   2
   1   0 -10    3.05    0.92   1
  -1   0  10    4.33    1.03   3
  -1   0  10    2.75    0.73   2
  -1   0  10    3.98    0.97   3
   1   0 -10    4.82    1.05   7
   1   0 -10    4.18    1.01   2
   1   0 -10    3.72    0.99   1
   0   0  10   25.24    1.09   2
   0   0 -10   19.44    1.60   7
   0   0 -10   26.68    1.79   1
   0   0 -10   23.83    1.74   2
   0   0 -10   22.96    1.69   1
   0   0  10   24.82    1.75   3
   0   0  10   23.39    1.81   3
  -1   0 -10   23.47    1.66   1
   1   0  10   20.07    1.50   3
  -1   0 -10   19.19    1.56   1
  -1   0 -10   17.66    1.46   7
   1   0  10   21.83    1.65   3
  -1   0 -10   19.88    1.54   2
  -2   0 -10  117.42    3.84   7
   2   0  10  106.71    3.52   3
  -2   0 -10  114.63    3.79   1
  -2   0 -10  112.35    3.74   1
  -3   0 -10  119.35    3.89   7
  -3   0 -10  118.50    3.83   1
   3   0  10  121.12    3.29   3
   3   0  10  121.54    5.48   4
  -3   0 -10  124.63    3.93   1
  -4   0 -10    1.70    0.79   1
  -4   0 -10    2.07    0.76   1
   4   0  10    0.49    1.10   4
  -4   0 -10    1.51    0.68   7
  -5   0 -10    0.87    0.68   1
  -5   0 -10    1.96    0.70   1
  -5   0 -10    0.51    0.68   7
   5   0  10    2.89    1.42   4
  -6   0 -10   16.77    1.33   1
  -6   0 -10   18.13    1.30   7
   6   0  10   18.25    2.59   4
  -6   0 -10   19.72    1.45   1
  -7   0 -10    2.50    0.77   1
  -7   0 -10    2.09    0.70   7
   7   0  10    1.48    1.36   4
  -7   0 -10    1.43    0.69   1
  -8   0 -10   33.56    1.67   7
  -8   0 -10   30.73    1.77   1
  -8   0 -10   30.94    1.77   1
  -9   0 -10   76.41    4.99   6
  -9   0 -10   67.93    2.68   1
  -9   0 -10   65.11    2.58   1
 -10   0 -10    2.47    0.98   1
 -10   0 -10    1.39    1.96   6
 -10   0 -10    2.85    0.84   1
 -11   0 -10    0.64    0.76   1
 -11   0 -10    0.31    0.87   1
 -13  -1  10   13.65    2.97   6
 -13  -1  10   12.26    2.48   2
 -13   1  10    5.76    1.91   7
 -13  -1  10   11.72    2.63   7
 -13   1  10   13.42    2.44   2
 -12  -1  10   13.41    2.87   6
 -12   1  10   13.90    2.44   7
 -12  -1  10   10.93    2.39   7
 -12   1  10    9.97    2.13   2
 -12  -1  10   16.48    2.52   2
  12   1 -10   10.42    2.06   2
 -11   1  10   15.28    2.45   7
  11  -1 -10   14.93    2.09   2
 -11  -1  10   19.88    3.06   6
 -11  -1  10   17.01    2.64   7
  11   1 -10   17.67    2.82   8
  11   1 -10   19.69    2.58   2
 -11   1  10   18.86    2.42   2
 -11  -1  10   15.35    2.34   2
 -10  -1  10    5.78    1.70   2
  10   1 -10    8.34    1.95   2
 -10   1  10    8.26    1.77   2
  10  -1 -10    3.20    1.38   2
 -10  -1  10    5.88    2.18   6
  10   1 -10    4.77    1.98   8
 -10   1  10    7.48    1.83   7
 -10  -1  10    6.45    1.86   7
   9   1 -10    8.07    1.92   2
  -9   1  10    9.82    1.89   7
  -9   1  10   10.71    1.83   2
  -9  -1  10    8.36    2.26   6
   9  -1 -10   11.76    1.90   2
  -9  -1  10    8.00    1.69   2
  -9  -1  10    4.44    1.62   7
   8   1 -10   12.72    1.95   7
   8  -1 -10   10.41    1.87   2
   8   1 -10    9.57    1.93   2
  -8   1  10   10.07    1.91   7
  -8  -1  10   10.19    2.28   6
  -8  -1  10    9.81    1.93   5
  -8  -1  10    7.26    1.80   7
  -8   1  10    8.50    1.65   2
  -8  -1  10   11.79    1.84   2
  -7  -1  10   70.36    4.46   6
   7   1 -10   71.17    3.84   7
  -7   1  10   68.95    3.82   7
   7  -1 -10   74.05    3.83   2
   7  -1 -10   71.13    3.85   7
  -7   1  10   75.52    3.77   2
  -7  -1  10   69.10    3.69   2
   7   1 -10   69.98    3.92   2
  -7  -1  10   71.60    3.95   5
  -7  -1  10   69.19    3.96   7
   6   1 -10   36.59    2.69   7
  -6  -1  10   29.99    2.53   5
  -6  -1  10   37.17    3.19   6
  -6  -1  10   34.67    2.53   2
   6  -1 -10   42.46    2.86   7
   6   1 -10   31.41    2.65   2
  -6   1  10   35.03    2.50   2
   6  -1 -10   31.41    2.49   2
  -6   1  10   36.78    2.73   7
  -6  -1  10   39.99    2.87   7
  -5   1  10    6.33    1.42   7
  -5  -1  10    6.31    1.32   2
  -5  -1  10   10.28    1.69   3
   5   1 -10   10.61    1.60   7
  -5   1  10   10.44    1.52   2
  -5  -1  10    6.61    1.69   6
   5  -1 -10    8.46    1.51   2
   5  -1 -10   10.07    1.68   7
  -5  -1  10   11.61    1.69   5
   5   1 -10    7.22    1.51   2
  -5  -1  10    8.37    1.58   7
   4   1 -10   90.68    4.10   2
  -4  -1  10   89.95    3.94   7
  -4   1  10   95.90    4.11   7
  -4  -1  10   85.24    4.00   5
   4  -1 -10   96.32    4.15   7
  -4   1  10   89.45    4.11   3
   4   1 -10   87.36    3.90   7
  -4   1  10   82.97    3.71   2
  -4  -1  10   83.43    3.63   2
   4  -1 -10   89.88    4.07   2
  -4  -1  10   86.80    4.20   3
  -4  -1  10   91.08    4.53   6
   3   1 -10   10.66    1.52   2
   3   1 -10   13.06    1.66   1
  -3  -1  10   10.33    1.45   7
   3  -1 -10   12.32    1.66   7
  -3  -1  10   12.79    2.00   6
   3   1 -10   14.60    1.70   7
  -3  -1  10   14.75    1.45   2
  -3   1  10    8.48    1.41   3
   3  -1 -10   11.39    1.57   2
  -3   1  10   10.14    1.48   7
  -3  -1  10   10.89    1.61   3
  -3   1  10   11.34    1.43   2
  -3  -1  10   12.38    1.58   5
  -2  -1  10  218.97    6.89   3
   2  -1 -10  228.53    6.99   7
  -2  -1  10  227.08    6.93   5
   2   1 -10  217.92    6.73   1
  -2   1  10  224.19    6.96   7
   2  -1 -10  230.34    6.90   1
  -2  -1  10  222.42    7.09   3
  -2  -1  10  223.62    6.29   2
   2  -1 -10  220.03    6.99   2
   2   1 -10  229.13    6.95   2
  -2   1  10  213.95    7.02   3
  -2  -1  10  215.26    7.62   6
   2   1 -10  235.08    6.99   7
  -2   1  10  221.03    6.50   2
   1  -1 -10   73.30    3.41   2
   1  -1 -10   71.78    3.37   1
  -1  -1  10   71.38    3.19   3
  -1   1  10   74.31    3.71   3
   1   1 -10   73.76    3.24   1
  -1  -1  10   76.19    3.31   5
   1   1 -10   67.85    3.12   1
  -1  -1  10   72.00    2.63   2
   1   1 -10   71.97    3.24   7
  -1  -1  10   70.77    3.33   3
  -1   1  10   71.19    3.27   4
  -1   1  10   74.04    3.44   3
  -1  -1  10   73.07    3.82   6
   1  -1 -10   74.45    3.41   7
   1   1 -10   74.75    3.32   2
  -1   1  10   72.53    2.92   2
   0  -1  10   39.91    2.34   3
   0  -1 -10   35.37    2.36   7
   0  -1  10   46.34    2.35   3
   0   1  10   38.41    2.50   4
   0   1  10   42.92    2.49   3
   0  -1 -10   37.62    2.39   2
   0  -1  10   38.89    2.27   5
   0   1  10   41.85    2.71   3
   0  -1 -10   35.20    2.39   1
   0   1 -10   41.63    2.37   2
   0   1  10   42.65    2.00   2
   0   1 -10   38.25    2.31   7
   0   1 -10   43.65    2.37   1
   0   1 -10   39.77    2.27   1
  -1   1 -10   45.43    2.34   1
  -1  -1 -10   46.91    2.64   2
  -1   1 -10   45.39    2.40   7
   1   1  10   47.28    2.53   3
  -1  -1 -10   45.66    2.66   1
   1  -1  10   46.76    2.24   3
   1   1  10   49.11    2.98   4
  -1   1 -10   41.22    2.30   1
  -1  -1 -10   47.93    2.57   7
   1  -1  10   40.61    2.27   5
  -1  -1 -10   45.76    2.60   1
   1   1  10   46.82    1.68   2
   2  -1  10   54.43    2.52   5
  -2  -1 -10   56.92    2.87   2
   2  -1  10   57.23    2.24   3
  -2  -1 -10   52.59    2.87   1
  -2  -1 -10   55.92    2.78   7
   2   1  10   58.51    3.45   4
  -2  -1 -10   55.18    2.85   1
  -2   1 -10   52.58    2.51   7
  -2   1 -10   54.56    2.52   1
   2   1  10   53.60    2.58   3
  -2   1 -10   51.18    2.46   1
   3  -1  10   19.83    1.52   5
   3   1  10   17.31    1.45   3
  -3  -1 -10   23.08    1.92   1
  -3  -1 -10   18.01    1.70   7
   3   1  10   16.07    2.16   4
  -3  -1 -10   19.18    1.80   1
  -3   1 -10   17.80    1.47   7
  -3   1 -10   21.78    1.52   1
  -3   1 -10   20.05    1.55   1
  -4   1 -10   25.03    1.63   1
   4  -1  10   25.61    1.56   5
   4   1  10   27.21    2.80   4
  -4  -1 -10   21.43    1.96   1
   4   1  10   21.06    1.47   3
  -4  -1 -10   22.53    1.86   7
  -4   1 -10   21.50    1.55   7
  -4   1 -10   24.76    1.58   1
  -4  -1 -10   22.77    1.93   1
  -5   1 -10   41.39    1.99   1
  -5   1 -10   40.39    1.92   1
  -5  -1 -10   46.73    2.71   1
  -5   1 -10   45.60    2.05   7
  -5  -1 -10   46.07    2.55   7
  -5  -1 -10   47.27    2.67   1
   5   1  10   46.63    1.69   3
   5   1  10   46.20    3.59   4
  -6   1 -10   20.52    1.30   1
  -6  -1 -10   23.90    2.02   1
  -6   1 -10   22.13    1.38   7
  -6  -1 -10   23.64    1.91   7
  -6  -1 -10   22.43    1.96   1
  -6   1 -10   22.02    1.42   1
   6   1  10   24.55    3.04   4
  -7   1 -10   17.96    1.16   7
  -7   1 -10   13.75    1.10   1
  -7  -1 -10   13.42    1.73   1
  -7   1 -10   16.19    1.08   1
  -7  -1 -10   14.47    1.79   1
  -7  -1 -10   18.52    1.85   7
  -8  -1 -10    4.30    1.51   1
  -8  -1 -10    7.39    2.29   6
  -8  -1 -10    4.61    1.29   1
  -8  -1 -10    3.17    1.23   7
  -9  -1 -10   56.66    3.25   1
  -9  -1 -10   62.57    4.90   6
  -9  -1 -10   58.84    3.31   1
  -9  -1 -10   52.70    3.12   7
 -10  -1 -10   27.24    2.39   1
 -10  -1 -10   26.78    2.44   7
 -10  -1 -10   24.82    2.42   1
 -10  -1 -10   26.93    3.68   6
 -12  -2  10   -1.10    1.56   7
  12   2 -10    0.39    1.71   2
 -12  -2  10    4.04    2.44   6
 -12  -2  10   -0.85    1.27   2
 -12   2  10   -0.22    1.50   2
 -12   2  10    1.88    1.53   7
  12   2 -10   -0.41    2.13   8
 -11   2  10    3.95    1.71   2
  11   2 -10    2.15    1.74   2
  11   2 -10   -0.67    1.97   8
 -11  -2  10    5.33    1.85   2
 -11   2  10    3.03    1.60   7
 -11  -2  10    3.72    2.14   6
 -11  -2  10    2.23    1.74   7
 -10  -2  10    4.53    1.89   7
 -10  -2  10    1.93    1.35   2
  10   2 -10    2.32    1.65   2
  10  -2 -10    3.24    1.51   2
 -10  -2  10    0.81    1.77   6
 -10   2  10   -0.08    1.14   2
 -10   2  10   -0.37    1.15   7
  -9   2  10    3.12    1.56   7
   9  -2 -10    4.87    1.57   2
  -9  -2  10    3.23    2.07   6
  -9  -2  10    6.84    1.98   7
  -9   2  10    0.75    1.29   2
  -9  -2  10    6.01    1.71   2
   9   2 -10    2.94    1.70   2
  -8  -2  10   78.19    4.69   7
  -8  -2  10   84.39    5.34   6
   8  -2 -10   78.85    4.23   2
   8   2 -10   82.96    4.80   2
  -8  -2  10   82.75    4.41   2
  -8   2  10   80.65    4.58   7
  -8   2  10   78.51    4.34   2
  -7  -2  10  112.32    5.15   2
  -7  -2  10  121.62    5.62   7
  -7  -2  10  114.40    6.17   6
   7  -2 -10  112.30    5.10   2
  -7   2  10  120.98    5.31   2
   7   2 -10  115.31    5.37   7
   7   2 -10  114.86    5.51   2
  -7   2  10  113.54    5.38   7
  -7  -2  10  113.34    5.47   5
  -6  -2  10    1.69    1.32   7
   6  -2 -10    2.14    1.22   2
   6   2 -10    5.60    1.67   7
  -6   2  10    1.43    1.22   7
  -6  -2  10    7.72    1.62   2
  -6   2  10    4.59    1.45   2
  -6  -2  10    5.69    1.62   5
  -6  -2  10    2.65    1.80   6
   6  -2 -10    4.28    1.57   7
   6   2 -10    4.39    1.60   2
   5  -2 -10   12.14    2.00   7
   5  -2 -10    7.71    1.70   2
  -5   2  10    7.46    1.59   2
   5   2 -10    6.52    1.71   2
   5   2 -10    8.38    1.79   7
  -5  -2  10   11.22    2.31   6
  -5   2  10    9.34    1.83   7
  -5  -2  10   10.30    1.72   2
  -5  -2  10    8.49    1.71   5
  -4   2  10   13.50    1.89   2
  -4  -2  10   17.73    2.18   5
  -4   2  10   16.13    2.07   7
  -4  -2  10   21.35    2.02   2
  -4  -2  10   16.63    2.48   6
   4   2 -10   17.77    2.16   2
   4   2 -10   16.13    2.11   7
   4  -2 -10   16.15    2.14   7
   4  -2 -10   14.62    2.01   2
  -3  -2  10   91.42    4.38   5
   3   2 -10   88.23    4.31   7
  -3   2  10  101.56    4.31   2
  -3   2  10   90.61    4.47   7
   3  -2 -10   95.33    4.48   2
  -3   2  10  101.82    4.68   7
   3  -2 -10   93.93    4.57   7
   3   2 -10   89.79    4.41   2
  -3  -2  10   81.13    4.69   6
  -3  -2  10   93.02    3.97   2
   2  -2 -10  244.18    7.86   2
  -2  -2  10  227.87    7.58   5
   2  -2 -10  233.13    7.94   7
   2   2 -10  244.52    7.80   2
  -2   2  10  230.12    7.28   2
  -2  -2  10  232.27    8.31   6
   2   2 -10  227.48    7.61   7
  -2  -2  10  238.47    6.87   2
  -1   2  10  140.06    5.76   3
   1   2 -10  134.55    5.39   7
   1   2 -10  155.50    5.66   1
   1  -2 -10  144.00    5.81   7
   1  -2 -10  145.17    5.68   2
  -1  -2  10  147.27    4.47   2
  -1   2  10  146.09    5.15   2
   1   2 -10  150.05    5.66   2
  -1  -2  10  137.50    5.41   5
  -1  -2  10  145.01    6.07   6
   0   2  10   91.90    3.70   2
   0  -2  10   85.69    4.00   5
   0  -2 -10   88.07    4.37   7
   0   2 -10   88.46    4.10   2
   0  -2 -10   91.71    4.35   2
   0   2 -10   90.17    4.12   7
   0   2 -10   93.03    4.13   1
   0   2  10   91.64    4.39   3
   0   2  10   87.19    4.13   4
   0  -2  10   91.72    4.62   6
   0  -2  10   98.73    4.02   3
   1  -2  10  151.12    5.48   5
  -1  -2 -10  147.74    5.91   7
   1   2  10  153.26    5.87   3
  -1   2 -10  154.32    5.51   1
   1   2  10  156.16    6.16   4
   1  -2  10  157.58    5.19   3
  -1  -2 -10  157.18    5.92   2
   1   2  10  157.21    4.95   2
  -1   2 -10  153.52    5.54   7
  -2  -2 -10   75.60    4.10   7
   2   2  10   82.91    4.03   3
   2  -2  10   81.61    3.23   3
  -2  -2 -10   95.71    4.48   1
   2   2  10   81.72    4.44   4
   2   2  10   88.33    3.06   2
  -2   2 -10   83.72    3.82   7
  -2   2 -10   86.26    3.79   1
  -2   2 -10   76.88    3.65   1
  -2  -2 -10   91.28    4.30   2
   2  -2  10   80.17    3.63   5
   3   2  10  157.00    5.89   3
  -3   2 -10  167.84    5.66   7
   3   2  10  172.23    7.11   4
   3  -2  10  167.72    4.60   3
  -3   2 -10  168.34    5.60   1
  -3  -2 -10  175.64    6.31   2
  -3  -2 -10  156.41    6.26   7
  -3  -2 -10  171.46    6.37   1
  -3   2 -10  167.07    5.63   1
   3  -2  10  172.61    5.59   5
  -4   2 -10   22.62    1.95   7
  -4  -2 -10   21.94    2.39   7
  -4  -2 -10   26.76    2.59   1
  -4   2 -10   23.65    2.06   1
   4  -2  10   28.28    2.01   5
  -4   2 -10   23.07    2.01   1
   4   2  10   28.32    2.99   4
   4   2  10   24.71    2.16   3
  -5   2 -10   27.27    2.08   7
  -5   2 -10   26.26    2.12   1
   5  -2  10   31.01    1.98   5
   5   2  10   26.49    2.17   3
   5   2  10   29.79    3.25   4
  -5  -2 -10   34.74    3.56   6
  -5   2 -10   26.36    2.11   1
  -5  -2 -10   27.82    2.65   1
  -5  -2 -10   23.22    2.49   7
   6   2  10    8.91    1.35   3
  -6  -2 -10    5.09    2.23   6
  -6   2 -10    5.81    1.25   1
  -6  -2 -10    6.06    1.73   7
   6  -2  10    9.61    1.17   5
  -6   2 -10    6.55    1.34   1
  -6  -2 -10   10.68    2.01   1
  -6   2 -10    6.39    1.25   7
  -7  -2 -10    1.90    1.43   7
  -7   2 -10    1.92    1.12   1
  -7  -2 -10    1.90    1.77   6
   7   2  10    0.96    0.97   3
   7  -2  10    1.27    0.76   5
  -7  -2 -10    3.41    1.56   1
   7   2  10    1.72    0.91   3
  -7   2 -10    2.10    1.03   7
  -7   2 -10    0.51    0.95   1
  -8   2 -10    1.48    0.94   7
  -8   2 -10   -0.17    0.99   1
  -8  -2 -10    0.32    1.44   1
  -8  -2 -10    1.49    2.00   6
  -8  -2 -10    1.39    1.49   7
  -8   2 -10    2.38    1.08   1
  -9  -2 -10    1.52    2.27   6
  -9  -2 -10    1.35    1.54   7
  -9   2 -10    2.15    1.05   1
  -9   2 -10    0.90    1.02   1
  -9  -2 -10    1.54    1.76   1
 -10   3  10   -0.03    1.57   2
 -10  -3  10    1.05    1.46   2
  10   3 -10   -0.55    1.58   2
 -10   3  10   -1.58    1.35   7
 -10  -3  10    1.13    2.33   6
  -9  -3  10    7.38    2.59   6
  -9  -3  10    3.82    1.75   2
  -9   3  10    6.98    2.03   2
   9   3 -10    9.46    2.35   2
   9  -3 -10    9.47    1.95   2
  -9   3  10    6.63    2.19   7
   8   3 -10   22.99    3.12   2
   8  -3 -10   21.27    2.62   2
  -8   3  10   24.06    3.13   7
  -8  -3  10   22.73    2.89   2
  -8  -3  10   22.77    3.57   6
  -8   3  10   21.25    2.78   2
  -7  -3  10   11.37    2.87   6
   7   3 -10   10.81    2.41   2
   7   3 -10   14.89    2.63   7
  -7   3  10    9.41    2.33   7
  -7   3  10   12.20    2.23   2
  -7  -3  10   13.93    2.41   2
  -7   3  10   12.25    2.50   7
   7  -3 -10   11.38    2.14   2
  -7  -3  10    8.56    2.16   5
  -6  -3  10   13.32    2.94   6
   6  -3 -10   10.98    2.12   2
  -6   3  10   15.64    2.55   7
   6   3 -10   14.53    2.52   7
   6   3 -10   15.37    2.56   2
  -6   3  10   16.58    2.66   7
  -6  -3  10   24.40    2.99   5
  -6  -3  10   17.27    2.42   2
  -6   3  10   14.07    2.28   2
  -5  -3  10   14.92    2.77   6
  -5   3  10   18.35    2.69   7
   5  -3 -10   11.17    2.14   2
   5   3 -10   14.42    2.53   7
  -5  -3  10   14.57    2.22   2
  -5   3  10   16.08    2.38   2
   5   3 -10   12.66    2.41   2
  -5  -3  10   11.60    2.26   5
   4   3 -10   23.12    2.81   7
  -4  -3  10   24.24    2.77   5
  -4   3  10   28.45    2.83   2
  -4   3  10   26.57    3.00   7
   4  -3 -10   29.35    2.91   2
  -4  -3  10   29.78    2.71   2
   4   3 -10   22.42    2.85   2
  -4  -3  10   24.88    3.24   6
   4  -3 -10   29.11    3.20   7
  -3  -3  10   46.36    3.01   2
  -3  -3  10   44.45    3.50   5
   3   3 -10   39.40    3.42   2
   3  -3 -10   47.21    3.81   7
   3   3 -10   43.56    3.43   7
   3  -3 -10   39.80    3.28   2
  -3  -3  10   44.09    3.83   6
  -3   3  10   44.27    3.29   2
   2   3 -10    8.94    1.99   2
   2   3 -10   15.99    2.37   7
  -2  -3  10   20.48    2.76   6
  -2  -3  10   16.21    2.33   5
  -2   3  10   16.70    2.22   2
   2  -3 -10   18.40    2.70   7
   2  -3 -10   19.67    2.50   2
  -2  -3  10   18.52    1.95   2
  -1   3  10   21.31    2.37   2
   1  -3 -10   20.51    2.56   2
   1  -3 -10   19.30    2.77   7
  -1  -3  10   23.61    2.82   6
   1   3 -10   19.99    2.54   7
   1   3 -10   20.42    2.50   2
  -1  -3  10   17.41    2.34   5
   0  -3 -10    3.08    1.57   7
   0  -3  10    3.03    1.57   6
   0  -3 -10    1.78    1.35   2
   0   3 -10    3.37    1.47   7
   0  -3  10    2.46    1.36   5
   0  -3 -10    2.59    1.66   6
   0   3  10    3.87    1.46   2
  -1   3 -10   31.52    2.93   7
   1  -3  10   31.58    2.80   5
  -1  -3 -10   30.25    3.36   6
   1  -3  10   29.89    3.01   6
  -1  -3 -10   33.93    3.14   2
  -1  -3 -10   31.03    3.16   7
   1   3  10   30.92    2.56   2
  -2  -3 -10    7.53    1.90   2
  -2   3 -10    9.45    1.93   7
   2  -3  10    9.18    1.79   5
  -2  -3 -10   10.08    2.28   7
  -2  -3 -10    9.70    2.52   6
   2   3  10   12.27    1.65   2
  -2   3 -10    7.69    2.10   1
  -3   3 -10    5.71    1.65   7
  -3   3 -10    6.78    1.95   1
  -3  -3 -10    7.02    2.40   6
   3   3  10    8.86    2.00   3
   3  -3  10    8.95    1.40   3
  -3  -3 -10    7.89    2.16   7
   3  -3  10    7.85    1.65   5
  -3  -3 -10    7.54    2.00   2
   4  -3  10    9.17    1.77   5
  -4  -3 -10    8.54    2.56   6
  -4  -3 -10   11.25    2.28   2
  -4   3 -10    8.51    1.86   7
   4  -3  10    9.88    1.12   3
   4   3  10   11.22    2.13   3
   4   3  10    9.49    2.34   4
  -4   3 -10    8.43    2.00   1
  -4  -3 -10    7.04    2.07   7
  -5   3 -10   15.96    2.22   7
  -5  -3 -10   12.41    2.65   7
  -5  -3 -10   14.47    3.02   6
   5   3  10   15.31    2.25   3
  -5   3 -10   16.64    2.39   1
   5  -3  10   13.54    1.87   5
  -6   3 -10    2.35    1.68   1
   6  -3  10    0.85    1.22   5
  -6  -3 -10   -0.36    2.02   6
  -6  -3 -10    1.04    1.60   7
  -6   3 -10    2.35    1.42   7
  -7  -3 -10    3.55    2.66   6
  -7   3 -10    1.90    1.63   1
  -7   3 -10   -0.16    1.19   7
  -7  -3 -10    0.84    1.68   7
   7  -3  10    2.11    1.26   5
   5   4 -10    1.36    1.98   2
  -5  -4  10    3.46    2.16   5
   5  -4 -10    1.93    1.76   2
  -5  -4  10    2.09    1.71   2
  -5   4  10   -1.16    1.40   2
  -5  -4  10    1.26    2.42   6
   5   4 -10    1.42    1.86   7
   4   4 -10   12.20    2.66   7
  -4  -4  10   15.78    3.00   5
  -4  -4  10   14.93    2.42   2
   4   4 -10    9.92    2.65   2
  -4  -4  10   16.19    3.33   6
  -4   4  10   10.47    2.40   2
   4  -4 -10    8.16    2.21   2
  -3  -4  10    2.98    1.80   5
   3  -4 -10    1.00    1.54   2
   3   4 -10   -1.04    1.56   2
  -3  -4  10   -1.31    1.25   2
   3   4 -10    1.92    1.79   7
  -3  -4  10    1.14    2.06   6
  -3   4  10    1.30    1.64   2
   2   4 -10    1.44    1.57   7
   2   4 -10    1.68    1.69   2
   2  -4 -10   -0.97    1.36   2
  -2   4  10   -0.26    1.56   2
  -2  -4  10    0.03    1.53   5
  -1  -4  10    0.38    1.43   5
   1  -4 -10    3.09    1.81   2
   1   4 -10    0.43    1.77   2
   1   4 -10    3.54    1.96   7
  -1   4  10   -0.05    1.60   2
   1  -4 -10    0.54    1.99   7
   0  -4  10    0.91    1.58   5
   0   4  10   -0.28    1.46   2
   0  -4 -10    0.63    1.96   7
   0   4 -10    1.35    1.65   7
   0  -4 -10   -0.08    1.54   2
  -1  -4 -10    3.82    1.90   2
  -1  -4 -10    0.60    2.01   7
   1   4  10    5.20    1.80   2
  -1   4 -10    2.71    1.67   7
   1  -4  10    2.22    1.74   5
  -2  -4 -10    3.28    2.59   6
  -2  -4 -10    4.21    2.09   2
  -2  -4 -10    8.59    2.75   7
   2   4  10    6.54    1.90   2
  -2   4 -10    8.70    2.37   7
 -13   0  11    5.24    2.01   7
 -13   0  11   13.13    2.50   2
  12   0 -11    3.40    1.63   2
 -12   0  11    8.04    2.09   2
 -12   0  11    7.57    2.13   7
 -11   0  11    2.39    1.82   6
 -11   0  11    1.45    1.31   2
 -11   0  11    3.83    1.65   7
  11   0 -11    2.12    1.53   2
 -10   0  11    1.96    1.42   7
  10   0 -11    2.81    1.44   2
 -10   0  11    3.72    1.54   2
 -10   0  11    3.50    1.73   6
  -9   0  11   39.58    3.36   6
  -9   0  11   38.18    3.07   7
  -9   0  11   40.05    3.04   2
   9   0 -11   36.89    3.01   2
   8   0 -11    3.14    1.38   7
  -8   0  11    6.97    2.01   6
  -8   0  11    2.69    1.37   7
  -8   0  11    3.55    1.28   2
   8   0 -11    3.75    1.38   2
  -7   0  11  403.51   11.60   7
  -7   0  11  409.51   12.17   6
   7   0 -11  397.43   11.63   2
   7   0 -11  406.67   11.54   7
  -7   0  11  397.21   11.33   2
  -6   0  11   14.70    1.98   7
   6   0 -11   15.22    1.91   7
  -6   0  11   11.41    2.01   6
   6   0 -11   11.00    1.81   2
  -6   0  11   11.81    1.64   2
  -5   0  11   69.21    3.97   6
  -5   0  11   70.69    3.42   2
   5   0 -11   66.33    3.58   7
  -5   0  11   78.90    3.76   7
   5   0 -11   66.49    3.59   2
  -5   0  11   68.26    3.67   3
  -4   0  11    1.63    1.00   7
   4   0 -11   -0.07    0.85   7
  -4   0  11    1.36    0.81   2
  -4   0  11    1.06    0.94   3
   4   0 -11    0.23    0.87   2
  -3   0  11  123.19    4.41   2
   3   0 -11  126.26    4.76   1
   3   0 -11  120.22    4.80   2
   3   0 -11  129.93    4.83   7
  -3   0  11  131.15    4.77   7
  -3   0  11  127.40    4.94   3
  -2   0  11   40.78    2.58   3
  -2   0  11   42.91    2.69   3
  -2   0  11   46.96    2.33   2
   2   0 -11   46.39    2.68   7
   2   0 -11   51.26    2.83   2
   2   0 -11   44.14    2.58   1
   1   0 -11  127.81    4.57   2
  -1   0  11  117.93    4.56   3
  -1   0  11  124.89    3.78   2
  -1   0  11  121.69    4.56   3
   1   0 -11  120.86    4.40   1
   1   0 -11  116.32    4.45   7
   0   0 -11   16.69    1.61   1
   0   0 -11   15.21    1.59   2
   0   0  11   14.91    1.50   3
   0   0  11   17.57    1.69   3
   0   0 -11   16.25    1.55   1
   0   0 -11   14.86    1.57   7
  -1   0 -11  168.77    5.24   1
   1   0  11  161.43    5.15   3
  -1   0 -11  169.57    5.34   7
  -1   0 -11  167.18    5.22   1
   1   0  11  165.48    5.32   3
  -2   0 -11   28.75    1.91   1
  -2   0 -11   30.35    1.96   1
   2   0  11   27.01    1.67   3
  -2   0 -11   23.67    1.77   7
   3   0  11    8.22    0.80   3
  -3   0 -11    9.46    1.21   7
  -3   0 -11    7.54    1.12   1
  -3   0 -11    8.04    1.18   1
  -4   0 -11   41.11    2.19   1
  -4   0 -11   43.39    2.17   7
  -4   0 -11   44.43    2.19   1
  -5   0 -11    0.18    0.74   1
  -5   0 -11   -0.53    0.66   1
   5   0  11   -0.29    0.90   4
  -5   0 -11    0.12    0.69   7
  -6   0 -11    9.09    1.15   1
  -6   0 -11   10.25    1.19   1
   6   0  11    6.32    1.85   4
  -6   0 -11    9.13    1.07   7
  -7   0 -11    1.76    0.73   7
  -7   0 -11    1.74    0.85   1
  -7   0 -11    1.00    0.77   1
  -8   0 -11   58.54    2.38   7
  -8   0 -11   53.96    2.45   1
  -8   0 -11   56.05    2.42   1
  -9   0 -11    5.56    1.00   1
  -9   0 -11    6.16    1.14   1
 -10   0 -11    2.14    2.05   6
 -10   0 -11    0.55    0.76   1
 -10   0 -11    0.48    0.89   1
 -13   1  11    5.29    1.90   2
 -13   1  11    6.24    2.09   7
 -13  -1  11    6.64    2.33   7
 -13  -1  11    9.65    3.03   6
 -13  -1  11    4.93    2.04   2
  13   1 -11    3.20    1.78   2
 -12   1  11    3.26    1.66   2
  12  -1 -11    2.39    1.49   2
 -12  -1  11    1.40    1.59   7
 -12  -1  11    0.51    1.40   2
  12   1 -11    0.08    1.53   2
 -12   1  11    1.45    1.43   7
 -12  -1  11    3.50    2.08   6
 -11  -1  11   12.86    2.25   2
 -11  -1  11   11.49    2.73   6
 -11   1  11    8.11    1.96   2
  11  -1 -11   15.78    2.27   2
 -11  -1  11   10.66    2.42   7
 -11   1  11   14.73    2.40   7
  11   1 -11    8.89    2.18   2
 -10  -1  11    4.53    1.81   7
 -10  -1  11    8.40    1.84   2
 -10  -1  11    4.75    2.15   6
  10   1 -11    7.13    1.95   2
 -10   1  11    7.65    1.89   7
  10   1 -11    6.14    2.13   8
  10  -1 -11    4.71    1.66   2
 -10   1  11    5.24    1.64   2
   9   1 -11    3.45    1.51   2
  -9   1  11    7.02    1.70   2
  -9  -1  11    6.80    1.69   2
   9  -1 -11    2.70    1.45   2
  -9   1  11    4.64    1.60   7
  -9  -1  11    5.41    1.70   7
  -9  -1  11    6.51    2.16   6
  -8  -1  11  224.08    7.77   2
  -8   1  11  222.90    7.75   2
  -8  -1  11  219.68    8.08   5
   8   1 -11  225.22    7.90   7
  -8  -1  11  239.44    8.86   6
  -8  -1  11  220.48    8.12   7
   8   1 -11  227.01    8.07   2
   8  -1 -11  228.20    7.87   2
  -8   1  11  226.10    7.95   7
  -7   1  11    1.23    1.15   7
  -7  -1  11    1.46    1.63   6
   7  -1 -11    2.33    1.34   7
  -7  -1  11    1.58    1.32   7
  -7  -1  11    1.21    1.05   2
  -7  -1  11    3.23    1.35   5
   7   1 -11    0.40    1.20   2
  -7   1  11    1.66    1.16   2
   7  -1 -11    4.39    1.40   2
   7   1 -11    1.87    1.15   7
  -6  -1  11   89.20    4.80   6
   6  -1 -11   90.49    4.36   7
   6  -1 -11   95.92    4.49   2
  -6  -1  11   87.96    4.38   7
   6   1 -11   92.42    4.37   7
  -6  -1  11   97.58    4.30   2
  -6  -1  11   92.93    4.56   5
  -6   1  11   88.02    4.39   7
   6   1 -11   82.50    4.35   2
  -6   1  11   81.36    4.11   2
   5  -1 -11   69.65    3.83   7
  -5  -1  11   73.17    4.26   6
  -5  -1  11   80.70    3.92   7
   5  -1 -11   64.43    3.71   2
   5   1 -11   79.56    3.94   7
  -5   1  11   82.31    4.02   7
  -5   1  11   77.67    3.71   2
  -5  -1  11   78.59    4.07   5
  -5  -1  11   83.44    3.82   2
   5   1 -11   75.10    3.95   2
   4  -1 -11   28.08    2.41   2
  -4   1  11   32.42    2.51   7
  -4  -1  11   34.66    2.27   2
   4   1 -11   27.27    2.45   2
  -4  -1  11   36.31    2.97   6
  -4   1  11   30.73    2.30   2
  -4  -1  11   29.87    2.49   5
   4  -1 -11   32.13    2.56   7
  -4   1  11   33.45    2.63   3
  -4  -1  11   32.22    2.58   3
   4   1 -11   39.45    2.67   7
   3   1 -11   88.98    3.98   7
   3  -1 -11   86.26    4.03   2
  -3  -1  11   83.93    4.08   3
  -3   1  11   84.59    4.09   3
  -3  -1  11   80.65    3.44   2
  -3   1  11   83.49    3.60   2
   3  -1 -11   90.46    4.10   7
  -3  -1  11   83.72    3.94   5
  -3   1  11   88.40    4.00   7
   3   1 -11   87.00    4.04   2
  -3  -1  11   82.69    4.39   6
   2   1 -11   85.78    3.84   1
  -2  -1  11   82.36    4.38   6
  -2   1  11   89.74    3.59   2
   2   1 -11   81.09    3.80   7
   2  -1 -11   88.46    4.01   7
  -2  -1  11   91.26    4.11   3
  -2   1  11   92.35    4.13   3
  -2  -1  11   86.98    3.33   2
   2   1 -11   92.49    4.05   2
  -2  -1  11   93.59    4.04   5
   2  -1 -11   82.55    3.92   2
   1  -1 -11  125.42    4.73   1
   1  -1 -11  116.67    4.67   7
   1  -1 -11  125.20    4.80   2
   1   1 -11  126.98    4.67   2
  -1  -1  11  116.81    3.60   2
  -1  -1  11  118.98    4.51   3
   1   1 -11  121.18    4.55   1
   1   1 -11  118.45    4.55   7
  -1  -1  11  113.78    4.54   5
  -1  -1  11  120.41    4.67   3
  -1   1  11  126.86    4.18   2
  -1   1  11  117.26    4.71   3
   0   1 -11   25.83    1.99   7
   0   1  11   31.44    2.20   3
   0   1 -11   27.39    2.09   1
   0  -1  11   28.48    2.01   3
   0  -1 -11   30.94    2.40   1
   0   1  11   33.81    2.49   4
   0  -1  11   32.25    2.18   3
   0   1 -11   31.39    2.22   2
   0  -1 -11   29.13    2.21   2
   0   1  11   25.77    2.36   3
   0  -1 -11   33.00    2.32   7
   0   1 -11   32.87    2.20   1
   0   1  11   32.81    1.72   2
   0  -1  11   31.63    2.15   5
   1   1  11   37.61    2.35   3
  -1  -1 -11   37.67    2.53   2
  -1   1 -11   36.63    2.29   7
   1  -1  11   39.34    2.16   3
   1   1  11   42.69    2.98   4
  -1   1 -11   40.01    2.33   1
  -1   1 -11   39.82    2.31   1
   1  -1  11   37.76    2.27   5
  -1  -1 -11   39.00    2.54   1
  -1  -1 -11   39.73    2.58   7
   2   1  11  100.29    3.83   3
  -2   1 -11   94.55    3.59   1
  -2   1 -11   94.65    3.62   1
  -2  -1 -11   96.74    3.99   1
  -2   1 -11   94.07    3.69   7
   2   1  11   94.25    4.75   4
   2  -1  11   97.98    3.27   3
   2  -1  11   94.02    3.67   5
  -2  -1 -11   89.12    3.89   7
  -3  -1 -11  132.01    4.97   1
  -3   1 -11  136.68    4.37   1
  -3  -1 -11  131.11    4.87   7
   3  -1  11  138.29    4.44   5
  -3   1 -11  130.44    4.44   7
   3   1  11  133.17    6.08   4
   3   1  11  136.84    4.50   3
  -3   1 -11  135.13    4.40   1
  -3  -1 -11  135.60    4.89   1
  -4   1 -11  157.81    4.76   1
  -4  -1 -11  159.18    5.46   1
   4   1  11  157.46    4.67   3
   4   1  11  154.98    6.96   4
  -4   1 -11  160.81    4.79   1
  -4   1 -11  162.27    4.93   7
  -4  -1 -11  159.43    5.41   7
  -4  -1 -11  163.73    5.48   1
  -5   1 -11   10.84    1.16   1
  -5  -1 -11    9.63    1.40   7
  -5  -1 -11    8.21    1.49   1
   5   1  11   11.60    2.31   4
  -5  -1 -11    8.14    1.48   1
   5   1  11    7.78    0.71   3
  -5   1 -11    9.70    1.12   1
  -5   1 -11   11.65    1.21   7
  -6  -1 -11   25.63    2.12   7
  -6  -1 -11   25.04    2.19   1
  -6   1 -11   22.25    1.51   1
  -6   1 -11   27.08    1.59   1
   6   1  11   31.40    3.38   4
  -6   1 -11   32.64    1.74   7
  -6  -1 -11   28.16    2.27   1
  -7   1 -11   14.73    1.22   1
  -7   1 -11   15.82    1.24   7
  -7  -1 -11   19.23    1.98   1
  -7  -1 -11   18.06    2.05   1
  -7  -1 -11   15.49    1.85   7
  -7   1 -11   16.14    1.23   1
  -8  -1 -11    1.53    1.21   7
  -8  -1 -11    1.93    1.26   1
  -8  -1 -11    1.91    1.35   1
  -8  -1 -11    2.38    1.86   6
  -9  -1 -11    6.74    1.53   7
  -9  -1 -11    9.23    1.70   1
  -9  -1 -11   14.65    3.17   6
  -9  -1 -11    5.69    1.59   1
 -10  -1 -11    5.86    2.77   6
 -10  -1 -11    3.55    1.47   1
 -10  -1 -11    3.62    1.61   1
 -10  -1 -11    3.50    1.47   7
 -11  -2  11    5.17    1.83   2
  11  -2 -11    7.71    1.87   2
 -11   2  11    6.94    1.95   7
 -11  -2  11    8.94    2.68   6
  11   2 -11    9.52    2.36   2
 -11  -2  11    3.30    1.79   7
 -11   2  11    7.08    2.00   2
  11   2 -11    6.91    2.70   8
 -10  -2  11    2.15    2.04   6
  10   2 -11    4.67    1.88   2
 -10  -2  11    2.38    1.71   7
 -10  -2  11    0.69    1.35   2
 -10   2  11   -0.27    1.37   2
  10  -2 -11    2.42    1.59   2
 -10   2  11    2.12    1.49   7
  -9  -2  11   27.34    2.90   2
  -9   2  11   18.21    2.51   2
   9  -2 -11   26.44    2.71   2
  -9   2  11   22.87    2.86   7
  -9  -2  11   22.21    3.39   6
  -9  -2  11   25.51    3.15   7
   9   2 -11   26.08    3.06   2
   8   2 -11   85.67    4.81   2
  -8  -2  11   68.63    4.42   7
   8   2 -11   71.28    4.35   7
  -8  -2  11   77.97    4.34   2
  -8   2  11   69.72    4.39   7
   8  -2 -11   70.40    4.17   2
  -8  -2  11   71.12    4.96   6
  -8   2  11   77.63    4.33   2
   7   2 -11   22.17    2.77   2
   7   2 -11   24.92    2.76   7
  -7  -2  11   30.07    3.07   5
   7  -2 -11   34.64    2.90   2
  -7  -2  11   26.85    2.70   2
  -7   2  11   34.55    3.09   7
  -7   2  11   25.95    2.61   2
  -7  -2  11   25.78    3.28   6
   6   2 -11    7.34    1.91   2
   6  -2 -11    8.21    1.81   2
  -6   2  11    5.76    1.66   7
  -6   2  11    6.08    1.61   2
  -6  -2  11    7.35    1.77   5
   6  -2 -11    9.18    1.98   7
  -6  -2  11    7.00    2.16   6
   6   2 -11   10.62    2.00   7
  -6  -2  11   10.86    1.83   2
  -5  -2  11    1.40    1.56   6
   5   2 -11    0.25    1.17   7
   5   2 -11    3.82    1.54   2
   5  -2 -11    0.97    1.06   2
  -5   2  11    2.86    1.38   7
  -5  -2  11    1.53    1.07   2
  -5  -2  11    1.94    1.23   5
  -5   2  11    2.90    1.26   2
   5  -2 -11    1.77    1.34   7
   4  -2 -11    7.42    1.81   7
  -4  -2  11    4.70    1.44   5
   4   2 -11    5.90    1.63   2
  -4  -2  11    3.98    1.29   2
   4  -2 -11    3.94    1.45   2
  -4   2  11    3.97    1.40   2
  -4  -2  11    4.20    1.72   6
   4   2 -11    4.40    1.44   7
  -4   2  11    2.34    1.31   7
  -3  -2  11   33.63    3.17   6
  -3  -2  11   31.33    2.38   2
  -3   2  11   31.18    2.52   2
   3   2 -11   30.86    2.73   2
   3   2 -11   30.47    2.57   7
   3  -2 -11   26.64    2.71   7
  -3  -2  11   26.09    2.50   5
   3  -2 -11   26.38    2.61   2
   2  -2 -11  139.02    5.81   2
  -2   2  11  152.47    5.46   2
   2   2 -11  151.25    5.83   7
  -2  -2  11  135.98    6.30   6
  -2  -2  11  147.69    4.89   2
   2   2 -11  147.05    5.94   2
   2  -2 -11  148.90    6.08   7
  -2  -2  11  139.99    5.70   5
   1  -2 -11   15.55    2.18   7
  -1   2  11   14.08    2.00   3
   1   2 -11   19.82    2.14   2
   1   2 -11   15.42    2.01   7
  -1   2  11   15.64    1.79   2
   1   2 -11   15.63    2.05   1
  -1  -2  11   13.32    2.25   6
   1  -2 -11   16.63    2.16   2
  -1  -2  11   15.15    1.93   5
   0   2 -11   65.71    3.59   7
   0  -2  11   70.34    4.21   6
   0   2 -11   75.63    3.81   1
   0  -2 -11   77.08    4.13   2
   0  -2  11   71.04    3.66   5
   0  -2 -11   73.43    4.05   7
   0   2  11   80.57    4.12   3
   0   2  11   72.91    3.25   2
   1  -2  11    1.18    0.95   3
   1  -2  11    0.24    0.82   5
   1   2  11    2.10    0.91   2
  -1   2 -11    2.89    1.31   1
   1   2  11    2.27    1.21   3
   1   2  11    0.55    1.10   4
  -1  -2 -11   -0.26    1.03   2
  -1  -2 -11    0.69    1.10   7
  -1   2 -11   -0.38    0.88   7
  -2   2 -11  113.36    4.67   1
  -2   2 -11  109.45    4.59   7
   2   2  11  113.62    4.91   3
   2  -2  11  120.68    4.02   3
  -2  -2 -11  109.26    5.11   7
  -2  -2 -11  126.81    5.29   2
   2  -2  11  113.01    4.57   5
   2   2  11  108.32    5.44   4
  -3  -2 -11   29.68    2.74   7
   3  -2  11   27.66    2.14   5
  -3   2 -11   33.58    2.39   1
   3   2  11   28.12    2.91   4
   3   2  11   33.66    2.56   3
  -3   2 -11   28.08    2.32   7
  -3   2 -11   26.93    2.26   1
  -3  -2 -11   30.12    2.76   1
   3  -2  11   30.71    1.53   3
  -4  -2 -11   11.62    2.12   1
   4  -2  11   16.30    1.65   5
  -4   2 -11   12.89    1.68   1
   4   2  11   15.02    1.78   3
  -4   2 -11   11.78    1.64   7
  -4   2 -11   13.37    1.72   1
  -4  -2 -11   17.65    2.25   7
   4   2  11   13.03    2.36   4
  -5   2 -11   46.78    2.72   1
   5   2  11   43.88    2.69   3
  -5   2 -11   41.70    2.61   7
  -5  -2 -11   38.82    3.13   1
  -5  -2 -11   45.09    3.27   7
  -5   2 -11   51.62    2.90   1
   5   2  11   48.19    4.01   4
   5  -2  11   46.87    2.50   5
  -6  -2 -11    0.98    1.90   6
  -6   2 -11    0.41    0.96   7
  -6  -2 -11    0.32    1.38   1
  -6   2 -11   -0.25    0.92   1
  -6   2 -11   -0.63    0.99   1
   6  -2  11    1.08    0.80   5
  -6  -2 -11    0.94    1.28   7
   6   2  11   -0.02    0.84   3
  -7  -2 -11    4.88    1.63   7
  -7   2 -11    4.94    1.20   1
  -7   2 -11    3.83    1.25   1
  -7  -2 -11   -0.90    1.86   6
  -7  -2 -11    6.87    1.92   1
   7   2  11    4.23    1.06   3
  -7   2 -11    5.24    1.25   7
   7  -2  11    3.93    0.92   5
  -8  -2 -11    0.36    1.62   1
  -8  -2 -11   -1.00    1.76   6
  -8  -2 -11    0.09    1.34   7
  -8   2 -11   -0.18    1.10   1
  -8   2 -11   -0.38    0.91   7
  -8   2 -11    0.64    1.01   1
  -9   2 -11   10.70    1.47   1
  -9  -2 -11   12.33    2.39   1
  -9  -3  11    6.11    2.64   6
  -9   3  11    2.04    1.65   7
  -9   3  11    2.63    1.70   2
   9  -3 -11    1.21    1.49   2
   9   3 -11   -0.38    1.71   2
  -9  -3  11   -0.20    1.35   2
  -8   3  11    2.13    1.61   2
  -8   3  11    4.08    1.92   7
  -8  -3  11    4.80    1.84   2
   8   3 -11   -0.04    1.68   2
   8  -3 -11    0.90    1.41   2
  -8  -3  11    2.49    2.17   6
   7  -3 -11   28.26    3.00   2
  -7  -3  11   34.06    3.96   6
  -7  -3  11   28.30    3.07   2
   7   3 -11   28.56    3.31   7
  -7   3  11   25.00    2.89   2
  -7  -3  11   28.96    3.35   5
   7   3 -11   23.79    3.14   2
  -7   3  11   28.48    3.40   7
  -7   3  11   29.27    3.38   7
   6   3 -11   51.71    4.01   7
  -6   3  11   43.94    3.93   7
  -6   3  11   44.28    3.85   7
   6   3 -11   44.71    3.85   2
  -6   3  11   43.10    3.52   2
   6  -3 -11   42.41    3.60   2
  -6  -3  11   50.73    4.60   6
  -6  -3  11   44.36    3.53   2
  -6  -3  11   42.68    3.81   5
  -5  -3  11    7.74    1.90   2
  -5   3  11   10.71    2.13   2
   5  -3 -11    9.82    2.15   2
   5   3 -11    9.97    2.33   2
   5   3 -11    7.42    2.17   7
  -5  -3  11   10.48    2.73   6
  -5  -3  11    9.04    2.17   5
   4  -3 -11    3.56    1.68   2
  -4  -3  11    5.95    1.93   5
   4   3 -11    4.73    1.77   7
  -4  -3  11    6.74    1.74   2
  -4   3  11    5.21    1.74   2
   4   3 -11    8.32    2.09   2
  -4  -3  11    7.09    2.34   6
   4  -3 -11    5.71    2.03   7
  -3  -3  11   44.95    2.98   2
  -3  -3  11   46.31    3.54   5
   3  -3 -11   43.70    3.49   2
   3   3 -11   41.97    3.59   2
  -3   3  11   52.00    3.52   2
   3  -3 -11   46.45    3.84   7
   3   3 -11   44.84    3.56   7
  -3  -3  11   44.99    3.93   6
  -2  -3  11    7.43    1.43   2
   2   3 -11    7.91    2.02   2
  -2  -3  11    9.51    2.04   5
   2  -3 -11    7.03    1.84   2
  -2   3  11   10.02    1.95   2
   2  -3 -11    5.51    2.00   7
  -2  -3  11    8.45    2.29   6
   2   3 -11    8.76    2.03   7
   1   3 -11   16.36    2.46   7
   1   3 -11   16.58    2.35   2
  -1   3  11   13.88    2.07   2
   1  -3 -11   11.79    2.17   2
   1  -3 -11   11.56    2.41   7
  -1  -3  11   14.87    2.21   5
  -1  -3  11   16.58    2.59   6
   0   3  11    1.43    1.26   2
   0  -3  11    2.49    1.64   6
   0  -3  11    0.32    1.11   5
   0  -3 -11    0.32    1.34   2
   0   3 -11   -0.02    1.20   7
   0  -3 -11    2.04    1.59   7
   1   3  11    1.20    1.17   2
  -1  -3 -11   -0.85    1.22   2
   1  -3  11   -0.41    1.11   5
  -1  -3 -11    4.20    2.01   6
  -1  -3 -11    4.12    1.78   7
  -1   3 -11    0.98    1.28   7
  -2  -3 -11   10.19    2.36   7
  -2   3 -11   10.53    2.07   7
   2   3  11   11.73    1.61   2
  -2   3 -11   11.15    2.31   1
   2  -3  11   10.27    1.88   5
  -2  -3 -11    8.31    2.47   6
  -2  -3 -11   12.69    2.37   2
   3   3  11    7.56    1.95   3
   3  -3  11    8.68    1.39   3
  -3   3 -11    8.03    2.09   1
  -3  -3 -11    9.59    2.63   6
   3  -3  11   10.02    1.85   5
  -3  -3 -11    8.01    2.17   7
  -3  -3 -11   13.15    2.42   2
  -3   3 -11    9.60    1.93   7
  -4   3 -11    4.54    1.85   1
  -4  -3 -11    8.12    2.55   6
   4   3  11    7.58    1.95   3
   4  -3  11    7.86    1.69   5
  -4   3 -11    8.19    1.87   7
  -4  -3 -11    6.11    2.11   7
   5  -3  11    3.87    1.49   5
  -5  -3 -11    7.90    2.17   7
  -5   3 -11    4.64    1.83   1
  -5  -3 -11    3.39    2.38   6
  -5   3 -11    5.12    1.61   7
  -6   3 -11    1.35    1.68   1
  -6  -3 -11    1.32    1.77   7
  -6   3 -11    6.25    1.71   7
  -6  -3 -11    3.34    2.47   6
   6  -3  11    0.80    1.16   5
  -3  -4  11    4.49    2.37   6
   3   4 -11   -1.04    1.93   2
   3   4 -11    0.15    1.64   7
   3  -4 -11    1.34    1.71   2
  -3  -4  11    1.86    1.89   5
  -2   4  11    2.15    1.68   2
   2   4 -11    0.58    1.57   7
   2  -4 -11   -1.85    1.35   2
  -2  -4  11   -1.62    1.56   5
   2   4 -11    3.23    2.04   2
   1   4 -11    4.92    2.02   7
   1  -4 -11    2.10    2.08   7
   1  -4 -11    6.38    2.17   2
  -1   4  11    6.37    2.12   2
   1   4 -11    4.46    2.08   2
   0  -4 -11    1.68    2.11   7
   0   4 -11    1.18    1.63   7
   0  -4 -11    1.06    1.64   2
   0   4  11   -0.24    1.53   2
 -13   0  12    1.19    1.70   7
 -13   0  12    0.20    1.50   2
  13   0 -12   -0.07    1.57   2
 -12   0  12    6.36    2.05   7
 -12   0  12    9.96    2.21   2
  12   0 -12    6.70    2.03   2
 -11   0  12    1.08    1.33   2
 -11   0  12    0.91    1.38   7
 -11   0  12    2.77    1.88   6
  11   0 -12    0.65    1.41   2
 -10   0  12    2.89    1.54   7
 -10   0  12    3.19    1.42   2
  10   0 -12    4.20    1.61   2
 -10   0  12    2.66    1.75   6
   9   0 -12   -0.32    1.10   2
  -9   0  12    1.20    1.64   6
  -9   0  12   -0.37    1.18   7
  -9   0  12    0.88    1.07   2
  -8   0  12   13.42    2.19   7
  -8   0  12   12.71    2.29   6
  -8   0  12   13.25    1.95   2
   8   0 -12   13.21    2.07   7
   8   0 -12   11.35    2.06   2
   7   0 -12   24.49    2.55   7
  -7   0  12   27.10    2.70   7
   7   0 -12   28.33    2.76   2
  -7   0  12   28.45    2.46   2
  -7   0  12   29.49    2.99   6
  -6   0  12   -0.20    1.36   6
   6   0 -12    0.32    1.05   7
   6   0 -12    0.95    1.12   2
  -6   0  12    1.96    1.15   7
  -6   0  12    1.21    0.96   2
  -5   0  12   51.24    2.95   2
   5   0 -12   50.93    3.17   7
   5   0 -12   47.58    3.16   2
  -5   0  12   47.88    3.11   7
  -5   0  12   51.32    3.55   6
  -4   0  12    6.51    1.28   2
  -4   0  12    5.63    1.42   3
   4   0 -12    6.91    1.54   2
   4   0 -12    8.29    1.57   7
  -3   0  12   17.51    1.96   3
   3   0 -12   17.50    1.99   7
   3   0 -12   18.24    2.04   2
  -3   0  12   19.99    1.75   2
   2   0 -12   13.37    1.74   2
  -2   0  12    9.98    1.54   3
  -2   0  12   10.48    1.31   2
   2   0 -12   10.25    1.58   1
   2   0 -12   10.89    1.59   7
   1   0 -12  310.12    8.84   7
   1   0 -12  301.45    8.58   1
  -1   0  12  303.98    7.64   2
  -1   0  12  320.15    9.09   3
  -1   0  12  315.30    8.96   3
   1   0 -12  305.79    8.87   2
   0   0  12   15.66    1.71   3
   0   0  12   18.37    1.68   3
   0   0 -12   17.99    1.79   2
   0   0 -12   14.15    1.59   1
   0   0 -12   17.02    1.75   7
  -1   0 -12    1.22    0.88   1
  -1   0 -12    0.52    0.82   7
   1   0  12   -0.75    0.86   3
  -1   0 -12    0.31    0.84   1
   1   0  12    0.74    0.78   3
  -2   0 -12   24.19    1.87   1
  -2   0 -12   20.67    1.80   7
  -2   0 -12   21.82    1.81   1
   2   0  12   24.03    1.67   3
  -3   0 -12   66.04    2.96   1
  -3   0 -12   61.42    2.89   1
   3   0  12   62.46    2.24   3
  -3   0 -12   67.87    3.00   7
  -4   0 -12  105.49    3.88   7
  -4   0 -12  103.64    3.80   1
  -4   0 -12  107.04    3.81   1
  -5   0 -12   27.47    1.95   1
  -5   0 -12   29.07    1.89   7
  -5   0 -12   27.17    1.92   1
  -6   0 -12   63.00    2.70   1
  -6   0 -12   59.82    2.73   1
  -6   0 -12   56.21    2.57   7
  -7   0 -12   54.67    2.37   7
  -7   0 -12   48.59    2.44   1
  -7   0 -12   49.79    2.43   1
  -8   0 -12    5.19    1.10   1
  -8   0 -12    5.98    1.05   1
  -8   0 -12    4.25    0.99   7
  -9   0 -12    5.40    1.05   1
  -9   0 -12    2.53    1.06   1
  12   1 -12    5.77    2.11   2
 -12   1  12    2.55    1.73   2
 -12  -1  12    5.79    2.18   7
  12  -1 -12    4.08    1.69   2
 -12  -1  12    5.96    2.36   6
 -12   1  12    3.93    1.90   7
 -12  -1  12    7.67    2.11   2
 -11  -1  12    0.08    1.19   2
  11  -1 -12    1.85    1.59   2
 -11  -1  12    3.23    2.04   6
  11   1 -12   -1.17    1.30   2
 -11   1  12    0.06    1.29   2
 -11  -1  12   -1.22    1.34   7
 -11   1  12   -0.29    1.26   7
  10  -1 -12   12.03    2.18   2
 -10  -1  12   11.16    2.67   6
 -10   1  12   16.18    2.37   2
 -10  -1  12   14.49    2.52   7
  10   1 -12   10.43    2.24   2
 -10  -1  12    9.94    2.05   2
 -10   1  12   11.83    2.29   7
  -9  -1  12    1.29    1.51   6
  -9   1  12    0.30    1.30   2
  -9  -1  12    0.48    1.34   7
   9  -1 -12    0.13    1.26   2
  -9  -1  12    1.18    1.11   2
  -9   1  12   -0.90    1.12   7
   9   1 -12   -0.17    1.25   2
  -8  -1  12  147.42    6.39   5
  -8  -1  12  156.60    7.05   6
  -8  -1  12  151.74    6.18   2
  -8   1  12  138.99    5.94   2
  -8   1  12  145.09    6.25   7
   8   1 -12  150.41    6.29   7
  -8  -1  12  152.56    6.43   7
   8   1 -12  144.78    6.30   2
   8  -1 -12  150.24    6.27   2
  -7   1  12  172.04    6.59   7
  -7  -1  12  149.52    6.03   2
  -7   1  12  160.32    6.17   2
  -7  -1  12  177.48    6.64   7
   7   1 -12  155.96    6.49   2
   7  -1 -12  152.11    6.28   2
   7   1 -12  154.26    6.31   7
  -7  -1  12  151.84    6.97   6
  -7  -1  12  146.05    6.35   5
  -6   1  12   88.83    4.26   2
  -6  -1  12   89.32    4.25   2
  -6  -1  12   87.35    4.64   5
  -6  -1  12   90.91    5.10   6
   6  -1 -12   85.17    4.44   2
   6  -1 -12   88.37    4.60   7
   6   1 -12   92.23    4.53   7
   6   1 -12   88.52    4.57   2
  -6   1  12   94.42    4.62   7
  -5  -1  12   36.98    2.89   5
   5  -1 -12   34.90    2.81   2
  -5   1  12   34.64    2.57   2
  -5  -1  12   37.77    2.65   2
  -5  -1  12   32.52    3.24   6
   5  -1 -12   39.70    3.03   7
   5   1 -12   37.02    2.77   7
   5   1 -12   36.91    2.91   2
  -5   1  12   37.00    2.83   7
   4   1 -12    3.87    1.39   2
  -4  -1  12    4.67    1.44   3
  -4   1  12    4.78    1.24   2
  -4  -1  12    5.75    1.78   6
   4  -1 -12    5.34    1.48   2
   4   1 -12    6.44    1.53   7
   4  -1 -12    7.73    1.60   7
  -4  -1  12    5.93    1.29   2
  -4  -1  12    5.72    1.48   5
  -3   1  12   14.73    1.96   3
  -3   1  12   10.64    1.55   2
   3  -1 -12   12.49    1.84   2
   3   1 -12   10.65    1.65   7
  -3  -1  12   13.50    1.81   5
  -3  -1  12   12.99    1.84   3
  -3  -1  12   11.31    2.13   6
   3  -1 -12   12.95    1.88   7
   3   1 -12   11.48    1.80   2
  -3  -1  12   12.13    1.48   2
  -2  -1  12  286.99    8.71   3
   2   1 -12  273.53    8.24   1
  -2  -1  12  280.14    7.43   2
   2  -1 -12  281.91    8.64   2
  -2  -1  12  271.78    8.44   5
   2   1 -12  258.61    8.24   7
   2   1 -12  285.40    8.50   2
  -2   1  12  280.55    7.84   2
  -2   1  12  264.20    8.57   3
   2  -1 -12  273.48    8.50   7
   1   1 -12   53.71    3.03   7
   1  -1 -12   54.43    3.16   1
  -1  -1  12   51.23    3.02   5
   1   1 -12   58.78    3.18   2
  -1   1  12   58.40    2.65   2
  -1  -1  12   57.37    3.00   3
   1  -1 -12   54.77    3.17   7
  -1   1  12   48.90    3.07   3
  -1  -1  12   55.45    3.13   3
   1  -1 -12   54.23    3.17   2
   1   1 -12   51.60    2.98   1
   0   1  12  152.22    4.33   2
   0  -1  12  147.82    5.12   3
   0   1 -12  144.87    5.14   1
   0  -1 -12  149.48    5.45   7
   0  -1 -12  150.03    5.48   1
   0  -1 -12  152.22    5.55   2
   0  -1  12  145.42    5.28   3
   0   1 -12  142.55    5.23   7
   0   1  12  151.73    5.48   3
   0  -1  12  145.89    5.30   5
  -1  -1 -12   67.53    3.42   7
   1  -1  12   64.64    3.19   5
   1   1  12   71.58    4.04   4
   1  -1  12   66.78    3.01   3
  -1   1 -12   67.42    3.27   7
  -1   1 -12   66.96    3.19   1
  -1  -1 -12   68.74    3.53   1
   1   1  12   62.55    3.23   3
  -1  -1 -12   68.46    3.51   2
  -1   1 -12   64.10    3.16   1
  -2   1 -12  104.89    4.03   1
   2  -1  12  108.42    4.13   5
  -2  -1 -12   96.36    4.27   7
  -2   1 -12  107.83    4.10   1
   2   1  12  107.92    4.14   3
  -2   1 -12  105.42    4.09   7
  -2  -1 -12  112.39    4.53   1
   2  -1  12  114.07    3.64   3
   2   1  12   99.38    5.16   4
  -3   1 -12   60.15    2.91   7
  -3   1 -12   64.97    2.95   1
   3  -1  12   63.33    2.87   5
  -3   1 -12   64.37    2.93   1
  -3  -1 -12   60.00    3.22   7
  -3  -1 -12   61.88    3.31   1
   3   1  12   59.37    2.79   3
   3   1  12   62.23    4.13   4
   4   1  12   55.24    2.36   3
  -4   1 -12   53.54    2.61   1
  -4   1 -12   57.00    2.65   1
   4   1  12   56.24    4.09   4
  -4  -1 -12   53.72    3.15   1
  -4   1 -12   58.26    2.75   7
  -4  -1 -12   51.87    2.98   7
  -5  -1 -12    6.11    1.45   1
  -5   1 -12    6.16    1.07   1
  -5  -1 -12    8.78    1.45   7
  -5   1 -12    6.32    1.11   1
  -5   1 -12    8.09    1.16   7
   5   1  12    7.07    1.95   4
  -6  -1 -12   12.33    1.65   7
  -6  -1 -12   12.93    1.75   1
  -6   1 -12   11.45    1.24   1
  -6   1 -12   10.67    1.20   1
  -6  -1 -12    8.54    1.60   1
  -6   1 -12   14.09    1.33   7
  -7   1 -12    1.40    0.74   1
  -7   1 -12    2.42    0.84   1
  -7   1 -12    1.72    0.78   7
  -7  -1 -12    1.78    1.36   1
  -7  -1 -12    3.21    1.24   7
  -7  -1 -12    2.10    1.24   1
  -8   1 -12    0.17    0.70   1
  -8  -1 -12    3.84    2.04   6
  -8   1 -12    0.21    0.65   1
  -8  -1 -12    1.20    1.32   1
  -8  -1 -12    0.06    1.23   1
  -8  -1 -12    0.63    1.09   7
  -9  -1 -12    8.17    2.91   6
  -9  -1 -12    5.62    1.80   1
  -9  -1 -12    5.92    1.62   1
  -9  -1 -12    7.30    1.67   7
  11   2 -12   -1.61    1.47   2
 -11  -2  12    2.55    1.88   7
 -11  -2  12   -0.77    1.26   2
 -11   2  12    3.85    1.77   7
 -11   2  12    1.41    1.56   2
  11  -2 -12    0.04    1.50   2
 -11  -2  12   -0.20    2.05   6
  10   2 -12   13.06    2.62   2
  10  -2 -12   11.66    2.22   2
 -10  -2  12   21.90    3.52   6
 -10   2  12   13.22    2.47   7
 -10  -2  12   12.43    2.37   2
 -10   2  12   17.19    2.58   2
   9   2 -12    3.39    1.75   2
  -9   2  12    4.91    1.77   7
  -9  -2  12    7.42    2.46   6
   9  -2 -12    5.13    1.70   2
  -9  -2  12    4.31    1.71   2
  -9   2  12    4.02    1.64   2
  -8   2  12    9.97    2.09   7
   8   2 -12   10.94    2.28   2
  -8  -2  12   15.17    2.97   6
   8   2 -12    9.23    2.10   7
  -8  -2  12   11.19    2.18   2
   8  -2 -12   14.06    2.30   2
  -8   2  12   14.89    2.24   2
  -7  -2  12   77.12    4.70   5
  -7   2  12   74.08    4.27   2
  -7   2  12   71.14    4.36   7
   7  -2 -12   74.73    4.38   2
  -7  -2  12   75.65    5.16   6
   7   2 -12   72.05    4.34   7
  -7  -2  12   77.58    4.27   2
   7   2 -12   77.14    4.70   2
  -6  -2  12   18.07    2.88   6
   6   2 -12   21.95    2.63   7
  -6  -2  12   22.97    2.43   2
  -6   2  12   22.77    2.45   2
  -6   2  12   21.19    2.53   7
   6  -2 -12   21.24    2.56   2
   6  -2 -12   17.85    2.57   7
  -6  -2  12   17.83    2.48   5
   6   2 -12   18.64    2.61   2
  -5   2  12   56.20    3.50   2
  -5  -2  12   55.44    3.38   2
   5  -2 -12   55.59    3.76   7
  -5  -2  12   56.48    4.23   6
   5   2 -12   55.68    3.71   7
  -5  -2  12   56.51    3.78   5
   5  -2 -12   57.18    3.76   2
   5   2 -12   57.47    3.87   2
  -5   2  12   56.62    3.83   7
  -4  -2  12   17.54    2.71   6
   4  -2 -12   16.34    2.26   2
   4   2 -12   17.43    2.34   2
  -4  -2  12   15.32    1.92   2
   4  -2 -12   20.44    2.50   7
  -4   2  12   17.09    2.11   2
  -4  -2  12   20.15    2.40   5
   4   2 -12   15.91    2.18   7
  -3  -2  12  102.08    5.57   6
  -3  -2  12  103.18    4.30   2
   3   2 -12  104.90    5.07   2
  -3   2  12  109.60    4.72   2
   3  -2 -12  103.80    5.15   7
  -3  -2  12  103.44    4.91   5
   3   2 -12  105.62    4.98   7
   3  -2 -12  111.69    5.15   2
   2  -2 -12   20.04    2.45   7
  -2  -2  12   18.70    1.70   2
   2   2 -12   20.12    2.33   2
  -2  -2  12   21.95    2.80   6
  -2   2  12   20.00    2.02   2
   2  -2 -12   24.67    2.58   2
   2   2 -12   18.01    2.22   7
  -2  -2  12   20.38    2.28   5
   1  -2 -12   71.03    4.03   2
  -1   2  12   75.98    4.08   3
  -1  -2  12   63.77    3.68   5
   1  -2 -12   70.92    4.13   7
  -1   2  12   75.91    3.52   2
   1   2 -12   73.06    3.99   2
   1   2 -12   68.18    3.78   7
  -1  -2  12   62.09    4.20   6
   0   2  12   10.41    1.81   3
   0  -2 -12   11.45    2.03   7
   0   2 -12    7.56    1.64   7
   0   2  12   10.21    1.43   2
   0   2 -12   10.33    1.78   1
   0  -2  12   12.50    1.77   5
   0  -2 -12   11.20    1.97   2
   1   2  12    2.99    0.94   2
  -1  -2 -12    1.64    1.24   7
  -1   2 -12    1.38    1.03   7
   1  -2  12    3.38    1.15   3
   1   2  12    3.92    1.36   3
  -1   2 -12    1.31    1.22   1
  -1  -2 -12    2.06    1.28   2
   1  -2  12    1.91    1.07   5
  -2   2 -12    4.21    1.38   1
  -2   2 -12    3.22    1.24   7
   2  -2  12    2.99    0.97   3
   2   2  12    2.74    1.49   4
  -2  -2 -12    2.64    1.32   7
   2  -2  12    4.46    1.28   5
   2   2  12    3.98    1.46   3
  -2  -2 -12    3.72    1.52   2
   3   2  12    9.39    2.15   4
   3  -2  12    7.22    1.40   5
   3   2  12    6.95    1.48   3
  -3   2 -12    9.08    1.60   7
  -3   2 -12    8.16    1.57   1
  -3  -2 -12    5.07    1.63   7
  -4   2 -12   25.29    2.16   7
  -4  -2 -12   21.05    2.55   7
  -4   2 -12   20.60    2.13   1
  -4   2 -12   26.37    2.22   1
   4  -2  12   23.34    1.99   5
   4   2  12   17.68    2.70   4
  -4  -2 -12   24.91    2.71   1
   4   2  12   23.25    2.14   3
  -5  -2 -12    4.51    1.72   1
  -5   2 -12    7.88    1.52   1
  -5   2 -12    7.64    1.43   1
  -5  -2 -12   10.57    2.06   7
  -5   2 -12    8.77    1.52   7
   5  -2  12   10.82    1.42   5
   5   2  12    9.32    1.49   3
  -6  -2 -12    6.83    2.32   6
   6  -2  12    5.38    1.07   5
  -6   2 -12    7.64    1.51   1
  -6  -2 -12    6.50    1.85   7
  -6  -2 -12    5.05    1.86   1
  -6   2 -12    6.30    1.38   1
  -6   2 -12    5.30    1.32   7
   6   2  12    4.43    1.29   3
  -7   2 -12    1.64    1.11   1
  -7   2 -12    1.56    1.16   1
  -7  -2 -12    0.36    1.68   1
  -7  -2 -12    4.44    1.65   7
  -7  -2 -12    3.96    2.36   6
  -7   2 -12    1.37    1.06   7
  -8   2 -12    0.76    0.98   1
  -8  -2 -12    0.93    2.12   6
  -8  -2 -12   -0.51    1.35   7
  -8   2 -12    0.40    1.08   1
  -8  -2 -12   -0.78    1.63   1
  -8  -3  12    6.41    2.04   2
  -8   3  12    4.79    2.07   7
  -8  -3  12    6.52    2.51   6
  -8   3  12    2.99    2.05   7
   8   3 -12    3.76    1.99   2
  -8   3  12    7.58    2.08   2
   8  -3 -12    5.87    2.02   2
   7  -3 -12    8.77    2.16   2
  -7  -3  12   10.72    2.49   5
  -7  -3  12   10.74    2.27   2
  -7  -3  12   11.23    3.00   6
  -7   3  12   10.84    2.49   7
   7   3 -12   11.36    2.52   7
   7   3 -12   11.87    2.62   2
  -7   3  12    7.11    2.34   7
  -7   3  12   14.74    2.54   2
   6   3 -12    7.38    2.18   2
  -6  -3  12    8.99    2.62   6
   6  -3 -12    8.26    2.21   2
  -6  -3  12   11.70    2.48   5
   6   3 -12    9.80    2.43   7
  -6  -3  12   10.41    2.23   2
  -6   3  12    6.79    1.92   2
   5   3 -12   12.49    2.59   2
  -5  -3  12   14.57    2.57   5
   5  -3 -12   12.51    2.37   2
   5   3 -12   14.21    2.58   7
  -5  -3  12   10.25    2.71   6
  -5  -3  12   14.46    2.24   2
  -5   3  12   14.46    2.38   2
   4  -3 -12    4.54    1.80   2
   4   3 -12    7.24    2.24   2
   4  -3 -12    6.17    2.18   7
   4   3 -12    4.38    1.79   7
  -4  -3  12    6.43    2.21   6
  -4  -3  12    3.48    1.62   5
  -4   3  12    3.27    1.65   2
  -4  -3  12    4.85    1.66   2
   3  -3 -12   16.55    2.52   2
  -3  -3  12   14.87    2.00   2
  -3  -3  12   16.66    2.94   6
   3  -3 -12   15.88    2.75   7
  -3  -3  12   15.85    2.49   5
  -3   3  12   18.30    2.42   2
   3   3 -12   18.91    2.70   7
   3   3 -12   18.81    2.72   2
  -2   3  12    5.30    1.69   2
  -2  -3  12   12.40    2.65   6
   2  -3 -12    7.94    2.03   2
  -2  -3  12    9.70    2.15   5
   2   3 -12    7.61    2.04   2
   2   3 -12   11.75    2.28   7
   2  -3 -12    5.36    1.91   7
  -1  -3  12   19.80    2.56   5
   1  -3 -12   18.42    2.69   2
   1  -3 -12   15.75    2.71   7
  -1  -3  12   16.32    2.75   6
  -1   3  12   22.45    2.39   2
   1   3 -12   22.36    2.76   7
   0  -3  12   28.73    2.93   5
   0  -3 -12   27.66    3.27   7
   0   3 -12   31.58    3.07   7
   0  -3  12   31.03    3.39   6
   0   3  12   35.84    2.79   2
   0  -3 -12   30.51    3.20   2
   1   3  12    8.22    1.59   2
  -1  -3 -12    8.57    2.25   7
  -1  -3 -12   13.18    2.44   2
   1  -3  12    9.20    1.98   5
  -1   3 -12    9.27    1.98   7
  -2  -3 -12   13.14    2.43   2
  -2   3 -12   12.93    2.21   7
   2  -3  12   12.27    2.04   5
  -2  -3 -12   16.29    3.01   6
  -2  -3 -12   13.45    2.66   7
  -3  -3 -12    0.19    1.74   6
  -3   3 -12    1.52    1.41   7
   3  -3  12    0.79    0.95   3
  -3   3 -12    1.33    1.63   1
   3  -3  12    0.63    1.27   5
   3   3  12    1.98    1.51   3
  -3  -3 -12    2.47    1.73   7
  -3  -3 -12   -1.50    1.46   2
  -4  -3 -12    1.95    2.19   6
   4  -3  12    2.36    1.37   5
  -4  -3 -12    0.14    1.45   7
  -4   3 -12    2.16    1.75   1
  -4   3 -12    2.50    1.51   7
  -5  -3 -12    9.29    2.43   7
   5  -3  12   10.31    1.78   5
  -5   3 -12    7.86    2.08   1
  -5   3 -12    9.36    1.93   7
  -5  -3 -12    8.43    2.92   6
 -12   0  13   32.67    3.38   2
 -12   0  13   34.50    3.70   7
  12   0 -13   33.37    3.40   2
 -11   0  13    1.36    1.87   6
 -11   0  13    0.70    1.26   2
 -11   0  13    2.55    1.68   7
  11   0 -13   -0.15    1.43   2
  10   0 -13    1.42    1.46   2
 -10   0  13    2.87    1.51   7
 -10   0  13    1.43    1.76   6
 -10   0  13    1.98    1.38   2
   9   0 -13   -0.83    1.24   2
  -9   0  13    1.74    1.68   6
  -9   0  13    0.64    1.37   7
  -9   0  13    1.11    1.06   2
  -8   0  13    6.31    1.80   7
  -8   0  13    5.85    2.03   6
   8   0 -13    4.53    1.64   2
  -8   0  13    7.20    1.66   2
   8   0 -13    5.44    1.67   7
   7   0 -13    1.72    1.30   2
  -7   0  13    1.25    1.07   2
   7   0 -13    1.60    1.33   7
  -7   0  13    2.19    1.52   6
  -7   0  13    0.54    1.20   7
   6   0 -13  108.44    5.03   7
   6   0 -13  106.22    5.04   2
  -6   0  13  104.80    5.37   6
  -6   0  13   99.31    4.56   2
   5   0 -13    3.77    1.40   7
  -5   0  13    2.56    1.13   2
   5   0 -13    5.17    1.51   2
   4   0 -13    1.69    1.12   7
  -4   0  13    0.52    1.05   3
  -4   0  13    0.31    0.85   2
   4   0 -13    1.39    1.05   2
   3   0 -13    0.24    0.89   2
   3   0 -13    0.74    0.94   7
  -3   0  13    0.08    0.93   3
  -3   0  13    0.46    0.83   2
  -2   0  13   21.62    2.17   3
  -2   0  13   17.61    1.57   2
   2   0 -13   19.33    2.11   7
   2   0 -13   24.44    2.34   2
  -1   0  13   40.79    1.88   2
  -1   0  13   41.65    2.68   3
   1   0 -13   39.93    2.70   7
   1   0 -13   44.12    2.85   2
   1   0 -13   41.06    2.67   1
   0   0 -13  140.61    5.08   1
   0   0  13  134.17    5.02   3
   0   0  13  138.08    5.22   3
   0   0 -13  139.06    5.18   7
  -1   0 -13   41.68    2.60   7
   1   0  13   48.84    2.85   3
   1   0  13   45.77    2.55   3
  -1   0 -13   41.91    2.61   1
   2   0  13   56.93    2.67   3
  -2   0 -13   58.18    3.04   7
  -2   0 -13   62.94    3.04   1
  -3   0 -13  270.62    7.59   1
  -3   0 -13  270.45    7.78   7
  -3   0 -13  263.74    7.55   1
  -4   0 -13   47.81    2.67   7
  -4   0 -13   52.37    2.75   1
  -4   0 -13   53.31    2.73   1
  -5   0 -13   50.68    2.67   1
  -5   0 -13   52.56    2.72   1
  -5   0 -13   52.40    2.69   7
  -6   0 -13    2.84    1.09   1
  -6   0 -13    1.45    0.94   7
  -6   0 -13    1.41    0.94   1
  -7   0 -13   10.10    1.31   7
  -7   0 -13    9.86    1.32   1
  -7   0 -13   11.28    1.46   1
  -8   0 -13    2.36    0.99   1
  -8   0 -13    3.41    1.12   7
  -8   0 -13    1.81    1.07   1
  -9   0 -13    0.12    0.84   1
  -9   0 -13    0.76    1.06   1
 -12   1  13    8.26    2.20   2
  12  -1 -13   10.70    2.26   2
 -12  -1  13    6.28    2.26   7
 -12  -1  13    7.72    2.66   6
  12   1 -13    7.30    2.33   2
 -12   1  13    7.71    2.27   7
 -12  -1  13    8.34    2.24   2
 -11   1  13    0.85    1.33   2
  11  -1 -13    0.63    1.52   2
  11   1 -13    2.30    1.86   2
 -11  -1  13    5.33    2.17   6
 -11  -1  13    1.24    1.39   2
 -11  -1  13    2.97    1.88   7
 -11   1  13    4.11    1.81   7
  10  -1 -13   -0.10    1.38   2
 -10   1  13   -0.15    1.36   7
 -10   1  13    1.91    1.44   2
 -10  -1  13    0.62    1.78   6
 -10  -1  13    0.01    1.21   2
  10   1 -13    2.37    1.70   2
 -10  -1  13    0.30    1.43   7
  -9   1  13    5.47    1.64   2
  -9  -1  13    6.23    1.72   2
   9  -1 -13    4.96    1.81   2
  -9   1  13    4.54    1.71   7
  -9  -1  13    5.98    2.21   6
   9   1 -13    6.74    1.95   2
  -9  -1  13    4.75    1.90   7
  -8  -1  13    6.26    2.22   6
  -8   1  13    6.78    1.91   7
  -8  -1  13    6.12    1.65   2
   8   1 -13    5.54    1.82   2
   8   1 -13    3.45    1.56   7
  -8   1  13    4.95    1.67   2
   8  -1 -13    7.30    1.85   2
  -8  -1  13    9.01    2.12   5
   7   1 -13    7.05    1.81   7
  -7  -1  13    9.00    1.77   2
  -7   1  13    9.93    1.86   2
   7  -1 -13    8.39    1.92   7
  -7  -1  13   10.21    2.46   6
   7   1 -13   10.31    2.10   2
   7  -1 -13   10.90    2.07   2
  -7   1  13    9.05    1.91   7
  -7  -1  13   13.80    2.24   5
  -6  -1  13   26.00    2.47   2
  -6   1  13   23.60    2.39   2
   6   1 -13   21.79    2.63   2
   6  -1 -13   26.19    2.69   2
   6  -1 -13   26.57    2.79   7
   6   1 -13   21.96    2.51   7
  -6   1  13   26.15    2.68   7
  -6  -1  13   25.95    3.16   6
  -6  -1  13   24.07    2.60   5
  -5  -1  13   49.27    3.01   2
  -5   1  13   48.17    3.07   2
   5  -1 -13   55.66    3.59   2
   5   1 -13   54.35    3.42   7
   5   1 -13   46.58    3.38   2
  -5  -1  13   48.61    3.38   5
  -5  -1  13   52.06    3.98   6
   5  -1 -13   43.49    3.26   7
   4  -1 -13   18.32    2.25   7
  -4  -1  13   20.04    1.90   2
   4   1 -13   18.84    2.20   7
  -4  -1  13   20.53    2.30   5
   4   1 -13   25.00    2.56   2
  -4   1  13   12.04    1.74   2
   4  -1 -13   16.93    2.21   2
  -4  -1  13   14.13    2.50   6
  -4  -1  13   14.52    2.16   3
  -3  -1  13    4.38    1.09   2
  -3  -1  13    6.00    1.80   6
  -3  -1  13    7.52    1.66   5
   3  -1 -13    9.14    1.75   2
   3  -1 -13    9.75    1.81   7
   3   1 -13    7.79    1.67   2
   3   1 -13    9.05    1.72   7
  -3   1  13    6.42    1.64   3
  -3  -1  13    6.77    1.60   3
  -3   1  13    8.03    1.44   2
   2  -1 -13   98.55    4.66   2
  -2  -1  13  102.99    4.61   5
  -2  -1  13   96.07    4.55   3
  -2  -1  13  104.68    3.65   2
   2  -1 -13   95.77    4.57   7
  -2   1  13  108.47    4.07   2
   2   1 -13   99.69    4.49   7
   2   1 -13   97.61    4.49   2
  -2   1  13   98.85    4.67   3
  -1  -1  13   96.08    4.44   3
   1  -1 -13  109.55    4.81   2
  -1  -1  13  110.55    4.66   5
  -1   1  13  111.77    3.85   2
  -1   1  13  103.85    4.69   3
   1  -1 -13  100.62    4.58   7
   1   1 -13  107.07    4.62   2
   1   1 -13  103.48    4.51   1
   1   1 -13  101.24    4.48   7
   0  -1 -13    3.24    1.31   1
   0  -1  13    3.14    1.15   3
   0   1 -13    4.39    1.35   1
   0  -1 -13    3.42    1.36   2
   0   1 -13    2.12    1.09   7
   0   1  13    3.51    1.23   3
   0  -1  13    3.70    1.24   3
   0  -1 -13    3.83    1.30   7
   0  -1  13    1.98    1.01   5
   1   1  13   10.40    1.57   3
  -1   1 -13    9.78    1.53   7
   1  -1  13   10.12    1.43   3
   1   1  13   12.13    2.01   4
  -1  -1 -13   10.43    1.70   7
  -1  -1 -13   10.46    1.72   1
  -1   1 -13   10.93    1.58   1
   1  -1  13   13.30    1.64   5
   2   1  13   27.00    2.07   3
   2  -1  13   26.54    2.10   5
   2   1  13   21.06    2.64   4
  -2   1 -13   27.53    2.19   1
  -2  -1 -13   27.97    2.42   1
  -2  -1 -13   27.91    2.28   7
   2  -1  13   22.94    1.71   3
  -2   1 -13   25.54    2.07   7
   3   1  13    5.36    1.86   4
  -3   1 -13    4.75    1.20   1
  -3  -1 -13    3.70    1.29   7
  -3   1 -13    2.62    1.09   1
   3   1  13    2.95    0.94   3
  -3  -1 -13    4.03    1.41   1
  -3   1 -13    4.95    1.19   7
  -4   1 -13   86.07    3.57   1
  -4  -1 -13   86.00    4.06   1
   4   1  13   92.30    3.20   3
  -4  -1 -13   81.39    3.93   7
  -4   1 -13   86.27    3.57   1
   4   1  13   93.52    5.51   4
  -4   1 -13   89.08    3.67   7
  -5  -1 -13   14.60    1.91   1
  -5   1 -13   16.79    1.59   1
  -5   1 -13   16.35    1.59   7
  -5   1 -13   18.17    1.64   1
  -5  -1 -13   18.15    1.96   7
  -6  -1 -13   16.94    1.98   7
  -6   1 -13   19.05    1.61   1
  -6  -1 -13   19.52    2.13   1
  -6   1 -13   16.24    1.51   7
  -6   1 -13   16.83    1.54   1
  -7  -1 -13    5.44    1.42   7
  -7   1 -13    4.16    0.94   7
  -7   1 -13    3.93    1.00   1
  -7  -1 -13    2.95    1.44   1
  -7   1 -13    5.27    1.00   1
  -8   1 -13    9.49    1.20   1
  -8   1 -13   10.24    1.18   1
  -8  -1 -13    7.84    1.74   1
  -8  -1 -13   10.63    1.88   7
 -10   2  13    3.46    1.73   2
  10  -2 -13    1.40    1.64   2
  10   2 -13    4.06    2.02   2
 -10  -2  13   -1.11    1.30   2
 -10   2  13    1.10    1.53   7
 -10  -2  13    1.12    2.01   6
   9  -2 -13    2.70    1.58   2
   9   2 -13    3.95    1.93   2
  -9  -2  13    8.82    2.61   6
  -9   2  13    4.39    1.82   7
  -9  -2  13    1.25    1.44   2
  -9   2  13    7.23    1.94   2
   8   2 -13   13.77    2.53   7
  -8  -2  13   17.19    2.50   2
  -8   2  13   16.24    2.61   7
  -8  -2  13   18.07    2.77   5
   8  -2 -13   10.35    2.18   2
   8   2 -13   11.66    2.43   2
  -8   2  13    9.80    2.21   2
  -8  -2  13   14.68    2.99   6
   7   2 -13   82.57    5.03   2
   7  -2 -13   89.57    4.98   2
  -7  -2  13   90.56    4.71   2
  -7   2  13   85.62    5.00   7
  -7   2  13   84.54    4.68   2
  -7  -2  13   94.00    5.31   5
  -7  -2  13   87.12    5.61   6
   7   2 -13   79.18    4.76   7
   6  -2 -13   60.44    4.10   2
   6   2 -13   68.80    4.29   7
   6   2 -13   67.27    4.40   2
  -6  -2  13   72.21    4.48   5
  -6   2  13   66.51    4.02   2
  -6  -2  13   66.00    3.91   2
  -6  -2  13   61.20    4.72   6
  -5   2  13   12.73    2.02   2
   5   2 -13    6.53    1.83   2
   5  -2 -13    9.61    2.06   2
   5   2 -13    8.68    1.99   7
  -5  -2  13    7.11    1.77   5
  -5  -2  13    8.78    1.70   2
  -5  -2  13    7.36    2.32   6
   5  -2 -13    7.13    1.92   7
   4  -2 -13   79.37    4.57   2
   4  -2 -13   83.63    4.75   7
  -4  -2  13   86.40    4.15   2
   4   2 -13   86.52    4.76   2
   4   2 -13   81.97    4.54   7
  -4  -2  13   93.71    4.86   5
  -4  -2  13   81.05    5.19   6
  -4   2  13   87.92    4.31   2
   3  -2 -13    6.12    1.78   2
   3  -2 -13    7.17    1.87   7
  -3  -2  13    5.86    2.03   6
   3   2 -13    4.48    1.61   2
   3   2 -13    4.03    1.47   7
  -3  -2  13    4.81    1.29   2
  -3   2  13    5.49    1.52   2
  -3  -2  13    4.69    1.54   5
  -2  -2  13   63.83    4.52   6
   2  -2 -13   70.98    4.16   2
  -2   2  13   71.13    3.60   2
   2   2 -13   72.74    4.15   2
  -2  -2  13   69.91    4.04   5
   2   2 -13   67.47    3.95   7
   2  -2 -13   60.57    4.01   7
  -1  -2  13   37.24    2.94   5
   1  -2 -13   33.01    3.09   7
  -1   2  13   39.74    2.60   2
   1  -2 -13   37.97    3.12   2
   1   2 -13   39.91    3.05   7
   0  -2 -13    6.71    1.76   2
   0   2 -13    2.48    1.51   1
   0   2  13    2.79    1.42   3
   0   2  13    6.36    1.25   2
   0  -2  13    4.27    1.38   5
   0  -2 -13    2.87    1.50   7
   0   2 -13    4.63    1.42   7
   1  -2  13    3.01    1.28   5
  -1  -2 -13    3.62    1.37   7
  -1   2 -13    4.52    1.39   7
  -1  -2 -13    2.65    1.51   2
   1  -2  13    2.26    1.13   3
   1   2  13    4.29    1.47   3
  -1   2 -13    3.99    1.53   1
  -2   2 -13   11.99    1.84   1
   2  -2  13   14.10    1.83   5
  -2  -2 -13   11.08    2.06   7
   2  -2  13   13.99    1.46   3
  -2   2 -13   14.58    1.94   7
   2   2  13   13.53    1.95   3
  -3   2 -13    5.41    1.42   7
   3  -2  13    4.44    1.32   5
  -3   2 -13    3.11    1.42   1
   3   2  13    8.36    2.11   4
   3   2  13    5.94    1.49   3
  -3  -2 -13    5.33    1.63   7
  -4   2 -13   15.32    1.90   7
  -4   2 -13   15.04    1.92   1
   4  -2  13   11.56    1.65   5
   4   2  13   14.69    1.81   3
  -4  -2 -13   12.74    2.26   7
  -5  -2 -13    3.33    1.62   7
  -5   2 -13    0.87    1.08   7
   5  -2  13    1.65    1.01   5
  -5   2 -13    2.47    1.28   1
  -5  -2 -13    0.87    1.57   1
   6  -2  13    0.65    0.94   5
  -6   2 -13    0.58    1.08   7
  -6   2 -13   -0.75    1.17   1
  -6  -2 -13    1.68    1.64   1
  -6  -2 -13    1.02    1.39   7
  -6   2 -13    0.23    1.10   1
  -6  -2 -13    2.95    2.16   6
  -7   2 -13    0.48    1.12   7
  -7  -2 -13    2.35    1.55   7
  -7   2 -13    1.92    1.25   1
  -7   2 -13    0.66    1.07   1
  -7  -2 -13   -0.63    1.90   6
  -7  -2 -13   -0.21    1.54   1
   7   3 -13   18.51    3.10   2
  -7  -3  13   16.22    2.84   5
  -7  -3  13   24.52    3.72   6
   7   3 -13   11.89    2.61   7
  -7   3  13   17.64    2.67   2
  -7  -3  13   27.21    3.15   2
   7  -3 -13   20.27    2.90   2
   6  -3 -13   17.05    2.77   2
  -6  -3  13   18.42    2.65   2
  -6  -3  13   19.78    3.48   6
  -6   3  13   18.11    2.64   2
  -6  -3  13   22.92    3.12   5
   6   3 -13   14.17    2.64   7
   6   3 -13   20.27    3.21   2
  -5   3  13    3.06    1.73   2
   5  -3 -13    1.94    1.68   2
   5   3 -13    0.72    1.52   7
  -5  -3  13    0.93    1.40   2
  -5  -3  13    2.96    2.17   6
  -5  -3  13    0.85    1.45   5
   5   3 -13    3.51    1.97   2
  -4  -3  13    4.63    1.82   5
   4   3 -13    6.27    2.08   7
   4   3 -13    8.00    2.24   2
   4  -3 -13    5.73    2.17   7
  -4  -3  13    4.21    2.09   6
   4  -3 -13    6.84    2.09   2
  -4   3  13    7.12    1.83   2
  -4  -3  13    6.82    1.74   2
   3  -3 -13    5.10    2.08   7
  -3   3  13    7.77    1.94   2
   3  -3 -13    5.85    1.99   2
  -3  -3  13    8.76    2.49   6
   3   3 -13    6.67    2.03   7
  -3  -3  13    4.89    1.84   5
   3   3 -13    3.10    1.72   2
   2   3 -13    0.44    1.38   7
   2  -3 -13   -0.19    1.36   2
   2  -3 -13   -0.03    1.43   7
  -2  -3  13    1.76    1.88   6
  -2  -3  13    0.23    1.18   5
  -2   3  13    0.28    1.28   2
   2   3 -13    0.45    1.43   2
   1   3 -13    9.28    2.11   7
  -1   3  13    9.03    1.83   2
  -1  -3  13    5.39    1.80   5
  -1  -3  13    9.04    2.46   6
   1  -3 -13    5.21    2.07   7
   1  -3 -13    6.60    2.00   2
   0   3 -13    4.26    1.70   7
   0  -3  13    2.36    1.54   5
   0  -3 -13    0.14    1.47   2
   0  -3 -13    1.89    1.64   7
   0   3  13    4.62    1.50   2
   1  -3  13    0.09    1.19   5
  -1   3 -13    0.20    1.27   7
  -1  -3 -13   -2.45    1.22   7
  -1  -3 -13    0.39    1.48   2
  -2  -3 -13    2.78    2.25   6
   2  -3  13    2.58    1.53   5
  -2  -3 -13    4.27    1.85   2
  -2   3 -13    3.61    1.64   7
  -2  -3 -13    4.30    2.00   7
  -3  -3 -13    2.68    2.10   6
  -3  -3 -13    0.27    1.63   7
  -3   3 -13    0.78    1.78   1
  -3   3 -13    2.69    1.44   7
   3  -3  13    1.94    1.44   5
  -4  -3 -13    5.56    2.21   7
  -4  -3 -13    7.52    2.92   6
  -4   3 -13    1.68    1.40   7
  -4   3 -13    2.59    1.98   1
   4  -3  13    5.31    1.65   5
 -12   0  14   10.06    2.63   7
 -11   0  14   17.11    3.11   6
 -11   0  14   13.89    2.67   7
  11   0 -14   14.82    2.62   2
 -11   0  14   13.17    2.41   2
 -10   0  14    2.78    1.96   6
 -10   0  14    5.58    1.78   2
 -10   0  14    4.04    1.80   7
  10   0 -14    4.81    1.95   2
   9   0 -14   13.70    2.38   2
  -9   0  14   12.29    2.39   7
  -9   0  14   13.93    2.67   6
  -9   0  14    8.14    1.89   2
   8   0 -14    2.60    1.51   7
  -8   0  14    5.31    1.99   6
  -8   0  14    5.76    1.68   2
   8   0 -14    2.44    1.48   2
  -7   0  14   26.57    3.14   6
  -7   0  14   24.78    2.55   2
   7   0 -14   23.95    2.83   2
   7   0 -14   25.93    2.77   7
   6   0 -14   79.59    4.48   7
   6   0 -14   79.81    4.53   2
  -6   0  14   92.86    4.40   2
   5   0 -14    0.05    1.04   2
  -5   0  14    0.45    1.06   2
   5   0 -14    3.31    1.32   7
   4   0 -14   27.29    2.65   2
  -4   0  14   25.30    2.18   2
   4   0 -14   24.63    2.50   7
  -3   0  14    1.28    1.02   2
   3   0 -14    2.33    1.25   7
   3   0 -14    4.39    1.50   2
  -3   0  14    0.83    1.08   3
  -2   0  14    5.43    1.05   2
   2   0 -14    5.57    1.46   2
  -2   0  14    4.50    1.41   3
   2   0 -14    6.19    1.50   7
   1   0 -14  430.43   11.69   1
  -1   0  14  432.81   12.05   3
   1   0 -14  461.02   12.28   2
   1   0 -14  417.92   12.02   7
   0   0 -14  133.73    5.14   1
   0   0 -14  127.73    5.18   7
   0   0  14  129.97    5.05   3
  -1   0 -14  122.76    5.01   7
  -1   0 -14  132.46    5.00   1
   1   0  14  133.17    4.82   3
   1   0  14  137.19    5.10   3
  -2   0 -14    3.26    1.20   1
   2   0  14    2.98    0.98   3
  -2   0 -14   -0.01    0.95   7
  -3   0 -14   41.91    2.67   7
  -3   0 -14   41.30    2.62   1
  -4   0 -14    6.23    1.38   1
  -4   0 -14    9.97    1.52   7
  -4   0 -14   10.01    1.54   1
  -5   0 -14  116.23    4.36   7
  -5   0 -14  114.49    4.40   1
  -5   0 -14  113.31    4.34   1
  -6   0 -14    0.28    0.91   7
  -6   0 -14    0.29    1.00   1
  -6   0 -14   -0.12    0.99   1
  -7   0 -14    1.38    1.00   1
  -7   0 -14    1.31    1.06   1
  -7   0 -14    0.13    0.96   7
  -8   0 -14    0.58    1.04   1
  -8   0 -14    1.31    1.03   7
  -8   0 -14   -0.29    0.90   1
 -11  -1  14   11.42    3.02   6
 -11   1  14   10.58    2.31   2
  11   1 -14    6.76    2.27   2
  11  -1 -14    7.26    2.19   2
 -11   1  14    9.37    2.40   7
 -11  -1  14    6.24    1.95   2
  10  -1 -14   -0.54    1.45   2
 -10   1  14    1.61    1.45   2
 -10   1  14    3.09    1.72   7
 -10  -1  14    4.50    2.17   6
  10   1 -14    2.89    1.66   2
 -10  -1  14    0.62    1.21   2
  -9   1  14    1.75    1.57   7
   9   1 -14    5.42    2.00   2
  -9  -1  14    9.96    2.54   6
  -9  -1  14    6.47    1.83   2
  -9   1  14    6.01    1.89   2
   9  -1 -14    3.25    1.73   2
   8   1 -14    1.39    1.34   7
  -8   1  14   -0.57    1.21   2
  -8  -1  14    0.34    1.27   5
  -8  -1  14    1.48    1.79   6
   8  -1 -14    1.61    1.37   2
  -8  -1  14    1.09    1.34   2
   8   1 -14    3.19    1.65   2
   7  -1 -14    4.40    1.72   7
  -7  -1  14    3.16    1.52   5
  -7   1  14    5.39    1.62   2
   7   1 -14    6.18    1.69   7
   7   1 -14    6.84    1.93   2
  -7  -1  14    8.68    2.41   6
  -7  -1  14    5.53    1.59   2
   7  -1 -14    7.16    1.95   2
   6   1 -14   11.23    2.08   7
   6  -1 -14   14.16    2.35   7
  -6   1  14   17.03    2.21   2
   6  -1 -14   12.41    2.18   2
  -6  -1  14    4.75    1.96   6
  -6  -1  14   10.93    1.85   2
  -6  -1  14   11.80    2.14   5
   6   1 -14    9.81    2.07   2
   5  -1 -14   41.30    3.27   2
  -5  -1  14   43.28    3.36   5
   5   1 -14   44.37    3.39   2
  -5  -1  14   41.41    2.86   2
   5   1 -14   39.82    3.15   7
  -5   1  14   45.14    3.06   2
   5  -1 -14   39.94    3.28   7
  -5  -1  14   39.82    3.80   6
   4  -1 -14   16.41    2.32   2
   4  -1 -14   11.47    1.99   7
  -4  -1  14   11.33    2.00   5
  -4   1  14   12.24    1.80   2
   4   1 -14   14.18    2.19   2
  -4  -1  14   11.00    1.65   2
   4   1 -14   11.74    1.94   7
  -4  -1  14   12.32    2.46   6
   3   1 -14   25.12    2.64   2
  -3  -1  14   24.61    2.53   5
   3  -1 -14   23.54    2.60   2
   3  -1 -14   25.93    2.66   7
  -3  -1  14   30.38    2.13   2
  -3  -1  14   25.84    2.60   3
  -3   1  14   33.03    2.39   2
   3   1 -14   26.17    2.55   7
  -2   1  14   80.26    4.14   3
   2  -1 -14   64.42    3.83   7
   2   1 -14   80.74    4.13   2
   2   1 -14   63.54    3.74   7
  -2  -1  14   66.90    3.89   3
  -2  -1  14   70.95    3.90   5
  -2   1  14   71.71    3.29   2
   2  -1 -14   71.31    4.02   2
   1   1 -14   44.46    3.02   7
  -1   1  14   41.52    2.26   2
  -1   1  14   40.93    2.95   3
   1  -1 -14   40.43    3.10   2
   1   1 -14   46.17    3.07   1
  -1  -1  14   44.59    3.03   3
   1  -1 -14   41.98    3.00   7
  -1  -1  14   39.33    2.86   5
   0   1  14   97.19    4.44   3
   0  -1  14  100.94    4.43   3
   0  -1  14  100.09    4.46   5
   0  -1 -14  108.20    4.84   2
   0   1 -14  100.31    4.45   7
   0  -1 -14  102.68    4.64   7
   0   1 -14  103.44    4.48   1
  -1   1 -14   22.98    2.18   7
   1   1  14   29.44    2.31   3
  -1  -1 -14   25.33    2.45   7
  -1   1 -14   24.03    2.21   1
   1  -1  14   26.73    2.17   3
  -1  -1 -14   26.98    2.47   1
  -2  -1 -14   -0.49    1.03   1
  -2   1 -14   -0.07    1.00   1
  -2   1 -14    1.86    1.02   7
   2   1  14    1.69    1.01   3
   2  -1  14   -0.63    0.81   3
  -2  -1 -14   -0.04    0.98   7
   3   1  14   29.50    3.29   4
  -3  -1 -14   28.51    2.60   1
  -3  -1 -14   31.63    2.59   7
   3   1  14   31.21    2.10   3
  -3   1 -14   32.30    2.36   7
  -3   1 -14   31.08    2.37   1
  -4  -1 -14    5.79    1.51   7
   4   1  14    4.02    0.91   3
  -4   1 -14    4.25    1.26   1
  -4   1 -14    5.84    1.27   7
  -4   1 -14    2.95    1.15   1
  -4  -1 -14    2.87    1.42   1
  -5  -1 -14   14.30    1.99   1
  -5   1 -14   16.01    1.74   1
  -5   1 -14   18.34    1.77   7
  -5  -1 -14   14.37    1.96   7
  -5   1 -14   19.19    1.79   1
  -6  -1 -14    5.60    1.49   7
  -6   1 -14    4.20    1.09   7
  -6   1 -14    2.98    1.09   1
  -6   1 -14    4.63    1.15   1
  -6  -1 -14    1.46    1.41   1
  -7   1 -14    4.50    1.08   7
  -7  -1 -14    4.72    1.56   7
  -7   1 -14    3.99    1.12   1
  -7   1 -14    7.17    1.24   1
  -7  -1 -14    6.58    1.67   1
  10  -2 -14    1.94    1.76   2
 -10  -2  14    0.19    2.01   6
 -10   2  14    1.52    1.65   2
  10   2 -14    2.02    1.97   2
 -10  -2  14    1.80    1.68   2
 -10   2  14    2.87    1.84   7
  -9   2  14    0.34    1.40   2
   9   2 -14    2.04    1.73   2
  -9  -2  14    0.42    1.45   2
   9  -2 -14   -0.55    1.30   2
  -9  -2  14   -0.56    1.68   6
  -8  -2  14    0.96    1.98   6
   8   2 -14   -0.22    1.43   7
  -8   2  14    1.56    1.44   2
  -8  -2  14    3.12    1.59   2
  -8  -2  14    1.57    1.53   5
   8   2 -14    1.66    1.64   2
   8  -2 -14    0.44    1.44   2
   7  -2 -14   13.07    2.42   2
  -7  -2  14   20.21    3.30   6
   7   2 -14   19.61    2.79   7
  -7  -2  14   17.94    2.50   2
  -7  -2  14   18.38    2.76   5
   7   2 -14   14.60    2.68   2
  -7   2  14   15.57    2.41   2
  -6  -2  14   14.98    2.58   5
  -6  -2  14   22.16    3.42   6
  -6  -2  14   19.58    2.41   2
  -6   2  14   15.50    2.36   2
   6  -2 -14   16.17    2.53   2
   6   2 -14   28.59    3.21   2
   6  -2 -14   24.77    3.02   7
   6   2 -14   23.72    2.90   7
  -5   2  14   15.79    2.29   2
   5  -2 -14   14.55    2.51   7
   5   2 -14   20.28    2.69   7
  -5  -2  14   18.13    2.62   5
   5   2 -14   19.04    2.71   2
   5  -2 -14   15.20    2.46   2
  -5  -2  14   16.74    3.01   6
  -5  -2  14   18.85    2.27   2
  -4  -2  14   11.95    2.17   5
   4   2 -14   11.32    2.21   7
   4  -2 -14    9.97    2.20   7
   4  -2 -14    9.44    2.11   2
  -4  -2  14    8.90    2.44   6
   4   2 -14   10.41    2.24   2
  -4  -2  14    9.25    1.75   2
  -4   2  14   14.20    2.05   2
  -3  -2  14   11.63    2.60   6
   3  -2 -14   11.53    2.24   7
   3  -2 -14   12.29    2.25   2
   3   2 -14   12.95    2.27   2
  -3  -2  14   14.81    2.25   5
  -3   2  14   13.88    2.02   2
   3   2 -14   10.76    2.09   7
   2   2 -14   28.17    2.82   7
  -2  -2  14   30.78    2.85   5
   2  -2 -14   32.61    3.13   7
   2   2 -14   24.35    2.76   2
   2  -2 -14   26.02    2.87   2
  -2  -2  14   29.83    3.38   6
  -2   2  14   29.57    2.43   2
   1  -2 -14    4.51    1.74   2
   1   2 -14    5.62    1.62   7
   1  -2 -14    6.41    1.87   7
  -1  -2  14    5.24    1.58   5
  -1   2  14    5.77    1.37   2
   0   2 -14    7.05    1.71   7
   0  -2 -14    8.14    1.99   2
   0  -2  14    7.38    1.70   5
   0   2  14    9.86    1.94   3
   0  -2 -14    7.42    1.97   7
  -1  -2 -14   30.66    3.00   2
   1   2  14   32.14    2.79   3
  -1   2 -14   31.57    2.73   7
  -1   2 -14   41.38    3.17   1
  -1  -2 -14   24.43    2.85   7
   1  -2  14   30.77    2.67   5
  -2  -2 -14    2.45    1.46   7
   2  -2  14    1.26    0.94   3
  -2   2 -14    0.44    1.28   1
   2   2  14    1.23    1.24   3
  -2   2 -14    0.37    1.10   7
   2  -2  14    2.20    1.26   5
  -3  -2 -14    9.21    2.08   7
  -3   2 -14    8.82    1.78   1
  -3   2 -14    8.49    1.71   7
   3   2  14    8.73    1.68   3
   3  -2  14    5.98    1.48   5
   4  -2  14    9.63    1.60   5
  -4   2 -14    9.82    1.75   1
  -4   2 -14    8.83    1.73   7
  -4  -2 -14    8.83    2.08   7
   5  -2  14   18.94    1.92   5
  -5   2 -14   18.05    2.11   1
  -5   2 -14   17.12    2.06   7
  -5  -2 -14   13.67    2.39   7
  -6   2 -14    0.82    1.17   7
  -6   2 -14    1.80    1.38   1
  -6  -2 -14    1.23    1.44   7
   6   3 -14   34.08    3.83   2
   6  -3 -14   37.25    3.80   2
  -6  -3  14   35.80    3.87   5
  -6  -3  14   42.23    4.67   6
  -6   3  14   33.57    3.35   2
  -6  -3  14   31.01    3.18   2
   6   3 -14   34.87    3.73   7
  -5  -3  14   23.64    3.22   5
  -5   3  14   13.95    2.43   2
   5   3 -14   13.11    2.72   7
  -5  -3  14   19.96    2.57   2
   5   3 -14   20.64    3.14   2
  -5  -3  14   17.44    3.38   6
   5  -3 -14   14.57    2.69   2
   4   3 -14   16.39    2.80   7
  -4   3  14   10.75    2.21   2
   4  -3 -14   11.45    2.68   7
  -4  -3  14   12.49    3.06   6
  -4  -3  14   13.63    2.67   5
   4   3 -14   11.93    2.60   2
   4  -3 -14    8.83    2.33   2
  -3   3  14    7.77    2.04   2
   3   3 -14   10.76    2.47   2
  -3  -3  14    7.36    2.17   5
   3  -3 -14    7.93    2.28   7
  -3  -3  14   11.02    2.81   6
   3   3 -14    9.09    2.28   7
   3  -3 -14    6.29    2.09   2
  -2  -3  14   11.51    2.85   6
   2   3 -14   10.53    2.29   7
   2  -3 -14    5.35    2.13   7
   2  -3 -14   13.10    2.59   2
  -2   3  14    8.84    2.01   2
  -2  -3  14    8.72    2.12   5
   1  -3 -14    3.39    1.84   2
  -1   3  14    2.11    1.43   2
  -1  -3  14    0.31    1.43   5
   1  -3 -14    1.53    1.68   7
   1   3 -14    0.23    1.32   7
  -1  -3  14    1.18    1.96   6
   0  -3  14    5.29    1.83   5
   0  -3 -14    5.97    2.15   2
   0   3 -14    3.52    1.67   7
   0  -3 -14    6.81    2.22   7
  -1  -3 -14    4.90    2.00   7
  -1   3 -14    3.04    1.64   7
  -1  -3 -14    4.66    2.01   2
   1  -3  14    0.90    1.41   5
  -2  -3 -14    1.01    1.70   7
   2  -3  14   -0.06    1.44   5
  -2  -3 -14   -0.24    1.62   2
  -2   3 -14    0.40    1.32   7
  11   0 -15   -0.26    1.60   2
 -11   0  15   -1.59    1.83   6
 -11   0  15    1.14    1.46   2
 -10   0  15    3.55    1.68   2
 -10   0  15    3.25    2.06   6
  10   0 -15    5.97    2.00   2
   9   0 -15    3.76    1.73   2
  -9   0  15   12.17    2.67   6
  -9   0  15    5.33    1.72   2
  -8   0  15   10.79    2.07   2
   8   0 -15    9.95    2.15   7
   8   0 -15    9.63    2.27   2
   7   0 -15    1.76    1.45   7
   7   0 -15   -0.28    1.13   2
  -7   0  15    1.43    1.30   2
   6   0 -15   14.71    2.33   2
   6   0 -15    6.82    1.72   7
  -6   0  15    7.25    1.70   2
   5   0 -15   12.12    2.18   2
  -5   0  15   14.02    1.95   2
   5   0 -15    9.49    1.89   7
   4   0 -15   -0.91    1.03   7
  -4   0  15   -0.08    0.95   2
   4   0 -15   -0.77    1.10   2
   3   0 -15   21.79    2.46   7
  -3   0  15   23.46    2.01   2
   3   0 -15   28.52    2.82   2
  -3   0  15   24.41    2.54   3
   2   0 -15   20.73    2.43   2
  -2   0  15   17.36    2.10   3
   2   0 -15   13.80    2.08   7
   1   0 -15  195.30    7.15   7
  -1   0  15  212.52    7.22   3
   0   0 -15    0.53    1.07   7
   0   0 -15    3.95    1.37   1
   0   0  15    3.43    1.26   3
   1   0  15   27.31    2.40   3
   1   0  15   23.63    2.11   3
  -1   0 -15   22.49    2.26   1
  -1   0 -15   25.39    2.35   7
  -2   0 -15    6.25    1.52   1
  -2   0 -15    5.62    1.40   7
   2   0  15    6.84    1.23   3
  -3   0 -15    1.96    1.15   7
  -3   0 -15    0.98    1.18   1
  -4   0 -15    1.03    1.09   1
  -4   0 -15    3.79    1.25   7
  -5   0 -15   30.53    2.31   1
  -5   0 -15   28.55    2.29   7
  -6   0 -15    0.97    1.15   1
  -6   0 -15    2.44    1.17   1
  -6   0 -15    1.99    1.08   7
  -7   0 -15   13.46    1.77   1
  -7   0 -15   10.45    1.53   1
  -7   0 -15   15.51    1.76   7
  10   1 -15    8.48    2.37   2
  10  -1 -15   13.13    2.58   2
 -10  -1  15    9.84    2.83   6
 -10   1  15    8.84    2.11   2
 -10  -1  15   11.08    2.39   2
   9   1 -15    8.67    2.26   2
  -9   1  15   10.39    2.25   2
   9  -1 -15   11.97    2.50   2
  -9  -1  15   14.74    2.47   2
  -9  -1  15   20.64    3.39   6
  -8   1  15    4.28    1.72   2
   8   1 -15    6.80    1.99   7
   8   1 -15    4.46    1.88   2
  -8  -1  15    4.80    1.62   2
  -8  -1  15    4.10    2.19   6
   8  -1 -15    3.34    1.67   2
  -7  -1  15   10.12    1.98   2
  -7  -1  15   10.66    2.67   6
   7  -1 -15    4.51    1.71   7
  -7   1  15    9.67    2.00   2
   7   1 -15   10.15    2.21   2
  -7  -1  15    6.25    1.90   5
   7   1 -15    5.14    1.75   7
   7  -1 -15   11.14    2.25   2
  -6  -1  15   12.21    2.73   6
  -6  -1  15   17.22    2.55   5
   6  -1 -15   13.03    2.40   7
  -6  -1  15   14.55    2.08   2
   6   1 -15    7.63    2.06   2
   6  -1 -15   10.55    2.14   2
  -6   1  15   11.53    2.02   2
   6   1 -15   13.29    2.27   7
   5   1 -15   10.25    2.11   2
   5  -1 -15    5.75    1.83   7
  -5   1  15    6.61    1.64   2
   5  -1 -15    5.20    1.69   2
  -5  -1  15    4.43    1.68   5
  -5  -1  15    7.38    1.57   2
   5   1 -15    5.81    1.76   7
  -5  -1  15    2.68    1.81   6
   4  -1 -15   12.50    2.27   2
   4   1 -15   11.81    2.26   2
  -4  -1  15   15.42    2.28   5
  -4   1  15   14.76    1.93   2
   4   1 -15   12.75    2.11   7
   4  -1 -15   14.14    2.28   7
  -4  -1  15   14.83    1.84   2
   3  -1 -15    7.90    1.80   7
  -3   1  15    6.32    1.42   2
  -3  -1  15    5.83    1.24   2
   3  -1 -15    3.05    1.49   2
  -3  -1  15    5.12    1.59   5
  -3  -1  15    8.05    1.86   3
   3   1 -15    9.39    1.87   7
   3   1 -15    8.28    1.88   2
   2   1 -15   33.38    2.90   2
  -2   1  15   33.98    2.30   2
  -2  -1  15   34.30    2.85   5
  -2  -1  15   31.09    2.77   3
   2  -1 -15   34.45    3.12   2
   2  -1 -15   35.23    3.03   7
  -2   1  15   36.05    2.95   3
   2   1 -15   31.84    2.75   7
   1  -1 -15   36.13    3.03   2
   1   1 -15   33.88    2.80   7
   1  -1 -15   36.22    2.88   7
  -1   1  15   33.20    2.82   3
  -1  -1  15   39.81    2.95   5
  -1  -1  15   35.52    2.83   3
   0   1 -15   95.42    4.50   1
   0   1  15   94.98    4.47   3
   0   1 -15   98.84    4.58   7
   0  -1 -15   94.09    4.61   7
  -1   1 -15   22.36    2.28   1
   1  -1  15   25.03    2.13   3
  -1   1 -15   21.16    2.24   7
   1   1  15   26.05    2.31   3
  -1  -1 -15   23.57    2.43   7
  -2   1 -15   39.74    2.79   7
  -2  -1 -15   38.19    2.98   1
  -2   1 -15   38.95    2.84   1
  -2  -1 -15   32.57    2.73   7
   2   1  15   37.42    2.58   3
   2  -1  15   35.58    2.11   3
  -3   1 -15   10.16    1.71   1
   3   1  15   10.57    1.45   3
  -3  -1 -15   12.16    1.99   1
  -3  -1 -15   11.45    1.92   7
  -3   1 -15   10.29    1.62   7
  -4  -1 -15   36.57    2.88   7
  -4  -1 -15   31.86    2.86   1
  -4   1 -15   35.39    2.57   7
  -4   1 -15   37.64    2.64   1
  -5   1 -15   26.32    2.19   7
  -5  -1 -15   27.20    2.52   7
  -5  -1 -15   28.29    2.67   1
  -5   1 -15   25.12    2.21   1
  -6   1 -15   24.61    2.09   1
  -6  -1 -15   21.10    2.42   1
  -6   1 -15   26.01    2.11   1
  -6  -1 -15   23.21    2.43   7
  -6   1 -15   22.95    2.00   7
  -9  -2  15    4.14    2.43   6
  -9   2  15    6.70    2.01   2
   9  -2 -15    5.99    2.06   2
   9   2 -15    3.81    2.02   2
  -9  -2  15    9.90    2.37   2
   8   2 -15    3.85    1.84   2
  -8  -2  15    3.93    2.29   6
   8   2 -15    2.19    1.75   7
  -8  -2  15    1.26    1.44   2
   8  -2 -15    1.55    1.62   2
  -8   2  15    1.60    1.53   2
  -8  -2  15   -1.45    1.48   5
  -7   2  15    6.48    1.94   2
   7  -2 -15    3.31    1.81   2
  -7  -2  15    7.96    2.02   2
   7   2 -15    3.40    1.81   7
  -7  -2  15    6.02    2.03   5
   7   2 -15    3.55    1.91   2
  -7  -2  15    9.71    2.74   6
  -6  -2  15    4.66    1.83   5
  -6  -2  15    6.84    2.52   6
  -6  -2  15    6.38    1.85   2
   6  -2 -15    5.70    1.98   2
  -6   2  15    6.40    1.85   2
   6   2 -15    6.63    1.96   7
   6  -2 -15    8.08    2.33   7
   6   2 -15   12.19    2.54   2
  -5  -2  15   14.34    2.14   2
   5   2 -15   14.77    2.65   2
  -5   2  15   13.36    2.23   2
  -5  -2  15   14.65    3.01   6
  -5  -2  15   16.58    2.62   5
   5   2 -15   16.45    2.56   7
   5  -2 -15   15.22    2.55   2
   5  -2 -15   14.96    2.67   7
  -4   2  15   23.88    2.53   2
   4  -2 -15   17.99    2.66   2
  -4  -2  15   26.29    3.57   6
   4   2 -15   22.42    3.03   2
  -4  -2  15   20.98    2.25   2
  -4  -2  15   20.00    2.76   5
   4   2 -15   23.44    2.83   7
   4  -2 -15   20.30    2.84   7
   3   2 -15    1.52    1.48   2
   3   2 -15    0.22    1.35   7
   3  -2 -15    0.68    1.46   7
  -3  -2  15    0.58    1.69   6
  -3   2  15    0.55    1.12   2
   3  -2 -15   -0.49    1.24   2
  -3  -2  15    0.54    1.19   5
   2   2 -15    3.39    1.53   7
   2  -2 -15    1.52    1.43   2
  -2   2  15    2.82    1.33   2
   2  -2 -15    2.89    1.54   7
  -2  -2  15    3.92    1.60   5
   1  -2 -15    3.48    1.55   7
   1   2 -15    5.54    1.73   7
  -1  -2  15    5.30    1.63   5
   1  -2 -15    4.46    1.81   2
   0  -2 -15    5.45    1.87   7
   0  -2  15    5.42    1.66   5
   0   2 -15    6.36    1.69   7
   0   2  15    9.72    2.00   3
   0  -2 -15   11.74    2.22   2
  -1  -2 -15   10.54    2.28   7
   1   2  15   18.61    2.35   3
   1  -2  15   15.75    2.15   5
  -1   2 -15   16.08    2.34   1
  -1   2 -15   13.57    2.15   7
  -1   2 -15   15.18    2.29   1
   2  -2  15   11.96    1.93   5
  -2  -2 -15   10.20    2.23   7
   2  -2  15    9.16    1.27   3
  -2   2 -15   12.11    2.00   7
  -2   2 -15   14.23    2.17   1
   3  -2  15    0.38    1.10   5
  -3  -2 -15    0.82    1.41   7
  -3   2 -15    0.15    1.16   7
  -3   2 -15    0.19    1.35   1
  -4  -2 -15    7.80    2.02   7
  -4   2 -15    9.98    1.94   1
  -4   2 -15    6.86    1.74   7
   4  -2  15    7.88    1.61   5
  -4   3  15    3.91    1.85   2
   4   3 -15    3.97    2.15   2
  -4  -3  15    3.64    2.31   6
  -4  -3  15    7.05    2.31   5
   4  -3 -15    3.88    2.20   7
   4   3 -15    5.96    2.09   7
   4  -3 -15    3.03    1.83   2
   3  -3 -15    5.46    2.07   2
   3   3 -15    4.68    1.93   7
  -3  -3  15    8.31    2.23   5
  -3  -3  15    9.06    2.76   6
   3   3 -15    5.82    2.28   2
  -3   3  15    5.80    1.92   2
   3  -3 -15    5.58    2.25   7
  -2   3  15    0.99    1.45   2
   2  -3 -15    1.80    1.88   2
   2   3 -15    0.96    1.60   7
  -2  -3  15    0.12    2.01   6
   2  -3 -15   -0.88    1.51   7
   1  -3 -15    5.72    2.22   7
   1   3 -15    3.92    1.82   7
  -1   3  15    5.96    1.73   2
   1  -3 -15    4.88    2.00   2
   0  -3 -15   11.78    2.69   7
   0  -3 -15    7.34    2.27   2
   0   3 -15    6.33    2.13   7
 -10   0  16    1.50    1.46   2
 -10   0  16    2.07    2.03   6
  10   0 -16    0.10    1.73   2
  -9   0  16   10.00    2.26   2
   9   0 -16    2.72    1.82   2
   8   0 -16   17.00    2.79   2
   8   0 -16   22.56    2.94   7
  -8   0  16   22.84    2.74   2
  -7   0  16   -2.12    0.95   2
   7   0 -16    1.81    1.59   2
   7   0 -16   -0.17    1.21   7
   6   0 -16   28.24    3.08   7
   6   0 -16   33.03    3.34   2
  -6   0  16   28.31    2.69   2
   5   0 -16    4.01    1.75   2
   5   0 -16    0.11    1.27   7
  -5   0  16    1.51    1.23   2
  -4   0  16    5.79    1.50   2
   4   0 -16    9.63    2.04   7
   4   0 -16    8.88    2.02   2
   3   0 -16   44.87    3.48   2
  -3   0  16   44.01    3.38   3
   3   0 -16   37.41    3.14   7
  -3   0  16   42.36    2.57   2
   2   0 -16    2.28    1.38   7
   2   0 -16    0.45    1.24   2
  -2   0  16    3.45    1.40   3
   1   0 -16   59.51    3.70   7
  -1   0  16   58.72    3.63   3
   0   0 -16   54.27    3.46   7
   0   0  16   59.47    3.46   3
   1   0  16    5.48    1.39   3
  -1   0 -16    6.49    1.64   1
  -1   0 -16    3.86    1.42   7
  -2   0 -16   20.77    2.23   1
  -2   0 -16   14.52    2.01   7
  -3   0 -16    2.25    1.25   7
  -3   0 -16    1.95    1.26   1
  -4   0 -16    9.17    1.67   1
  -4   0 -16    9.69    1.71   7
  -5   0 -16    1.57    1.10   7
  -5   0 -16    2.35    1.29   1
  -6   0 -16    4.16    1.34   7
  -6   0 -16    4.13    1.41   1
   9   1 -16    0.73    1.64   2
  -9  -1  16    0.57    1.56   2
  -9  -1  16    0.18    1.89   6
   9  -1 -16   -0.08    1.50   2
  -9   1  16    2.96    1.75   2
   8  -1 -16    0.58    1.44   2
   8   1 -16    0.48    1.57   2
  -8  -1  16    2.56    1.68   2
   8   1 -16    1.40    1.57   7
  -8  -1  16    4.26    2.17   6
  -8   1  16    3.41    1.64   2
   7  -1 -16    7.26    2.11   7
  -7  -1  16    1.99    1.40   2
  -7   1  16    3.77    1.63   2
   7   1 -16    0.81    1.41   7
   7   1 -16    3.55    1.80   2
   7  -1 -16    4.99    1.86   2
  -7  -1  16    5.30    2.28   6
   6   1 -16   -0.57    1.08   7
   6  -1 -16   -0.14    1.33   2
   6  -1 -16    2.25    1.65   7
  -6  -1  16    3.23    2.03   6
   6   1 -16    0.51    1.41   2
  -6   1  16    0.76    1.34   2
  -6  -1  16    1.91    1.36   2
   5   1 -16   13.01    2.33   7
   5  -1 -16   17.43    2.66   2
   5   1 -16   13.36    2.39   2
  -5  -1  16   10.59    1.81   2
   5  -1 -16   14.52    2.54   7
  -5   1  16   12.11    2.05   2
   4  -1 -16    2.04    1.59   2
   4   1 -16    1.56    1.30   7
   4   1 -16    0.69    1.47   2
   4  -1 -16    1.34    1.40   7
  -4  -1  16    4.17    1.34   2
  -4   1  16    1.11    1.20   2
   3   1 -16    9.83    2.12   2
   3  -1 -16   13.32    2.33   2
   3  -1 -16    9.93    2.08   7
  -3   1  16    6.88    1.56   2
   3   1 -16    7.03    1.87   7
  -3  -1  16    9.61    2.11   3
  -2   1  16    2.06    1.44   3
   2  -1 -16    2.15    1.37   7
   2  -1 -16    3.68    1.60   2
  -2  -1  16    2.57    1.47   3
   2   1 -16    2.40    1.34   7
  -1  -1  16   16.04    2.16   3
   1   1 -16   14.37    2.11   7
  -1   1  16   13.52    2.03   3
   1  -1 -16   15.75    2.42   2
   1  -1 -16   18.54    2.41   7
   0   1  16   53.47    3.43   3
   0   1 -16   53.62    3.45   7
   0  -1 -16   52.99    3.66   7
  -1  -1 -16   14.98    2.17   7
  -1   1 -16   17.46    2.18   7
   1   1  16   17.11    2.00   3
  -1   1 -16   17.48    2.28   1
   1  -1  16   15.82    1.90   3
  -2  -1 -16    2.21    1.45   7
  -2   1 -16    2.85    1.44   1
  -2   1 -16    3.37    1.35   7
  -3  -1 -16    7.55    1.80   1
  -3   1 -16    7.24    1.55   7
  -3  -1 -16    5.61    1.62   7
  -3   1 -16    4.89    1.50   1
  -4   1 -16    0.63    1.02   7
  -4   1 -16   -0.74    1.16   1
  -4  -1 -16    2.12    1.55   1
  -4  -1 -16   -0.89    1.11   7
  -5  -1 -16    0.54    1.22   7
  -5   1 -16    2.31    1.38   1
  -5  -1 -16    1.71    1.57   1
  -5   1 -16    2.75    1.26   7
   7   2 -16    0.14    1.53   7
  -7  -2  16   -0.27    1.49   5
  -7  -2  16    4.03    1.76   2
   7   2 -16    1.18    1.69   2
   7  -2 -16   -0.14    1.60   2
  -7   2  16    2.21    1.81   2
  -7  -2  16    2.89    2.31   6
  -6   2  16    5.40    1.94   2
   6   2 -16    4.09    2.12   2
   6  -2 -16    3.48    1.93   7
   6   2 -16    4.89    1.89   7
  -6  -2  16    5.74    2.40   6
  -6  -2  16    5.83    2.05   5
  -6  -2  16    5.00    1.81   2
   6  -2 -16    5.56    2.03   2
  -5  -2  16   12.40    2.06   2
  -5  -2  16   16.01    3.27   6
   5   2 -16   10.90    2.26   7
   5  -2 -16   12.32    2.48   2
  -5   2  16   11.28    2.15   2
   5   2 -16    7.39    2.29   2
  -5  -2  16   16.21    2.82   5
   5  -2 -16   13.68    2.71   7
   4  -2 -16   -0.25    1.46   2
  -4   2  16    0.99    1.36   2
   4   2 -16   -0.10    1.31   7
  -4  -2  16    0.11    1.95   6
   4  -2 -16   -0.54    1.44   7
   4   2 -16   -0.17    1.52   2
  -4  -2  16    3.58    1.70   5
   3  -2 -16    6.51    2.05   2
  -3   2  16    4.10    1.56   2
   3   2 -16    7.81    2.23   2
   3   2 -16    7.10    1.91   7
  -3  -2  16    3.62    1.63   5
   3  -2 -16    5.44    1.88   7
   2  -2 -16    3.09    1.72   2
  -2  -2  16    0.90    1.42   5
   2  -2 -16    1.75    1.51   7
  -2   2  16    1.77    1.29   2
   2   2 -16   -0.44    1.19   7
  -1  -2  16    0.06    1.26   5
   1  -2 -16    0.08    1.50   2
   1  -2 -16    1.39    1.47   7
   1   2 -16    2.50    1.38   7
   0  -2  16    3.03    1.47   5
   0  -2 -16    3.97    1.91   2
   0   2 -16    2.73    1.52   7
   0  -2 -16    2.75    1.67   7
   0   2  16    1.28    1.55   3
  -1  -2 -16   16.66    2.72   7
  -1   2 -16   15.75    2.35   7
   1  -2  16   19.96    2.44   5
  -2   2 -16    7.69    2.01   1
  -2  -2 -16    5.60    1.95   7
  -2   2 -16   11.11    2.15   7
   2  -2  16    6.38    1.68   5
  -3   2 -16    0.21    1.23   7
   3  -2  16    0.43    1.31   5
  -3  -2 -16    3.82    1.76   7
  -3   2 -16    0.21    1.49   1
  -9   0  17   18.40    2.76   2
   9   0 -17   22.69    3.20   2
   8   0 -17    0.91    1.69   2
  -8   0  17    0.95    1.43   2
   8   0 -17   -0.09    1.47   7
   7   0 -17    0.19    1.48   7
  -7   0  17    0.21    1.36   2
   7   0 -17    1.04    1.59   2
  -6   0  17   -0.58    1.22   2
   6   0 -17    1.03    1.62   2
   6   0 -17    0.29    1.39   7
   5   0 -17    2.86    1.46   7
  -5   0  17   -0.97    1.07   2
   5   0 -17    1.94    1.58   2
   4   0 -17    5.34    1.93   2
   4   0 -17    2.42    1.54   7
  -4   0  17    4.52    1.40   2
   3   0 -17   -1.19    1.25   2
  -3   0  17    1.74    1.44   3
   3   0 -17    3.11    1.44   7
   2   0 -17    3.88    1.63   7
  -2   0  17    4.64    1.66   3
   1   0 -17   36.84    3.13   7
  -1   0  17   39.38    3.16   3
   0   0  17   56.16    3.56   3
   0   0 -17   55.59    3.67   7
  -1   0 -17    1.54    1.26   7
  -2   0 -17    0.86    1.21   7
  -2   0 -17   -0.29    1.34   1
  -3   0 -17    8.07    1.69   7
  -3   0 -17   10.81    1.87   1
  -4   0 -17    0.89    1.31   1
  -4   0 -17   -0.09    1.01   7
   8  -1 -17    9.29    2.49   2
  -8  -1  17   10.85    2.33   2
   8   1 -17    8.22    2.33   7
  -8   1  17   10.35    2.26   2
   8   1 -17    9.89    2.55   2
  -8  -1  17   10.51    2.89   6
   7  -1 -17    6.14    2.08   2
   7   1 -17    6.14    2.04   7
  -7  -1  17    8.08    2.02   2
   7   1 -17    7.77    2.27   2
  -7   1  17    7.95    2.11   2
   7  -1 -17    4.93    1.88   7
  -7  -1  17    7.51    2.54   6
   6   1 -17    9.12    2.36   2
   6   1 -17    4.30    1.74   7
   6  -1 -17    3.53    1.86   2
   6  -1 -17    0.68    1.37   7
  -6   1  17    4.42    1.72   2
  -6  -1  17    4.50    1.64   2
   5   1 -17   18.67    2.76   7
   5  -1 -17   27.63    3.28   7
  -5  -1  17   29.36    2.59   2
   5  -1 -17   22.41    2.99   2
  -5   1  17   25.25    2.66   2
   5   1 -17   25.05    3.17   2
   4  -1 -17    0.39    1.41   7
   4   1 -17    0.15    1.22   7
   4  -1 -17   -1.45    1.29   2
  -4   1  17    1.74    1.31   2
   4   1 -17    0.16    1.40   2
   3  -1 -17    1.44    1.43   7
   3   1 -17    0.33    1.28   7
  -3  -1  17    1.55    1.52   3
   3  -1 -17    1.50    1.60   2
   3   1 -17    0.04    1.48   2
  -2  -1  17   19.15    2.55   3
   2  -1 -17   26.61    2.95   7
   2   1 -17   20.94    2.62   7
   2  -1 -17   25.00    3.00   2
  -1   1  17    1.21    1.36   3
   1  -1 -17    3.97    1.64   7
   1   1 -17    4.35    1.57   7
  -1  -1  17    0.84    1.39   3
   0   1  17   69.76    4.03   3
   0  -1 -17   63.35    4.06   7
   0   1 -17   61.59    3.92   7
  -1   1 -17   10.76    1.97   7
  -1   1 -17   10.88    2.05   1
  -1  -1 -17    7.19    1.86   7
  -2  -1 -17    7.97    1.91   7
  -2   1 -17    7.87    1.76   7
  -2   1 -17   10.98    2.03   1
  -3   1 -17    3.59    1.45   7
  -3  -1 -17    3.66    1.51   7
  -3   1 -17    3.26    1.53   1
   5  -2 -17    4.48    2.09   2
  -5  -2  17    5.71    2.12   5
   5  -2 -17    7.30    2.26   7
   5   2 -17    6.43    2.01   7
  -5   2  17    6.54    2.07   2
  -5  -2  17    5.95    2.65   6
   5   2 -17    3.39    2.14   2
   4  -2 -17   16.92    2.89   2
   4  -2 -17   20.90    3.14   7
  -4   2  17   17.37    2.45   2
   4   2 -17   17.73    2.84   7
  -4  -2  17   18.20    2.91   5
   4   2 -17   16.72    3.02   2
  -3   2  17    1.29    1.41   2
  -3  -2  17    2.36    1.63   5
   3  -2 -17    0.23    1.54   7
   3  -2 -17   -0.13    1.51   2
   3   2 -17    2.10    1.53   7
   2   2 -17    4.20    1.71   7
   2  -2 -17    3.10    1.84   2
   2  -2 -17    2.84    1.72   7
  -2  -2  17    3.24    1.75   5
   1   2 -17    9.05    2.13   7
  -1  -2  17   13.49    2.50   5
   1  -2 -17    8.27    2.33   2
   1  -2 -17   12.19    2.55   7
   0   2 -17   12.90    2.36   7
   0  -2 -17    9.48    2.46   7
  -1  -2 -17   29.18    3.46   7
  -1   2 -17   29.52    3.04   7
   7   0 -18   19.70    2.98   7
  -7   0  18   24.78    2.88   2
   7   0 -18   17.65    3.00   2
  -6   0  18   -1.62    1.25   2
   6   0 -18    1.53    1.75   2
   6   0 -18   -0.37    1.34   7
   5   0 -18    4.86    2.08   2
   5   0 -18    3.39    1.64   7
  -5   0  18    5.37    1.66   2
   4   0 -18   11.89    2.37   7
   4   0 -18   13.57    2.63   2
   3   0 -18   -1.57    1.18   7
   3   0 -18    1.64    1.71   2
   2   0 -18    0.45    1.25   7
  -2   0  18    2.27    1.56   3
   1   0 -18   10.35    2.14   7
   0   0 -18    5.44    1.67   7
  -1   0 -18   -0.19    1.16   7
  -2   0 -18    0.44    1.10   7
   6   1 -18    0.76    1.77   2
   6  -1 -18    1.94    1.71   7
  -6  -1  18   -0.86    1.29   2
  -6   1  18   -0.32    1.44   2
   6   1 -18    0.25    1.49   7
   6  -1 -18    0.99    1.64   2
   5   1 -18    4.24    2.05   2
   5   1 -18    4.58    1.86   7
   5  -1 -18    3.31    1.83   7
   5  -1 -18    2.53    1.87   2
  -5   1  18    3.76    1.74   2
   4   1 -18    3.98    1.89   7
   4  -1 -18    5.11    2.00   2
   4   1 -18    0.86    1.78   2
  -4   1  18    6.63    1.68   2
   4  -1 -18    6.38    2.08   7
   3  -1 -18    3.88    2.05   2
   3   1 -18    5.70    1.89   7
   3  -1 -18    7.09    2.09   7
   2  -1 -18    1.44    1.51   7
   2  -1 -18   -0.30    1.56   2
   2   1 -18    2.84    1.55   7
   1  -1 -18    2.19    1.53   7
   1   1 -18    0.65    1.29   7
   0  -1 -18    7.35    2.01   7
   0   1 -18   11.98    2.23   7
  -1   1 -18    7.11    1.84   7
  -1  -1 -18    4.54    1.80   7
   4   0 -19    1.66    1.62   7
   4   0 -19    2.34    1.79   2
   3   0 -19    5.21    1.85   7
   3   0 -19    5.46    2.22   2
   2   0 -19    3.17    1.69   7
   1   0 -19    3.87    1.66   7
   0   0   0    0.00    0.00   0
;
_shelx_hkl_checksum              87472
loop_
_space_group_symop_operation_xyz
'x, y, z'
'-x, y+1/2, -z'
loop_
_atom_site_label
_atom_site_type_symbol
_atom_site_fract_x
_atom_site_fract_y
_atom_site_fract_z
_atom_site_U_iso_or_equiv
_atom_site_adp_type
_atom_site_occupancy
_atom_site_site_symmetry_order
_atom_site_calc_flag
_atom_site_refinement_flags_posn
_atom_site_refinement_flags_adp
O1 O 0.21179(12) 0.4711(5) 0.76395(10) 0.0526(5) Uani 1 1 d . .
O2 O 0.20048(13) 0.6957(6) 0.62946(11) 0.0720(6) Uani 1 1 d . .
N1 N 0.88759(14) 0.0379(5) 0.65775(12) 0.0500(5) Uani 1 1 d . .
N2 N 0.38702(14) 0.2584(5) 0.78770(11) 0.0452(4) Uani 1 1 d . .
C1 C 0.9515(2) -0.1153(8) 0.73453(16) 0.0616(7) Uani 1 1 d . .
H1A H 0.9223 -0.3356 0.7422 0.092 Uiso 1 1 calc R U
H1B H 0.9461 0.0202 0.7846 0.092 Uiso 1 1 calc R U
H1C H 1.0288 -0.1327 0.7280 0.092 Uiso 1 1 calc R U
C2 C 0.9452(2) 0.1201(8) 0.58612(18) 0.0653(8) Uani 1 1 d . .
H2A H 0.9505 0.3598 0.5811 0.098 Uiso 1 1 calc R U
H2B H 0.9041 0.0298 0.5329 0.098 Uiso 1 1 calc R U
H2C H 1.0193 0.0250 0.5970 0.098 Uiso 1 1 calc R U
C3 C 0.77797(16) 0.1258(5) 0.65420(13) 0.0395(5) Uani 1 1 d . .
C4 C 0.72070(17) 0.0416(6) 0.72296(13) 0.0419(5) Uani 1 1 d . .
H4 H 0.7583 -0.0762 0.7709 0.050 Uiso 1 1 calc R U
C5 C 0.61069(16) 0.1308(5) 0.72026(13) 0.0417(5) Uani 1 1 d . .
H5 H 0.5751 0.0702 0.7662 0.050 Uiso 1 1 calc R U
C6 C 0.55067(16) 0.3106(5) 0.65007(12) 0.0381(5) Uani 1 1 d . .
C7 C 0.60770(17) 0.3890(6) 0.58175(13) 0.0420(5) Uani 1 1 d . .
H7 H 0.5698 0.5066 0.5339 0.050 Uiso 1 1 calc R U
C8 C 0.71736(17) 0.2989(5) 0.58275(13) 0.0423(5) Uani 1 1 d . .
H8 H 0.7518 0.3531 0.5357 0.051 Uiso 1 1 calc R U
C9 C 0.43727(17) 0.4252(6) 0.64534(14) 0.0429(5) Uani 1 1 d . .
H9 H 0.4069 0.5318 0.5934 0.051 Uiso 1 1 calc R U
C10 C 0.36766(17) 0.4032(6) 0.70400(13) 0.0438(5) Uani 1 1 d . .
C11 C 0.25521(18) 0.5429(7) 0.68868(14) 0.0510(6) Uani 1 1 d . .
C12 C 0.29679(16) 0.3043(6) 0.81865(13) 0.0440(5) Uani 1 1 d . .
C13 C 0.27432(17) 0.2063(6) 0.90362(14) 0.0455(5) Uani 1 1 d . .
C14 C 0.3582(2) 0.0507(7) 0.96232(15) 0.0559(6) Uani 1 1 d . .
H14 H 0.4272 0.0054 0.9462 0.067 Uiso 1 1 calc R U
C15 C 0.3400(3) -0.0374(7) 1.04438(16) 0.0653(7) Uani 1 1 d . .
H15 H 0.3970 -0.1370 1.0840 0.078 Uiso 1 1 calc R U
C16 C 0.2365(3) 0.0236(7) 1.06731(17) 0.0661(7) Uani 1 1 d . .
H16 H 0.2232 -0.0405 1.1220 0.079 Uiso 1 1 calc R U
C17 C 0.1532(2) 0.1782(8) 1.00971(16) 0.0634(7) Uani 1 1 d . .
H17 H 0.0842 0.2210 1.0260 0.076 Uiso 1 1 calc R U
C18 C 0.17092(19) 0.2707(7) 0.92783(15) 0.0541(6) Uani 1 1 d . .
H18 H 0.1141 0.3753 0.8891 0.065 Uiso 1 1 calc R U
loop_
_atom_site_aniso_label
_atom_site_aniso_U_11
_atom_site_aniso_U_22
_atom_site_aniso_U_33
_atom_site_aniso_U_23
_atom_site_aniso_U_13
_atom_site_aniso_U_12
O1 0.0370(8) 0.0719(12) 0.0500(8) 0.0076(8) 0.0103(6) 0.0120(8)
O2 0.0498(9) 0.1078(17) 0.0583(10) 0.0248(11) 0.0094(8) 0.0268(11)
N1 0.0363(9) 0.0626(13) 0.0517(11) 0.0039(10) 0.0095(8) 0.0087(9)
N2 0.0399(9) 0.0532(11) 0.0427(9) 0.0035(9) 0.0075(7) 0.0055(9)
C1 0.0447(12) 0.0705(18) 0.0669(15) 0.0030(14) 0.0024(11) 0.0136(12)
C2 0.0479(13) 0.081(2) 0.0727(17) 0.0069(15) 0.0257(12) 0.0110(13)
C3 0.0370(10) 0.0388(12) 0.0425(11) -0.0057(9) 0.0065(8) -0.0001(8)
C4 0.0426(11) 0.0441(12) 0.0383(10) -0.0008(10) 0.0057(8) 0.0046(10)
C5 0.0409(11) 0.0468(13) 0.0385(11) -0.0004(9) 0.0103(8) 0.0004(9)
C6 0.0375(10) 0.0389(12) 0.0373(10) -0.0032(9) 0.0051(8) -0.0002(9)
C7 0.0424(11) 0.0463(12) 0.0365(11) 0.0010(10) 0.0043(8) 0.0032(10)
C8 0.0425(11) 0.0462(13) 0.0398(10) -0.0004(10) 0.0117(8) -0.0024(10)
C9 0.0387(10) 0.0481(12) 0.0410(11) -0.0008(10) 0.0048(8) 0.0019(10)
C10 0.0372(10) 0.0498(12) 0.0430(11) -0.0003(10) 0.0029(8) 0.0054(10)
C11 0.0393(11) 0.0690(16) 0.0448(12) 0.0054(12) 0.0073(9) 0.0078(11)
C12 0.0371(10) 0.0476(13) 0.0459(11) -0.0008(10) 0.0036(9) 0.0041(10)
C13 0.0467(11) 0.0444(12) 0.0455(11) -0.0049(10) 0.0088(9) -0.0035(10)
C14 0.0544(13) 0.0591(16) 0.0545(14) 0.0051(12) 0.0102(11) 0.0047(12)
C15 0.0819(18) 0.0609(17) 0.0523(14) 0.0084(13) 0.0095(13) 0.0054(14)
C16 0.096(2) 0.0575(16) 0.0486(14) -0.0005(13) 0.0237(14) -0.0048(15)
C17 0.0698(15) 0.0660(17) 0.0608(15) -0.0060(14) 0.0292(13) -0.0037(14)
C18 0.0503(12) 0.0603(15) 0.0533(13) -0.0027(13) 0.0132(10) 0.0012(12)
loop_
_atom_type_symbol
_atom_type_description
_atom_type_scat_dispersion_real
_atom_type_scat_dispersion_imag
_atom_type_scat_source
C C 0.0033 0.0016 'International Tables Vol C Tables 4.2.6.8 and 6.1.1.4'
H H 0.0000 0.0000 'International Tables Vol C Tables 4.2.6.8 and 6.1.1.4'
N N 0.0061 0.0033 'International Tables Vol C Tables 4.2.6.8 and 6.1.1.4'
O O 0.0106 0.0060 'International Tables Vol C Tables 4.2.6.8 and 6.1.1.4'
loop_
_geom_angle_atom_site_label_1
_geom_angle_atom_site_label_2
_geom_angle_atom_site_label_3
_geom_angle
C12 O1 C11 105.50(15)
C3 N1 C1 121.29(19)
C3 N1 C2 120.35(19)
C1 N1 C2 118.20(18)
C12 N2 C10 105.99(17)
N1 C1 H1A 109.5
N1 C1 H1B 109.5
H1A C1 H1B 109.5
N1 C1 H1C 109.5
H1A C1 H1C 109.5
H1B C1 H1C 109.5
N1 C2 H2A 109.5
N1 C2 H2B 109.5
H2A C2 H2B 109.5
N1 C2 H2C 109.5
H2A C2 H2C 109.5
H2B C2 H2C 109.5
N1 C3 C8 121.90(19)
N1 C3 C4 120.70(18)
C8 C3 C4 117.40(17)
C5 C4 C3 121.14(19)
C5 C4 H4 119.4
C3 C4 H4 119.4
C4 C5 C6 121.66(19)
C4 C5 H5 119.2
C6 C5 H5 119.2
C5 C6 C7 116.78(18)
C5 C6 C9 124.31(19)
C7 C6 C9 118.89(18)
C8 C7 C6 122.46(19)
C8 C7 H7 118.8
C6 C7 H7 118.8
C7 C8 C3 120.54(19)
C7 C8 H8 119.7
C3 C8 H8 119.7
C10 C9 C6 130.4(2)
C10 C9 H9 114.8
C6 C9 H9 114.8
C9 C10 N2 129.16(18)
C9 C10 C11 122.83(19)
N2 C10 C11 108.00(18)
O2 C11 O1 120.71(19)
O2 C11 C10 134.0(2)
O1 C11 C10 105.25(18)
N2 C12 O1 115.26(18)
N2 C12 C13 127.80(19)
O1 C12 C13 116.94(17)
C14 C13 C18 119.5(2)
C14 C13 C12 119.3(2)
C18 C13 C12 121.2(2)
C15 C14 C13 120.5(2)
C15 C14 H14 119.8
C13 C14 H14 119.8
C14 C15 C16 119.5(3)
C14 C15 H15 120.2
C16 C15 H15 120.2
C17 C16 C15 120.3(2)
C17 C16 H16 119.9
C15 C16 H16 119.9
C16 C17 C18 120.6(2)
C16 C17 H17 119.7
C18 C17 H17 119.7
C17 C18 C13 119.6(2)
C17 C18 H18 120.2
C13 C18 H18 120.2
loop_
_geom_bond_atom_site_label_1
_geom_bond_atom_site_label_2
_geom_bond_distance
O1 C12 1.385(2)
O1 C11 1.396(3)
O2 C11 1.202(3)
N1 C3 1.363(3)
N1 C1 1.441(3)
N1 C2 1.453(3)
N2 C12 1.281(3)
N2 C10 1.407(3)
C1 H1A 0.9600
C1 H1B 0.9600
C1 H1C 0.9600
C2 H2A 0.9600
C2 H2B 0.9600
C2 H2C 0.9600
C3 C8 1.402(3)
C3 C4 1.414(3)
C4 C5 1.371(3)
C4 H4 0.9300
C5 C6 1.399(3)
C5 H5 0.9300
C6 C7 1.401(3)
C6 C9 1.435(3)
C7 C8 1.372(3)
C7 H7 0.9300
C8 H8 0.9300
C9 C10 1.349(3)
C9 H9 0.9300
C10 C11 1.450(3)
C12 C13 1.450(3)
C13 C14 1.387(3)
C13 C18 1.392(3)
C14 C15 1.380(3)
C14 H14 0.9300
C15 C16 1.382(4)
C15 H15 0.9300
C16 C17 1.372(4)
C16 H16 0.9300
C17 C18 1.380(3)
C17 H17 0.9300
C18 H18 0.9300
