#------------------------------------------------------------------------------
#$Date: 2015-06-18 10:05:30 +0300 (Thu, 18 Jun 2015) $
#$Revision: 139316 $
#$URL: svn://www.crystallography.net/cod/cif/7/22/07/7220792.cif $
#------------------------------------------------------------------------------
#
# This file is available in the Crystallography Open Database (COD),
# http://www.crystallography.net/
#
# All data on this site have been placed in the public domain by the
# contributors.
#
data_7220792
loop_
_publ_author_name
'Nemeth, Karoly'
'Unni, Aditya Krishnan'
'Kalnmals, Christopher'
'Segre, Carlo U.'
'Kaduk, James A.'
'Bloom, Ira'
'Maroni, Victor'
_publ_section_title
;
 The Synthesis of Ternary Acetylides with Tellurium: LiTeC2 and Na2TeC2
;
_journal_name_full               'RSC Adv.'
_journal_paper_doi               10.1039/C5RA08983B
_journal_year                    2015
_chemical_formula_sum            'C2 Li2 Te'
_chemical_formula_weight         165.50
_chemical_name_systematic        ' ?'
_chemical_properties_physical
'Air-sensitive, Moisture-sensitive, Hygroscopic, Heat-sensitive, Oxygen-sensitive, Pyrophoric'
_space_group_IT_number           164
_symmetry_cell_setting           trigonal
_symmetry_space_group_name_Hall  '-P 3 2"'
_symmetry_space_group_name_H-M   'P -3 m 1'
_audit_creation_date             2015-05-07T08:12
_audit_creation_method           'from EXP file using GSAS2CIF'
_audit_update_record
;
2015-05-13 deposited with the CCDC.
2015-06-17 downloaded from the CCDC.
;
_cell_angle_alpha                90.0
_cell_angle_beta                 90.0
_cell_angle_gamma                120.0
_cell_formula_units_Z            1
_cell_length_a                   6.2979(18)
_cell_length_b                   6.2979
_cell_length_c                   4.4984(10)
_cell_volume                     154.52(6)
_computing_structure_refinement  GSAS
_diffrn_radiation_polarisn_ratio 0.5
_diffrn_radiation_probe          x-ray
_exptl_absorpt_correction_T_max  1.00000
_exptl_absorpt_correction_T_min  1.00000
_exptl_absorpt_process_details
;   GSAS Absorption/surface roughness correction: function number 0
 No correction is applied.
;
_pd_block_id                     2015-05-07T08:12|JULY13|James_A._Kaduk|D2
_pd_calc_method                  'Rietveld Refinement'
_pd_instr_location               ' ?'
_pd_meas_2theta_range_inc        0.02021
_pd_meas_2theta_range_max        100.0036
_pd_meas_2theta_range_min        4.9978
_pd_meas_number_of_points        4701
_pd_phase_name                   'Li2 Te C2'
_pd_proc_2theta_range_inc        0.02021
_pd_proc_2theta_range_max        99.9136
_pd_proc_2theta_range_min        4.9078
_pd_proc_info_datetime           2015-05-07T08:12:06
_pd_proc_info_excluded_regions   ' ?'
_pd_proc_ls_background_function
;   GSAS Background function number 1 with  3 terms.
 Shifted Chebyshev function of 1st kind
      1:    1178.03     2:   -1306.96     3:    445.797    
;
_pd_proc_ls_peak_cutoff          0.01000
_pd_proc_ls_profile_function
;
 CW Profile function number 2 with  18 terms
 Profile coefficients for Simpson's rule integration of pseudovoigt function
 C.J. Howard (1982). J. Appl. Cryst.,15,615-620.
 P. Thompson, D.E. Cox & J.B. Hastings (1987). J. Appl. Cryst.,20,79-83.
 Peak tails are ignored  where the intensity is below 0.0100 times the peak
   Aniso. broadening axis   0.0   0.0   1.0
;
_pd_proc_ls_prof_R_factor        0.0426
_pd_proc_ls_prof_wR_expected     0.0283
_pd_proc_ls_prof_wR_factor       0.0627
_pd_proc_number_of_points        4701
_pd_spec_mounting                ' ?'
_refine_ls_goodness_of_fit_all   2.24
_refine_ls_matrix_type           full
_refine_ls_number_parameters     24
_refine_ls_number_restraints     1
_refine_ls_R_Fsqd_factor         0.79340
_refine_ls_shift/su_max          0.07
_refine_ls_shift/su_mean         0.01
_reflns_d_resolution_high        1.009
_reflns_d_resolution_low         5.454
_reflns_limit_h_max              5
_reflns_limit_h_min              0
_reflns_limit_k_max              3
_reflns_limit_k_min              0
_reflns_limit_l_max              4
_reflns_limit_l_min              -4
_reflns_number_total             150
_cod_data_source_file            c5ra08983b8.cif
_cod_data_source_block           JULY13_publ
_cod_depositor_comments
;
The following automatic conversions were performed:

'_geom_bond_publ_flag' value 'N' changed to 'n' according to
/usr/data/users/saulius/crontab/automatic-downloads/rss-feeds/RSC/lib/dictionaries/cif_core.dic
dictionary named 'cif_core.dic' version 2.4.2 from 2011-04-26 (7
times).

'_geom_angle_publ_flag' value 'N' changed to 'n' according to
/usr/data/users/saulius/crontab/automatic-downloads/rss-feeds/RSC/lib/dictionaries/cif_core.dic
dictionary named 'cif_core.dic' version 2.4.2 from 2011-04-26 (2
times).

Automatic conversion script
Id: cif_fix_values 3271 2015-04-21 07:52:19Z andrius 
;
_cod_original_cell_volume        154.52(9)
_cod_database_code               7220792
_gsas_exptl_extinct_corr_t_min   1.00000
_gsas_exptl_extinct_corr_t_max   1.00000
loop_
_symmetry_equiv_pos_site_id
_symmetry_equiv_pos_as_xyz
1 +x,+y,+z
2 -y,x-y,+z
3 y-x,-x,+z
4 y-x,+y,+z
5 -y,-x,+z
6 +x,x-y,+z
-1 -x,-y,-z
-2 +y,y-x,-z
-3 x-y,+x,-z
-4 x-y,-y,-z
-5 +y,+x,-z
-6 -x,y-x,-z
loop_
_atom_site_type_symbol
_atom_site_label
_atom_site_fract_x
_atom_site_fract_y
_atom_site_fract_z
_atom_site_occupancy
_atom_site_thermal_displace_type
_atom_site_U_iso_or_equiv
_atom_site_symmetry_multiplicity
Li Li1 0.33333 0.66667 0.282 1.0 Uiso 0.02 2
Te Te2 0.0 0.0 0.0 1.0 Uiso 0.143(6) 1
C C3 0.0 0.0 0.384 1.0 Uiso 0.02 2
loop_
_atom_type_symbol
_atom_type_number_in_cell
_atom_type_scat_dispersion_real
_atom_type_scat_dispersion_imag
_atom_type_scat_Cromer_Mann_a1
_atom_type_scat_Cromer_Mann_a2
_atom_type_scat_Cromer_Mann_a3
_atom_type_scat_Cromer_Mann_a4
_atom_type_scat_Cromer_Mann_b1
_atom_type_scat_Cromer_Mann_b2
_atom_type_scat_Cromer_Mann_b3
_atom_type_scat_Cromer_Mann_b4
_atom_type_scat_Cromer_Mann_c
_atom_type_scat_source
Li 2.0 0.000 0.000 1.12820 3.95460 0.75080 1.05240 0.61750 85.3905 0.46530
168.261 0.03770 International_Tables_Vol_C
Te 1.0 0.000 0.000 19.9644 4.81742 19.0138 0.42088 6.14487 28.5284 2.52390
70.8403 4.35200 International_Tables_Vol_C
C 2.0 0.000 0.000 2.31000 20.8439 1.02000 10.2075 1.58860 0.56870 0.86500
51.6512 0.21560 International_Tables_Vol_C
loop_
_diffrn_radiation_wavelength
_diffrn_radiation_wavelength_wt
_diffrn_radiation_type
_diffrn_radiation_wavelength_id
1.540629 1.000 K\a~1~ 1
1.544451 0.000 K\a~2~ 2
loop_
_geom_angle_atom_site_label_1
_geom_angle_atom_site_label_2
_geom_angle_atom_site_label_3
_geom_angle
_geom_angle_site_symmetry_1
_geom_angle_site_symmetry_3
_geom_angle_publ_flag
C3 Te2 C3 180.0 1_555 -1_555 n
Te2 C3 C3 180.0 1_555 -1_556 n
loop_
_geom_bond_atom_site_label_1
_geom_bond_atom_site_label_2
_geom_bond_distance
_geom_bond_site_symmetry_2
_geom_bond_publ_flag
Te2 C3 2.7710(6) 1_554 n
Te2 C3 1.7274(4) 1_555 n
Te2 C3 1.7274(4) -1_555 n
Te2 C3 2.7710(6) -1_556 n
C3 Te2 1.7274(4) 1_555 n
C3 Te2 2.7710(6) 1_556 n
C3 C3 1.04362(23) -1_556 n
loop_
_pd_meas_counts_total
_pd_proc_ls_weight
_pd_proc_intensity_bkg_calc
_pd_calc_intensity_total
9475.0 . . .
9082.0 . . .
8491.0 . . .
8424.0 . . .
8163.0 . . .
8150.0 . . .
7954.0 . . .
7858.0 . . .
7914.0 . . .
7809.0 . . .
7800.0 . . .
7791.0 . . .
7673.0 . . .
7628.0 . . .
7616.0 . . .
7532.0 . . .
7631.0 . . .
7428.0 . . .
7558.0 . . .
7564.0 . . .
7318.0 . . .
7406.0 . . .
7289.0 . . .
7234.0 . . .
7154.0 . . .
7185.0 . . .
7187.0 . . .
7240.0 . . .
7155.0 . . .
7066.0 . . .
7023.0 . . .
7119.0 . . .
6970.0 . . .
7029.0 . . .
6956.0 . . .
7185.0 . . .
6847.0 . . .
6938.0 . . .
7089.0 . . .
6835.0 . . .
7021.0 . . .
6840.0 . . .
6938.0 . . .
6764.0 . . .
6845.0 . . .
6688.0 . . .
6870.0 . . .
6814.0 . . .
6772.0 . . .
6628.0 . . .
6841.0 . . .
6734.0 . . .
6708.0 . . .
6661.0 . . .
6491.0 . . .
6522.0 . . .
6465.0 . . .
6631.0 . . .
6525.0 . . .
6342.0 . . .
6608.0 . . .
6484.0 . . .
6574.0 . . .
6291.0 . . .
6408.0 . . .
6592.0 . . .
6409.0 . . .
6363.0 . . .
6371.0 . . .
6397.0 . . .
6307.0 . . .
6366.0 . . .
6352.0 . . .
6414.0 . . .
6383.0 . . .
6307.0 . . .
6242.0 . . .
6154.0 . . .
6276.0 . . .
6257.0 . . .
6365.0 . . .
6379.0 . . .
6056.0 . . .
6133.0 . . .
6169.0 . . .
6109.0 . . .
6147.0 . . .
6119.0 . . .
6024.0 . . .
5859.0 . . .
6232.0 . . .
6079.0 . . .
6097.0 . . .
6171.0 . . .
6192.0 . . .
6091.0 . . .
6154.0 . . .
6215.0 . . .
6124.0 . . .
6048.0 . . .
6198.0 . . .
6068.0 . . .
5988.0 . . .
6000.0 . . .
6067.0 . . .
5977.0 . . .
6134.0 . . .
6255.0 . . .
6117.0 . . .
6025.0 . . .
6060.0 . . .
6121.0 . . .
6031.0 . . .
6044.0 . . .
6085.0 . . .
6072.0 . . .
6033.0 . . .
6049.0 . . .
6026.0 . . .
6140.0 . . .
6200.0 . . .
6045.0 . . .
6151.0 . . .
6043.0 . . .
6152.0 . . .
6119.0 . . .
5922.0 . . .
6030.0 . . .
6162.0 . . .
6251.0 . . .
6095.0 . . .
6091.0 . . .
6211.0 . . .
6034.0 . . .
6074.0 . . .
6034.0 . . .
6054.0 . . .
6162.0 . . .
6075.0 . . .
6154.0 . . .
6063.0 . . .
6219.0 . . .
5996.0 . . .
6141.0 . . .
6229.0 . . .
6078.0 . . .
6211.0 . . .
6149.0 . . .
6271.0 . . .
6249.0 . . .
6273.0 . . .
6238.0 . . .
6246.0 . . .
6265.0 . . .
6232.0 . . .
6253.0 . . .
6329.0 . . .
6227.0 . . .
6251.0 . . .
6431.0 . . .
6218.0 . . .
6334.0 . . .
6319.0 . . .
6263.0 . . .
6211.0 . . .
6207.0 . . .
6530.0 . . .
6377.0 . . .
6318.0 . . .
6446.0 . . .
6460.0 . . .
6332.0 . . .
6355.0 . . .
6396.0 . . .
6408.0 . . .
6304.0 . . .
6375.0 . . .
6361.0 . . .
6429.0 . . .
6403.0 . . .
6414.0 . . .
6333.0 . . .
6292.0 . . .
6449.0 . . .
6428.0 . . .
6272.0 . . .
6280.0 . . .
6297.0 . . .
6496.0 . . .
6569.0 . . .
6513.0 . . .
6449.0 . . .
6624.0 . . .
6574.0 . . .
6578.0 . . .
6651.0 . . .
6594.0 . . .
6719.0 . . .
6648.0 . . .
6713.0 . . .
6744.0 . . .
6884.0 . . .
6697.0 . . .
6767.0 . . .
6854.0 . . .
6938.0 . . .
7007.0 . . .
7137.0 . . .
7066.0 . . .
7288.0 . . .
7205.0 . . .
7179.0 . . .
7301.0 . . .
7474.0 . . .
7314.0 . . .
7636.0 . . .
7409.0 . . .
7461.0 . . .
7553.0 . . .
7710.0 . . .
7607.0 . . .
7666.0 . . .
7760.0 . . .
7703.0 . . .
7695.0 . . .
7992.0 . . .
7794.0 . . .
7810.0 . . .
7972.0 . . .
7997.0 . . .
8107.0 . . .
8008.0 . . .
8164.0 . . .
8250.0 . . .
8210.0 . . .
8110.0 . . .
8451.0 . . .
8124.0 . . .
8367.0 . . .
8201.0 . . .
8289.0 . . .
8307.0 . . .
8337.0 . . .
8348.0 . . .
8394.0 . . .
8490.0 . . .
8340.0 . . .
8374.0 . . .
8540.0 . . .
8467.0 . . .
8303.0 . . .
8577.0 . . .
8355.0 . . .
8522.0 . . .
8493.0 . . .
8539.0 . . .
8432.0 . . .
8428.0 . . .
8549.0 . . .
8451.0 . . .
8478.0 . . .
8490.0 . . .
8495.0 . . .
8503.0 . . .
8644.0 . . .
8653.0 . . .
8448.0 . . .
8632.0 . . .
8590.0 . . .
8668.0 . . .
8792.0 . . .
8494.0 . . .
8748.0 . . .
8508.0 . . .
8556.0 . . .
8480.0 . . .
8655.0 . . .
8433.0 . . .
8718.0 . . .
8727.0 . . .
8761.0 . . .
8392.0 . . .
8688.0 . . .
8611.0 . . .
8715.0 . . .
8445.0 . . .
8559.0 . . .
8347.0 . . .
8437.0 . . .
8380.0 . . .
8511.0 . . .
8224.0 . . .
8353.0 . . .
8426.0 . . .
8141.0 . . .
8066.0 . . .
8027.0 . . .
8061.0 . . .
7873.0 . . .
8053.0 . . .
7781.0 . . .
7744.0 . . .
7585.0 . . .
7766.0 . . .
7522.0 . . .
7512.0 . . .
7607.0 . . .
7439.0 . . .
7472.0 . . .
7161.0 . . .
7407.0 . . .
7161.0 . . .
7174.0 . . .
7216.0 . . .
6741.0 . . .
7146.0 . . .
6905.0 . . .
6965.0 . . .
6964.0 . . .
6938.0 . . .
6736.0 . . .
6669.0 . . .
6745.0 . . .
6506.0 . . .
6707.0 . . .
6628.0 . . .
6556.0 . . .
6602.0 . . .
6294.0 . . .
6553.0 . . .
6375.0 . . .
6435.0 . . .
6318.0 . . .
6357.0 . . .
6182.0 . . .
6144.0 . . .
6193.0 . . .
6164.0 . . .
5999.0 . . .
6034.0 . . .
6120.0 . . .
6014.0 . . .
5792.0 . . .
5957.0 . . .
5784.0 . . .
6053.0 . . .
6002.0 . . .
5884.0 . . .
5809.0 . . .
5724.0 . . .
5653.0 . . .
5835.0 . . .
5702.0 . . .
5554.0 . . .
5707.0 . . .
5740.0 . . .
5598.0 . . .
5550.0 . . .
5484.0 . . .
5799.0 . . .
5605.0 . . .
5472.0 . . .
5539.0 . . .
5392.0 . . .
5466.0 . . .
5612.0 . . .
5521.0 . . .
5480.0 . . .
5284.0 . . .
5327.0 . . .
5408.0 . . .
5400.0 . . .
5415.0 . . .
5417.0 . . .
5348.0 . . .
5353.0 . . .
5381.0 . . .
5293.0 . . .
5244.0 . . .
5235.0 . . .
5419.0 . . .
5304.0 . . .
5391.0 . . .
5409.0 . . .
5328.0 . . .
5222.0 . . .
5210.0 . . .
5208.0 . . .
5340.0 . . .
5453.0 . . .
5350.0 . . .
5548.0 . . .
5589.0 . . .
5613.0 . . .
5487.0 . . .
5526.0 . . .
5386.0 . . .
5475.0 . . .
5603.0 . . .
5459.0 . . .
5374.0 . . .
5441.0 . . .
5277.0 . . .
5177.0 . . .
5195.0 . . .
5204.0 . . .
5154.0 . . .
5003.0 . . .
4988.0 . . .
4822.0 . . .
4965.0 . . .
4887.0 . . .
4731.0 . . .
4662.0 . . .
4696.0 . . .
4699.0 . . .
4701.0 . . .
4702.0 . . .
4797.0 . . .
4632.0 . . .
4593.0 . . .
4631.0 . . .
4557.0 . . .
4532.0 . . .
4560.0 . . .
4408.0 . . .
4524.0 . . .
4439.0 . . .
4525.0 . . .
4439.0 . . .
4305.0 . . .
4362.0 . . .
4276.0 . . .
4505.0 . . .
4481.0 . . .
4417.0 . . .
4302.0 . . .
4353.0 . . .
4246.0 . . .
4285.0 . . .
4243.0 . . .
4192.0 . . .
4212.0 . . .
4291.0 . . .
4256.0 . . .
4214.0 . . .
4310.0 . . .
4240.0 . . .
4241.0 . . .
4139.0 . . .
4301.0 . . .
4193.0 . . .
4225.0 . . .
4082.0 . . .
4284.0 . . .
4149.0 . . .
4098.0 . . .
4094.0 . . .
4162.0 . . .
4113.0 . . .
3984.0 . . .
4143.0 . . .
4027.0 . . .
4042.0 . . .
4037.0 . . .
4026.0 . . .
4241.0 . . .
4034.0 . . .
4057.0 . . .
4152.0 . . .
4020.0 . . .
3996.0 . . .
4039.0 . . .
4085.0 . . .
3946.0 . . .
4105.0 . . .
4028.0 . . .
4103.0 . . .
3956.0 . . .
4025.0 . . .
3979.0 . . .
4091.0 . . .
4092.0 . . .
4033.0 . . .
3935.0 . . .
4044.0 . . .
3899.0 . . .
4018.0 . . .
3929.0 . . .
4011.0 . . .
4060.0 . . .
3860.0 . . .
3954.0 . . .
3973.0 . . .
3899.0 . . .
3842.0 0.0002603 2930.78687 3484.33545
3934.0 0.0002542 2929.31714 3492.74609
3903.0 0.0002562 2927.84766 3500.85498
3960.0 0.0002525 2926.37842 3508.66919
3890.0 0.0002571 2924.90967 3516.19141
3854.0 0.0002595 2923.44141 3523.43018
3849.0 0.0002598 2921.97363 3530.39160
3892.0 0.0002569 2920.50610 3537.08008
3922.0 0.0002550 2919.03906 3566.13477
3736.0 0.0002677 2917.57251 3573.12988
3814.0 0.0002622 2916.10596 3591.17212
3844.0 0.0002601 2914.64038 3598.17383
3761.0 0.0002659 2913.17480 3605.01074
3906.0 0.0002560 2911.70972 3611.69458
3829.0 0.0002612 2910.24512 3618.23730
3787.0 0.0002641 2908.78101 3624.65332
3907.0 0.0002560 2907.31689 3630.95679
3973.0 0.0002517 2905.85376 3637.16138
3750.0 0.0002667 2904.39063 3643.28369
3895.0 0.0002567 2902.92773 3649.34180
3890.0 0.0002571 2901.46582 3655.35156
3687.0 0.0002712 2900.00391 3661.33350
3840.0 0.0002604 2898.54224 3667.31030
3654.0 0.0002737 2897.08130 3673.30249
3722.0 0.0002687 2895.62085 3679.33618
3822.0 0.0002616 2894.16040 3685.43970
3736.0 0.0002677 2892.70093 3691.64209
3801.0 0.0002631 2891.24146 3697.97754
3818.0 0.0002619 2889.78247 3704.48242
3769.0 0.0002653 2888.32373 3711.20020
3824.0 0.0002615 2886.86548 3718.17651
3790.0 0.0002639 2885.40796 3725.46436
3854.0 0.0002595 2883.95044 3733.12524
3946.0 0.0002534 2882.49341 3741.22681
3688.0 0.0002711 2881.03687 3749.84888
3876.0 0.0002580 2879.58057 3759.08472
3849.0 0.0002598 2878.12476 3769.04126
3866.0 0.0002587 2876.66968 3779.84131
3698.0 0.0002704 2875.21460 3791.63672
3810.0 0.0002625 2873.76001 3804.60278
3915.0 0.0002554 2872.30591 3818.94678
3763.0 0.0002657 2870.85229 3834.92651
3809.0 0.0002625 2869.39868 3852.85181
3867.0 0.0002586 2867.94580 3873.09546
3825.0 0.0002614 2866.49341 3896.12988
3929.0 0.0002545 2865.04102 3922.54297
3928.0 0.0002546 2863.58936 3953.06714
3966.0 0.0002521 2862.13818 3988.65601
3982.0 0.0002511 2860.68701 4030.54346
4042.0 0.0002474 2859.23657 4080.33325
3989.0 0.0002507 2857.78662 4140.18799
4175.0 0.0002395 2856.33667 4213.00586
4113.0 0.0002431 2854.88745 4302.66162
4180.0 0.0002392 2853.43848 4414.43604
4361.0 0.0002293 2851.99023 4555.29395
4593.0 0.0002177 2850.54175 4734.31201
4872.0 0.0002053 2849.09424 4962.43555
4944.0 0.0002023 2847.64697 5251.11035
5427.0 0.0001843 2846.19995 5608.58545
5814.0 0.0001720 2844.75342 6033.67139
6331.0 0.0001580 2843.30737 6512.81836
6921.0 0.0001445 2841.86182 7025.29346
7376.0 0.0001356 2840.41626 7540.84424
7645.0 0.0001308 2838.97168 7995.57813
7866.0 0.0001271 2837.52710 8282.70215
7736.0 0.0001293 2836.08301 8303.69043
7471.0 0.0001339 2834.63940 8038.20947
7271.0 0.0001375 2833.19629 7554.08936
6723.0 0.0001487 2831.75317 6965.69971
6369.0 0.0001570 2830.31079 6380.55566
5843.0 0.0001711 2828.86890 5864.76074
5480.0 0.0001825 2827.42700 5441.32715
5095.0 0.0001963 2825.98584 5106.60645
4731.0 0.0002114 2824.54517 4846.11182
4605.0 0.0002172 2823.10449 4643.95996
4357.0 0.0002295 2821.66455 4486.38330
4294.0 0.0002329 2820.22510 4362.39063
4293.0 0.0002329 2818.78564 4263.69043
4033.0 0.0002480 2817.34692 4184.16748
4021.0 0.0002487 2815.90869 4119.29102
3840.0 0.0002604 2814.47046 4065.75757
3761.0 0.0002659 2813.03296 4021.14331
3903.0 0.0002562 2811.59546 3983.61621
3848.0 0.0002599 2810.15894 3951.80884
3866.0 0.0002587 2808.72266 3924.65796
3667.0 0.0002727 2807.28638 3901.34692
3869.0 0.0002585 2805.85083 3881.22974
3904.0 0.0002561 2804.41577 3863.78662
3779.0 0.0002646 2802.98071 3848.60620
3750.0 0.0002667 2801.54663 3835.35303
3728.0 0.0002682 2800.11255 3823.74976
3824.0 0.0002615 2798.67871 3813.57153
3795.0 0.0002635 2797.24585 3804.63135
3812.0 0.0002623 2795.81299 3796.77148
3799.0 0.0002632 2794.38062 3789.86060
3717.0 0.0002690 2792.94873 3783.78979
3842.0 0.0002603 2791.51733 3778.46289
3755.0 0.0002663 2790.08594 3773.79907
3817.0 0.0002620 2788.65527 3769.73291
3842.0 0.0002603 2787.22510 3766.20093
3768.0 0.0002654 2785.79492 3763.15479
3805.0 0.0002628 2784.36548 3760.54956
3890.0 0.0002571 2782.93628 3758.34668
3630.0 0.0002755 2781.50757 3756.51074
3818.0 0.0002619 2780.07935 3755.01392
3722.0 0.0002687 2778.65137 3753.82886
3759.0 0.0002660 2777.22363 3752.93237
3772.0 0.0002651 2775.79663 3752.30469
3765.0 0.0002656 2774.36987 3751.92725
3663.0 0.0002730 2772.94360 3751.78369
3695.0 0.0002706 2771.51782 3751.85864
3764.0 0.0002657 2770.09204 3752.14038
3822.0 0.0002616 2768.66699 3752.61646
3796.0 0.0002634 2767.24243 3753.27612
3738.0 0.0002675 2765.81787 3754.11011
3736.0 0.0002677 2764.39429 3755.10889
3761.0 0.0002659 2762.97070 3756.26538
3844.0 0.0002601 2761.54761 3757.57227
3899.0 0.0002565 2760.12500 3759.02271
3733.0 0.0002679 2758.70264 3760.61011
3808.0 0.0002626 2757.28076 3740.27148
3805.0 0.0002628 2755.85962 3742.87671
3785.0 0.0002642 2754.43823 3734.58911
3819.0 0.0002618 2753.01758 3737.73730
3796.0 0.0002634 2751.59741 3740.94556
3837.0 0.0002606 2750.17773 3744.21533
3993.0 0.0002504 2748.75806 3747.54517
3795.0 0.0002635 2747.33911 3750.93384
3874.0 0.0002581 2745.92041 3754.38208
3895.0 0.0002567 2744.50220 3757.88916
3735.0 0.0002677 2743.08447 3761.45410
3864.0 0.0002588 2741.66699 3765.07666
3712.0 0.0002694 2740.24976 3768.75684
3767.0 0.0002655 2738.83325 3772.49414
3920.0 0.0002551 2737.41699 3776.28735
3852.0 0.0002596 2736.00122 3780.13672
3830.0 0.0002611 2734.58594 3784.04102
3794.0 0.0002636 2733.17090 3788.00049
3937.0 0.0002540 2731.75610 3792.01416
3997.0 0.0002502 2730.34204 3796.08105
3811.0 0.0002624 2728.92822 3800.20215
3817.0 0.0002620 2727.51465 3804.37500
3900.0 0.0002564 2726.10181 3808.60107
3942.0 0.0002537 2724.68921 3812.87817
3954.0 0.0002529 2723.27710 3817.20557
3935.0 0.0002541 2721.86523 3821.58496
3779.0 0.0002646 2720.45386 3826.01318
3842.0 0.0002603 2719.04297 3830.49121
3862.0 0.0002589 2717.63232 3835.01758
4040.0 0.0002475 2716.22217 3839.59277
3995.0 0.0002503 2714.81250 3844.21436
3897.0 0.0002566 2713.40308 3848.88379
3849.0 0.0002598 2711.99390 3853.60010
3909.0 0.0002558 2710.58569 3858.36108
3874.0 0.0002581 2709.17749 3863.16895
3919.0 0.0002552 2707.76953 3868.02002
3946.0 0.0002534 2706.36230 3872.91553
3946.0 0.0002534 2704.95532 3877.85474
3945.0 0.0002535 2703.54858 3882.83691
3900.0 0.0002564 2702.14282 3887.86133
3876.0 0.0002580 2700.73706 3892.92725
3967.0 0.0002521 2699.33154 3898.03516
3988.0 0.0002508 2697.92676 3903.18262
3941.0 0.0002537 2696.52222 3908.36938
4053.0 0.0002467 2695.11816 3913.59595
3963.0 0.0002523 2693.71436 3918.86230
3899.0 0.0002565 2692.31104 3924.16602
3802.0 0.0002630 2690.90820 3929.50635
3999.0 0.0002501 2689.50562 3937.91724
4087.0 0.0002447 2688.10352 3943.42139
4078.0 0.0002452 2686.70190 3950.45435
4049.0 0.0002470 2685.30054 3956.08276
4005.0 0.0002497 2683.89966 3961.75244
4103.0 0.0002437 2682.49927 3967.46191
3947.0 0.0002534 2681.09912 3973.21216
4059.0 0.0002464 2679.69946 3979.00366
4022.0 0.0002486 2678.30029 3984.83398
4067.0 0.0002459 2676.90137 3990.70679
4014.0 0.0002491 2675.50293 3996.61841
4050.0 0.0002469 2674.10498 4002.56909
4020.0 0.0002488 2672.70728 4008.56201
4067.0 0.0002459 2671.30981 4014.59497
4138.0 0.0002417 2669.91309 4020.66675
4064.0 0.0002461 2668.51660 4026.78052
3998.0 0.0002501 2667.12036 4032.93506
4068.0 0.0002458 2665.72485 4039.13159
4139.0 0.0002416 2664.32983 4045.36890
4038.0 0.0002476 2662.93481 4051.65112
3968.0 0.0002520 2661.54053 4057.97534
4129.0 0.0002422 2660.14648 4064.34375
4155.0 0.0002407 2658.75269 4070.75903
4167.0 0.0002400 2657.35962 4077.21997
4143.0 0.0002414 2655.96680 4083.72852
4142.0 0.0002414 2654.57446 4090.28809
4231.0 0.0002364 2653.18237 4096.89990
4083.0 0.0002449 2651.79053 4103.56592
4212.0 0.0002374 2650.39966 4110.28955
4121.0 0.0002427 2649.00879 4117.07324
4192.0 0.0002385 2647.61841 4123.92041
4155.0 0.0002407 2646.22852 4130.83594
4157.0 0.0002406 2644.83887 4137.82617
4103.0 0.0002437 2643.44946 4144.89307
4282.0 0.0002335 2642.06079 4152.04688
4155.0 0.0002407 2640.67261 4159.29346
4353.0 0.0002297 2639.28442 4166.64453
4258.0 0.0002349 2637.89697 4174.10596
4168.0 0.0002399 2636.50977 4181.69434
4217.0 0.0002371 2635.12280 4189.42480
4241.0 0.0002358 2633.73682 4197.30957
4260.0 0.0002347 2632.35059 4205.37354
4162.0 0.0002403 2630.96509 4213.64160
4185.0 0.0002389 2629.58008 4222.13965
4234.0 0.0002362 2628.19531 4230.90527
4239.0 0.0002359 2626.81079 4239.98193
4147.0 0.0002411 2625.42700 4249.41846
4227.0 0.0002366 2624.04346 4259.28125
4387.0 0.0002279 2622.66016 4269.64941
4175.0 0.0002395 2621.27759 4280.61768
4212.0 0.0002374 2619.89526 4292.31250
4342.0 0.0002303 2618.51343 4304.88574
4390.0 0.0002278 2617.13184 4318.54395
4287.0 0.0002333 2615.75073 4333.54736
4303.0 0.0002324 2614.37012 4350.23535
4451.0 0.0002247 2612.98975 4369.07666
4248.0 0.0002354 2611.60962 4390.68457
4178.0 0.0002393 2610.23047 4415.88916
4313.0 0.0002319 2608.85132 4445.81445
4532.0 0.0002207 2607.47241 4481.93848
4490.0 0.0002227 2606.09448 4526.15771
4569.0 0.0002189 2604.71631 4580.77002
4336.0 0.0002306 2603.33887 4648.16846
4650.0 0.0002151 2601.96191 4730.07324
4652.0 0.0002150 2600.58521 4826.27246
4726.0 0.0002116 2599.20874 4933.39160
4857.0 0.0002059 2597.83301 5044.35596
4906.0 0.0002038 2596.45776 5147.03125
4814.0 0.0002077 2595.08228 5222.52002
4857.0 0.0002059 2593.70801 5251.68604
4944.0 0.0002023 2592.33374 5227.95068
4965.0 0.0002014 2590.95972 5159.94727
4801.0 0.0002083 2589.58643 5064.40576
4680.0 0.0002137 2588.21338 4959.78955
4742.0 0.0002109 2586.84082 4861.27686
4665.0 0.0002144 2585.46851 4777.31934
4640.0 0.0002155 2584.09668 4710.02344
4541.0 0.0002202 2582.72510 4657.92773
4595.0 0.0002176 2581.35425 4618.34277
4530.0 0.0002208 2579.98364 4588.53076
4423.0 0.0002261 2578.61353 4566.18604
4503.0 0.0002221 2577.24365 4549.49316
4538.0 0.0002204 2575.87402 4537.07520
4464.0 0.0002240 2574.50513 4527.91016
4394.0 0.0002276 2573.13672 4521.23584
4319.0 0.0002315 2571.76831 4516.49121
4442.0 0.0002251 2570.40063 4513.25879
4668.0 0.0002142 2569.03320 4511.22217
4476.0 0.0002234 2567.66626 4510.13721
4555.0 0.0002195 2566.29956 4509.81982
4483.0 0.0002231 2564.93335 4510.12061
4631.0 0.0002159 2563.56763 4510.92383
4579.0 0.0002184 2562.20239 4512.13623
4463.0 0.0002241 2560.83740 4513.67920
4470.0 0.0002237 2559.47266 4515.49170
4529.0 0.0002208 2558.10864 4517.52197
4435.0 0.0002255 2556.74487 4519.72559
4510.0 0.0002217 2555.38135 4522.06738
4580.0 0.0002183 2554.01855 4524.51758
4472.0 0.0002236 2552.65625 4527.04785
4593.0 0.0002177 2551.29370 4529.63867
4614.0 0.0002167 2549.93237 4532.26758
4497.0 0.0002224 2548.57080 4534.91992
4685.0 0.0002134 2547.20996 4537.58057
4676.0 0.0002139 2545.84937 4540.23633
4706.0 0.0002125 2544.48901 4542.87646
4579.0 0.0002184 2543.12964 4545.49023
4597.0 0.0002175 2541.77026 4548.06934
4554.0 0.0002196 2540.41113 4550.60596
4449.0 0.0002248 2539.05273 4553.08984
4709.0 0.0002124 2537.69458 4555.51758
4603.0 0.0002172 2536.33691 4557.88184
4465.0 0.0002240 2534.97974 4560.17578
4646.0 0.0002152 2533.62256 4562.39795
4610.0 0.0002169 2532.26636 4564.53906
4515.0 0.0002215 2530.91016 4566.59863
4622.0 0.0002164 2529.55444 4568.57031
4630.0 0.0002160 2528.19922 4570.45117
4469.0 0.0002238 2526.84448 4572.23828
4551.0 0.0002197 2525.48975 4573.92627
4561.0 0.0002193 2524.13599 4575.51270
4498.0 0.0002223 2522.78223 4576.99707
4620.0 0.0002165 2521.42871 4578.37305
4608.0 0.0002170 2520.07617 4579.64063
4553.0 0.0002196 2518.72363 4580.79639
4540.0 0.0002203 2517.37134 4581.83789
4603.0 0.0002172 2516.02002 4582.76221
4617.0 0.0002166 2514.66870 4583.56836
4517.0 0.0002214 2513.31763 4584.25488
4587.0 0.0002180 2511.96729 4584.81787
4728.0 0.0002115 2510.61719 4585.25732
4691.0 0.0002132 2509.26733 4585.56934
4749.0 0.0002106 2507.91846 4585.75488
4654.0 0.0002149 2506.56982 4585.81006
4619.0 0.0002165 2505.22095 4585.73535
4656.0 0.0002148 2503.87329 4585.52783
4568.0 0.0002189 2502.52563 4585.18701
4620.0 0.0002165 2501.17822 4581.75732
4501.0 0.0002222 2499.83154 4581.22949
4589.0 0.0002179 2498.48511 4579.07178
4566.0 0.0002190 2497.13916 4578.30371
4752.0 0.0002104 2495.79370 4577.39063
4629.0 0.0002160 2494.44824 4576.33203
4515.0 0.0002215 2493.10376 4575.12988
4673.0 0.0002140 2491.75928 4573.78027
4612.0 0.0002168 2490.41528 4572.28418
4533.0 0.0002206 2489.07178 4570.64160
4654.0 0.0002149 2487.72852 4568.85010
4578.0 0.0002184 2486.38550 4566.91064
4594.0 0.0002177 2485.04346 4564.82373
4650.0 0.0002151 2483.70142 4562.58789
4751.0 0.0002105 2482.35962 4560.20264
4639.0 0.0002156 2481.01880 4557.66895
4670.0 0.0002141 2479.67798 4554.98535
4479.0 0.0002233 2478.33740 4552.15234
4575.0 0.0002186 2476.99780 4549.17090
4574.0 0.0002186 2475.65820 4546.03906
4600.0 0.0002174 2474.31909 4542.75781
4559.0 0.0002193 2472.98022 4539.32813
4547.0 0.0002199 2471.64185 4535.74902
4577.0 0.0002185 2470.30371 4532.02051
4588.0 0.0002180 2468.96655 4528.14453
4515.0 0.0002215 2467.62939 4524.11914
4612.0 0.0002168 2466.29272 4519.94678
4508.0 0.0002218 2464.95630 4515.62646
4612.0 0.0002168 2463.62036 4511.15918
4614.0 0.0002167 2462.28467 4506.54541
4668.0 0.0002142 2460.94995 4501.78711
4598.0 0.0002175 2459.61499 4496.88184
4519.0 0.0002213 2458.28076 4491.83350
4600.0 0.0002174 2456.94702 4486.64111
4483.0 0.0002231 2455.61328 4481.30469
4410.0 0.0002268 2454.28052 4475.82813
4515.0 0.0002215 2452.94775 4470.20850
4567.0 0.0002190 2451.61548 4464.44922
4526.0 0.0002209 2450.28369 4458.55176
4534.0 0.0002206 2448.95215 4452.51611
4446.0 0.0002249 2447.62085 4446.34180
4556.0 0.0002195 2446.29028 4440.03369
4533.0 0.0002206 2444.96021 4433.59082
4560.0 0.0002193 2443.63037 4427.01367
4556.0 0.0002195 2442.30078 4420.30566
4357.0 0.0002295 2440.97168 4413.46680
4530.0 0.0002208 2439.64282 4406.49707
4386.0 0.0002280 2438.31494 4399.40332
4433.0 0.0002256 2436.98706 4392.18164
4520.0 0.0002212 2435.65942 4384.83447
4395.0 0.0002275 2434.33276 4377.36572
4459.0 0.0002243 2433.00586 4369.77441
4372.0 0.0002287 2431.67944 4362.06396
4419.0 0.0002263 2430.35400 4354.23730
4485.0 0.0002230 2429.02856 4346.29199
4497.0 0.0002224 2427.70337 4338.23389
4407.0 0.0002269 2426.37891 4330.06445
4370.0 0.0002288 2425.05444 4321.78125
4415.0 0.0002265 2423.73096 4313.39307
4276.0 0.0002339 2422.40747 4304.89795
4369.0 0.0002289 2421.08447 4296.29688
4409.0 0.0002268 2419.76196 4287.59521
4370.0 0.0002288 2418.43970 4278.79199
4576.0 0.0002185 2417.11768 4269.88916
4361.0 0.0002293 2415.79639 4260.89502
4266.0 0.0002344 2414.47559 4251.80420
4403.0 0.0002271 2413.15503 4242.62305
4335.0 0.0002307 2411.83496 4233.35156
4183.0 0.0002391 2410.51514 4223.99414
4308.0 0.0002321 2409.19531 4214.54980
4308.0 0.0002321 2407.87695 4205.02832
4306.0 0.0002322 2406.55811 4195.42383
4309.0 0.0002321 2405.23999 4185.74170
4227.0 0.0002366 2403.92236 4175.98730
4202.0 0.0002380 2402.60498 4166.15723
4192.0 0.0002385 2401.28784 4156.25781
4280.0 0.0002336 2399.97144 4146.29492
4084.0 0.0002449 2398.65527 4136.26270
4260.0 0.0002347 2397.33960 4126.17041
4375.0 0.0002286 2396.02441 4116.01758
4286.0 0.0002333 2394.70923 4105.80664
4126.0 0.0002424 2393.39478 4095.54150
4233.0 0.0002362 2392.08081 4085.22754
4140.0 0.0002415 2390.76685 4074.86133
4001.0 0.0002499 2389.45361 4064.44800
4160.0 0.0002404 2388.14087 4053.99268
4151.0 0.0002409 2386.82813 4043.49365
4097.0 0.0002441 2385.51636 4032.95874
4166.0 0.0002400 2384.20459 4022.38574
4170.0 0.0002398 2382.89331 4011.77954
4192.0 0.0002385 2381.58252 4001.14307
4116.0 0.0002430 2380.27197 3990.47705
4137.0 0.0002417 2378.96143 3979.78467
4093.0 0.0002443 2377.65210 3969.07446
4070.0 0.0002457 2376.34277 3958.33936
4029.0 0.0002482 2375.03394 3947.58936
3974.0 0.0002516 2373.72559 3936.82349
4096.0 0.0002441 2372.41748 3926.04443
4265.0 0.0002345 2371.10962 3915.25635
4138.0 0.0002417 2369.80273 3904.46387
4044.0 0.0002473 2368.49561 3893.66406
3989.0 0.0002507 2367.18921 3882.86377
3948.0 0.0002533 2365.88330 3872.06519
3947.0 0.0002534 2364.57764 3861.26733
4029.0 0.0002482 2363.27197 3850.47681
4058.0 0.0002464 2361.96753 3839.69727
3926.0 0.0002547 2360.66309 3828.92676
4008.0 0.0002495 2359.35889 3818.16895
3866.0 0.0002587 2358.05542 3807.42969
3938.0 0.0002539 2356.75220 3796.70752
3770.0 0.0002653 2355.44922 3786.00342
3899.0 0.0002565 2354.14697 3775.32813
3934.0 0.0002542 2352.84497 3764.67529
3869.0 0.0002585 2351.54346 3754.05225
3866.0 0.0002587 2350.24219 3743.45752
3866.0 0.0002587 2348.94116 3732.89526
3838.0 0.0002606 2347.64111 3722.37231
3808.0 0.0002626 2346.34082 3711.88306
3904.0 0.0002561 2345.04150 3701.43408
3887.0 0.0002573 2343.74243 3691.02710
3747.0 0.0002669 2342.44336 3680.66309
3678.0 0.0002719 2341.14478 3670.34424
3752.0 0.0002665 2339.84717 3660.07715
3690.0 0.0002710 2338.54956 3649.85645
3701.0 0.0002702 2337.25220 3639.68799
3615.0 0.0002766 2335.95557 3629.57495
3702.0 0.0002701 2334.65918 3619.51611
3712.0 0.0002694 2333.36304 3609.51465
3638.0 0.0002749 2332.06787 3599.57544
3634.0 0.0002752 2330.77271 3589.69678
3670.0 0.0002725 2329.47778 3579.87939
3702.0 0.0002701 2328.18359 3570.12793
3593.0 0.0002783 2326.88965 3560.44263
3710.0 0.0002695 2325.59570 3550.82422
3603.0 0.0002775 2324.30298 3541.27832
3654.0 0.0002737 2323.01025 3531.80225
3690.0 0.0002710 2321.71777 3522.39648
3619.0 0.0002763 2320.42603 3513.06738
3516.0 0.0002844 2319.13452 3503.81299
3559.0 0.0002810 2317.84302 3494.63403
3536.0 0.0002828 2316.55273 3485.53564
3492.0 0.0002864 2315.26221 3476.51465
3576.0 0.0002796 2313.97241 3467.57446
3526.0 0.0002836 2312.68286 3458.71582
3583.0 0.0002791 2311.39380 3449.93799
3551.0 0.0002816 2310.10522 3441.24707
3470.0 0.0002882 2308.81689 3432.63818
3429.0 0.0002916 2307.52905 3424.11523
3445.0 0.0002903 2306.24170 3415.67920
3440.0 0.0002907 2304.95435 3407.33008
3481.0 0.0002873 2303.66748 3399.06689
3402.0 0.0002939 2302.38159 3390.89551
3471.0 0.0002881 2301.09570 3382.81201
3497.0 0.0002860 2299.81006 3374.81763
3437.0 0.0002910 2298.52515 3366.91455
3410.0 0.0002933 2297.24048 3359.10229
3218.0 0.0003108 2295.95605 3358.04883
3267.0 0.0003061 2294.67236 3350.61938
3369.0 0.0002968 2293.38892 3343.28955
3312.0 0.0003019 2292.10571 3339.35815
3299.0 0.0003031 2290.82324 3332.33105
3490.0 0.0002865 2289.54102 3325.41138
3262.0 0.0003066 2288.25903 3318.59888
3355.0 0.0002981 2286.97778 3311.89893
3374.0 0.0002964 2285.69678 3305.31006
3283.0 0.0003046 2284.41602 3298.83228
3281.0 0.0003048 2283.13574 3292.46875
3195.0 0.0003130 2281.85596 3286.22021
3248.0 0.0003079 2280.57690 3280.08838
3300.0 0.0003030 2279.29761 3274.07300
3233.0 0.0003093 2278.01904 3268.17847
3321.0 0.0003011 2276.74097 3262.40454
3296.0 0.0003034 2275.46313 3256.75342
3307.0 0.0003024 2274.18555 3251.22559
3264.0 0.0003064 2272.90869 3245.82642
3218.0 0.0003108 2271.63232 3240.55640
3205.0 0.0003120 2270.35571 3235.41797
3180.0 0.0003145 2269.08032 3230.41479
3160.0 0.0003165 2267.80493 3225.54907
3176.0 0.0003149 2266.52954 3220.82446
3224.0 0.0003102 2265.25537 3216.24731
3311.0 0.0003020 2263.98120 3211.81934
3113.0 0.0003212 2262.70728 3207.54614
3180.0 0.0003145 2261.43408 3203.43457
3021.0 0.0003310 2260.16113 3199.49121
3240.0 0.0003086 2258.88843 3195.72095
3096.0 0.0003230 2257.61621 3192.13550
3178.0 0.0003147 2256.34473 3188.74243
3081.0 0.0003246 2255.07324 3185.55176
3087.0 0.0003239 2253.80249 3182.57788
3063.0 0.0003265 2252.53174 3179.83447
3100.0 0.0003226 2251.26147 3177.33813
3156.0 0.0003169 2249.99219 3175.10767
3053.0 0.0003275 2248.72266 3173.16479
3148.0 0.0003177 2247.45386 3171.53687
3122.0 0.0003203 2246.18530 3170.25195
3048.0 0.0003281 2244.91699 3169.34619
3055.0 0.0003273 2243.64966 3168.86133
3072.0 0.0003255 2242.38208 3168.84717
3090.0 0.0003236 2241.11523 3169.35986
3033.0 0.0003297 2239.84888 3170.47192
3183.0 0.0003142 2238.58276 3172.26636
3077.0 0.0003250 2237.31665 3174.84497
3112.0 0.0003213 2236.05176 3178.32935
3104.0 0.0003222 2234.78687 3182.87402
3052.0 0.0003277 2233.52222 3188.66479
3126.0 0.0003199 2232.25830 3195.93384
3162.0 0.0003163 2230.99463 3204.97656
3174.0 0.0003151 2229.73120 3216.16675
3112.0 0.0003213 2228.46851 3229.97900
3195.0 0.0003130 2227.20605 3247.04834
3306.0 0.0003025 2225.94409 3268.20020
3294.0 0.0003036 2224.68237 3294.54004
3433.0 0.0002913 2223.42114 3327.56567
3438.0 0.0002909 2222.15991 3369.29077
3565.0 0.0002805 2220.89990 3422.39282
3636.0 0.0002750 2219.63989 3490.46631
3956.0 0.0002528 2218.38013 3578.06592
4111.0 0.0002432 2217.12085 3690.66235
4336.0 0.0002306 2215.86206 3834.00977
4664.0 0.0002144 2214.60352 4012.14331
4766.0 0.0002098 2213.34570 4223.46045
5052.0 0.0001979 2212.08789 4456.12305
5357.0 0.0001867 2210.83081 4684.06006
5451.0 0.0001835 2209.57422 4867.48096
5491.0 0.0001821 2208.31738 4963.21631
5311.0 0.0001883 2207.06177 4949.90723
5438.0 0.0001839 2205.80615 4840.71191
5104.0 0.0001959 2204.55078 4664.29736
4911.0 0.0002036 2203.29614 4447.90869
4716.0 0.0002120 2202.04175 4218.94775
4477.0 0.0002234 2200.78735 4003.18994
4308.0 0.0002321 2199.53418 3816.69849
4066.0 0.0002459 2198.28101 3663.78687
3827.0 0.0002613 2197.02808 3541.78027
3750.0 0.0002667 2195.77588 3445.34985
3561.0 0.0002808 2194.52393 3369.01660
3317.0 0.0003015 2193.27197 3308.12988
3155.0 0.0003170 2192.02124 3259.04028
3272.0 0.0003056 2190.77026 3218.91309
3156.0 0.0003169 2189.52002 3185.66724
3169.0 0.0003156 2188.27026 3157.74756
3055.0 0.0003273 2187.02051 3133.98853
2991.0 0.0003343 2185.77124 3113.52588
3089.0 0.0003237 2184.52271 3095.71216
3004.0 0.0003329 2183.27441 3080.03418
2993.0 0.0003341 2182.02637 3066.10815
2968.0 0.0003369 2180.77881 3053.63037
2946.0 0.0003394 2179.53174 3042.35303
2954.0 0.0003385 2178.28491 3032.08325
2939.0 0.0003403 2177.03882 3022.66504
2872.0 0.0003482 2175.79297 3013.96387
2847.0 0.000351 2174.54736 3005.87695
2911.0 0.0003435 2173.30225 2998.31323
2993.0 0.0003341 2172.05737 2991.19800
2952.0 0.0003388 2170.81323 2984.47339
2911.0 0.0003435 2169.56934 2978.08154
2934.0 0.0003408 2168.32568 2971.97925
2949.0 0.0003391 2167.08301 2966.12988
2969.0 0.0003368 2165.84009 2960.49756
2907.0 0.0003440 2164.59766 2955.05469
2872.0 0.0003482 2163.35596 2949.77930
2906.0 0.0003441 2162.11450 2944.64551
2872.0 0.0003482 2160.87329 2939.63672
2913.0 0.0003433 2159.63281 2934.73657
2802.0 0.000357 2158.39258 2929.92822
2963.0 0.0003375 2157.15259 2925.20020
2852.0 0.0003506 2155.91309 2920.54248
2860.0 0.0003497 2154.67407 2915.94238
2870.0 0.0003484 2153.43555 2911.39136
2874.0 0.0003479 2152.19727 2906.88232
2880.0 0.0003472 2150.95923 2902.40625
2890.0 0.0003460 2149.72168 2897.95703
2820.0 0.000355 2148.48511 2893.53027
2780.0 0.000360 2147.24829 2889.11792
2805.0 0.000357 2146.01196 2884.71655
2819.0 0.000355 2144.77637 2880.32202
2782.0 0.000359 2143.54053 2875.92822
2826.0 0.000354 2142.30591 2871.53516
2861.0 0.0003495 2141.07129 2867.13672
2900.0 0.0003448 2139.83716 2862.72949
2896.0 0.0003453 2138.60327 2858.31348
2865.0 0.0003490 2137.36987 2853.88281
2792.0 0.000358 2136.13672 2849.43701
2842.0 0.000352 2134.90430 2844.97461
2706.0 0.000370 2133.67212 2840.49219
2744.0 0.000364 2132.44019 2835.98828
2726.0 0.000367 2131.20898 2831.46289
2755.0 0.000363 2129.97778 2826.91162
2842.0 0.000352 2128.74731 2822.33545
2831.0 0.000353 2127.51733 2817.73438
2756.0 0.000363 2126.28735 2813.10400
2824.0 0.000354 2125.05811 2808.44482
2704.0 0.000370 2123.82910 2797.09253
2684.0 0.000373 2122.60059 2792.56396
2794.0 0.000358 2121.37207 2787.99536
2686.0 0.000372 2120.14453 2780.05518
2837.0 0.000352 2118.91724 2775.50488
2624.0 0.000381 2117.69019 2770.91138
2812.0 0.000356 2116.46387 2766.27637
2776.0 0.000360 2115.23779 2766.77808
2739.0 0.000365 2114.01172 2762.24316
2741.0 0.000365 2112.78662 2757.67896
2659.0 0.000376 2111.56177 2753.08374
2728.0 0.000367 2110.33716 2751.07642
2774.0 0.000360 2109.11304 2746.51978
2762.0 0.000362 2107.88916 2741.94141
2782.0 0.000359 2106.66626 2737.34521
2857.0 0.0003500 2105.44312 2732.73096
2715.0 0.000368 2104.22070 2728.10254
2780.0 0.000360 2102.99854 2723.46216
2775.0 0.000360 2101.77686 2718.81250
2695.0 0.000371 2100.55542 2714.15674
2579.0 0.000388 2099.33472 2709.49902
2786.0 0.000359 2098.11426 2704.84155
2664.0 0.000375 2096.89404 2700.18994
2580.0 0.000388 2095.67456 2695.54858
2594.0 0.000386 2094.45532 2690.92188
2700.0 0.000370 2093.23608 2686.31421
2617.0 0.000382 2092.01782 2681.73511
2745.0 0.000364 2090.79980 2677.18945
2667.0 0.000375 2089.58203 2672.68433
2694.0 0.000371 2088.36499 2668.23096
2679.0 0.000373 2087.14795 2663.83716
2652.0 0.000377 2085.93140 2659.51465
2698.0 0.000371 2084.71558 2655.27832
2714.0 0.000368 2083.50000 2651.14111
2600.0 0.000385 2082.28442 2647.12012
2634.0 0.000380 2081.06982 2643.23730
2677.0 0.000374 2079.85547 2639.51367
2578.0 0.000388 2078.64111 2635.97632
2540.0 0.000394 2077.42773 2632.65942
2621.0 0.000382 2076.21436 2629.59839
2567.0 0.000390 2075.00171 2626.83960
2581.0 0.000387 2073.78931 2624.43628
2608.0 0.000383 2072.57715 2622.45410
2638.0 0.000379 2071.36572 2620.97388
2722.0 0.000367 2070.15454 2620.09302
2587.0 0.000387 2068.94360 2619.93164
2647.0 0.000378 2067.73340 2620.64404
2595.0 0.000385 2066.52319 2622.42236
2604.0 0.000384 2065.31348 2625.51440
2601.0 0.000384 2064.10449 2630.23999
2638.0 0.000379 2062.89575 2637.02832
2625.0 0.000381 2061.68726 2646.44312
2756.0 0.000363 2060.47925 2659.24878
2606.0 0.000384 2059.27197 2676.48193
2769.0 0.000361 2058.06445 2699.53662
2852.0 0.0003506 2056.85791 2730.25415
2954.0 0.0003385 2055.65161 2771.05518
3234.0 0.0003092 2054.44556 2824.88672
3368.0 0.0002969 2053.23999 2894.98071
3513.0 0.0002847 2052.03491 2983.98291
3640.0 0.0002747 2050.82983 3091.90381
3856.0 0.0002593 2049.62573 3212.97412
3931.0 0.0002544 2048.42188 3333.15527
4084.0 0.0002449 2047.21826 3430.21509
4093.0 0.0002443 2046.01514 3480.68921
4036.0 0.0002478 2044.81250 3473.77686
3940.0 0.0002538 2043.60986 3417.62744
3759.0 0.0002660 2042.40820 3327.66724
3714.0 0.0002693 2041.20667 3215.64331
3538.0 0.0002826 2040.00562 3092.77319
3323.0 0.0003009 2038.80493 2972.24170
3289.0 0.0003040 2037.60449 2864.58008
3051.0 0.0003278 2036.40479 2774.26221
2967.0 0.0003370 2035.20520 2700.86304
2738.0 0.000365 2034.00610 2641.88501
2658.0 0.000376 2032.80750 2594.40112
2525.0 0.000396 2031.60913 2555.78516
2646.0 0.000378 2030.41101 2523.93970
2510.0 0.000398 2029.21375 2497.26294
2339.0 0.000428 2028.01672 2474.52979
2348.0 0.000426 2026.81982 2454.84375
2459.0 0.000407 2025.62366 2437.54248
2337.0 0.000428 2024.42786 2422.12280
2287.0 0.000437 2023.23218 2408.21191
2281.0 0.000438 2022.03735 2395.53271
2364.0 0.000423 2020.84265 2383.85645
2249.0 0.000445 2019.64844 2373.01660
2347.0 0.000426 2018.45471 2362.87769
2313.0 0.000432 2017.26111 2353.32959
2267.0 0.000441 2016.06787 2344.28491
2206.0 0.000453 2014.87561 2335.67896
2365.0 0.000423 2013.68323 2327.44580
2276.0 0.000439 2012.49133 2319.54102
2284.0 0.000438 2011.30005 2311.92554
2253.0 0.000444 2010.10876 2304.56299
2237.0 0.000447 2008.91846 2297.42993
2253.0 0.000444 2007.72815 2290.49878
2174.0 0.000460 2006.53821 2283.75146
2253.0 0.000444 2005.34888 2277.17163
2175.0 0.000460 2004.16003 2270.74243
2192.0 0.000456 2002.97119 2264.45215
2286.0 0.000437 2001.78308 2258.29199
2193.0 0.000456 2000.59534 2252.24951
2226.0 0.000449 1999.40796 2246.31836
2237.0 0.000447 1998.22095 2240.49146
2182.0 0.000458 1997.03430 2234.76196
2158.0 0.000463 1995.84790 2229.12305
2193.0 0.000456 1994.66235 2223.57422
2119.0 0.000472 1993.47693 2218.10645
2162.0 0.000463 1992.29211 2212.71875
2141.0 0.000467 1991.10754 2207.40723
2256.0 0.000443 1989.92334 2202.16748
2117.0 0.000472 1988.73938 2196.99805
2154.0 0.000464 1987.55627 2191.89819
2122.0 0.000471 1986.37329 2186.86230
2182.0 0.000458 1985.19067 2181.89063
2119.0 0.000472 1984.00867 2176.98120
2102.0 0.000476 1982.82678 2172.13086
2049.0 0.000488 1981.64539 2167.33984
2106.0 0.000475 1980.46460 2162.60767
2171.0 0.000461 1979.28394 2152.72876
2084.0 0.000480 1978.10388 2148.28540
2169.0 0.000461 1976.92419 2143.88721
2112.0 0.000473 1975.74475 2136.89502
2145.0 0.000466 1974.56604 2132.67822
2104.0 0.000475 1973.38745 2128.49927
2110.0 0.000474 1972.20935 2124.35986
2076.0 0.000482 1971.03162 2120.25952
2111.0 0.000474 1969.85437 2116.19800
2147.0 0.000466 1968.67712 2112.17456
2138.0 0.000468 1967.50110 2108.19238
2086.0 0.000479 1966.32483 2104.24683
2108.0 0.000474 1965.14917 2100.34082
2139.0 0.000468 1963.97400 2096.47290
2018.0 0.000496 1962.79895 2092.64233
2003.0 0.000499 1961.62439 2088.85034
2096.0 0.000477 1960.45056 2085.09644
2185.0 0.000458 1959.27673 2081.37915
2067.0 0.000484 1958.10352 2077.69946
2022.0 0.000495 1956.93079 2074.05737
1989.0 0.000503 1955.75818 2070.45093
2042.0 0.000490 1954.58594 2066.88086
2087.0 0.000479 1953.41455 2063.34790
2131.0 0.000469 1952.24329 2059.84985
2020.0 0.000495 1951.07239 2056.38721
2084.0 0.000480 1949.90198 2052.95996
1972.0 0.000507 1948.73206 2049.56738
2117.0 0.000472 1947.56213 2046.20789
1995.0 0.000501 1946.39319 2042.88403
2078.0 0.000481 1945.22424 2039.59265
2082.0 0.000480 1944.05591 2036.33447
2002.0 0.000500 1942.88782 2033.10876
1983.0 0.000504 1941.71997 2029.91492
2005.0 0.000499 1940.55322 2026.75427
1929.0 0.000518 1939.38623 2023.62329
2029.0 0.000493 1938.21985 2020.52417
2053.0 0.000487 1937.05396 2017.45508
2047.0 0.000489 1935.88818 2014.41565
2066.0 0.000484 1934.72290 2011.40515
2034.0 0.000492 1933.55835 2008.42456
2045.0 0.000489 1932.39380 2005.47180
2052.0 0.000487 1931.22986 2002.54675
2039.0 0.000490 1930.06628 1999.64954
1989.0 0.000503 1928.90308 1996.77869
2040.0 0.000490 1927.74023 1993.93372
2047.0 0.000489 1926.57800 1991.11572
2000.0 0.000500 1925.41589 1988.32190
1921.0 0.000521 1924.25439 1985.55273
2062.0 0.000485 1923.09338 1982.80823
2050.0 0.000488 1921.93250 1980.08716
2092.0 0.000478 1920.77197 1977.38843
1993.0 0.000502 1919.61230 1974.71326
2011.0 0.000497 1918.45276 1972.05933
1969.0 0.000508 1917.29346 1969.42639
2045.0 0.000489 1916.13477 1966.81494
2080.0 0.000481 1914.97656 1964.22327
1997.0 0.000501 1913.81836 1961.65088
1948.0 0.000513 1912.66101 1959.09851
2034.0 0.000492 1911.50391 1956.56409
1973.0 0.000507 1910.34729 1954.04810
1954.0 0.000512 1909.19092 1951.54871
2024.0 0.000494 1908.03491 1949.06653
1961.0 0.000510 1906.87952 1946.60107
1985.0 0.000504 1905.72437 1944.15051
2027.0 0.000493 1904.56970 1941.71558
2015.0 0.000496 1903.41541 1939.29541
1904.0 0.000525 1902.26135 1936.88904
1933.0 0.000517 1901.10779 1934.49585
1919.0 0.000521 1899.95496 1932.11658
1991.0 0.000502 1898.80225 1929.74915
1995.0 0.000501 1897.64990 1927.39368
1979.0 0.000505 1896.49805 1925.04980
2024.0 0.000494 1895.34668 1922.71655
1959.0 0.000510 1894.19543 1920.39343
2082.0 0.000480 1893.04492 1918.08105
2073.0 0.000482 1891.89465 1915.77734
2002.0 0.000500 1890.74475 1913.48230
1993.0 0.000502 1889.59534 1911.19641
2065.0 0.000484 1888.44629 1908.91785
2001.0 0.000500 1887.29736 1906.64624
2037.0 0.000491 1886.14929 1904.38269
1999.0 0.000500 1885.00146 1902.12500
2008.0 0.000498 1883.85400 1899.87341
2048.0 0.000488 1882.70703 1897.62756
1987.0 0.000503 1881.56030 1895.38635
2086.0 0.000479 1880.41431 1893.15088
1916.0 0.000522 1879.26843 1890.91870
2107.0 0.000475 1878.12292 1888.69067
1979.0 0.000505 1876.97803 1886.46631
2164.0 0.000462 1875.83325 1884.24475
2036.0 0.000491 1874.68896 1882.02588
2098.0 0.000477 1873.54529 1879.81006
2151.0 0.000465 1872.40198 1877.59558
2031.0 0.000492 1871.25879 1875.38257
2005.0 0.000499 1870.11646 1873.17126
2067.0 0.000484 1868.97412 1870.96106
2139.0 0.000468 1867.83215 1868.75061
1974.0 0.000507 1866.69104 1866.54150
2116.0 0.000473 1865.55005 1864.33179
2095.0 0.000477 1864.40930 1862.12183
2028.0 0.000493 1863.26929 1859.91138
2011.0 0.000497 1862.12952 1857.70020
2001.0 0.000500 1860.98999 1855.48743
1981.0 0.000505 1859.85107 1853.27380
2031.0 0.000492 1858.71265 1851.05859
2085.0 0.000480 1857.57434 1848.84106
1930.0 0.000518 1856.43677 1846.62207
1971.0 0.000507 1855.29932 1844.40063
2017.0 0.000496 1854.16223 1842.17627
1966.0 0.000509 1853.02588 1839.95007
1907.0 0.000524 1851.88965 1840.05896
1927.0 0.000519 1850.75415 1837.91211
1901.0 0.000526 1849.61877 1835.76672
1964.0 0.000509 1848.48364 1833.62256
1870.0 0.000535 1847.34937 1832.63867
1910.0 0.000524 1846.21521 1830.54163
1897.0 0.000527 1845.08142 1828.44958
1849.0 0.000541 1843.94812 1826.36365
1794.0 0.000557 1842.81519 1824.28381
1899.0 0.000527 1841.68250 1822.21069
1905.0 0.000525 1840.55054 1820.14612
1924.0 0.000520 1839.41895 1818.09070
1824.0 0.000548 1838.28748 1816.04456
1844.0 0.000542 1837.15674 1814.01050
1921.0 0.000521 1836.02625 1811.98889
1793.0 0.000558 1834.89600 1809.98096
1896.0 0.000527 1833.76648 1807.99023
1886.0 0.000530 1832.63721 1806.01685
1751.0 0.000571 1831.50842 1804.06409
1771.0 0.000565 1830.37988 1802.13416
1775.0 0.000563 1829.25183 1800.23010
1820.0 0.000549 1828.12390 1798.35486
1751.0 0.000571 1826.99683 1796.51343
1748.0 0.000572 1825.87000 1794.70886
1796.0 0.000557 1824.74353 1792.94678
1717.0 0.000582 1823.61755 1791.23291
1760.0 0.000568 1822.49182 1789.57373
1684.0 0.000594 1821.36646 1787.97717
1761.0 0.000568 1820.24182 1786.45300
1757.0 0.000569 1819.11731 1785.01038
1733.0 0.000577 1817.99353 1783.66370
1723.0 0.000580 1816.86963 1782.42578
1821.0 0.000549 1815.74646 1781.31628
1799.0 0.000556 1814.62378 1780.35571
1688.0 0.000592 1813.50122 1779.56958
1703.0 0.000587 1812.37927 1778.98938
1756.0 0.000569 1811.25781 1778.65417
1679.0 0.000596 1810.13647 1778.61023
1757.0 0.000569 1809.01563 1778.91821
1804.0 0.000554 1807.89539 1779.65076
1743.0 0.000574 1806.77515 1780.90442
1782.0 0.000561 1805.65552 1782.80237
1816.0 0.000551 1804.53662 1785.50488
1705.0 0.000587 1803.41785 1789.22656
1812.0 0.000552 1802.29932 1794.25525
1749.0 0.000572 1801.18152 1800.97485
1754.0 0.000570 1800.06384 1809.91003
1741.0 0.000574 1798.94653 1821.75488
1881.0 0.000532 1797.82996 1837.41968
1887.0 0.000530 1796.71362 1858.05652
1872.0 0.000534 1795.59741 1885.01025
1906.0 0.000525 1794.48206 1919.57458
1988.0 0.000503 1793.36694 1962.41638
1939.0 0.000516 1792.25195 2012.28296
1974.0 0.000507 1791.13782 2064.44336
2036.0 0.000491 1790.02368 2110.10132
2033.0 0.000492 1788.91028 2138.76831
2129.0 0.000470 1787.79724 2144.31201
2101.0 0.000476 1786.68445 2129.12402
1997.0 0.000501 1785.57214 2100.21948
2062.0 0.000485 1784.46021 2062.34717
1973.0 0.000507 1783.34851 2017.43103
1921.0 0.000521 1782.23767 1968.47351
1810.0 0.000552 1781.12683 1920.34534
1834.0 0.000545 1780.01648 1877.22546
1791.0 0.000558 1778.90662 1840.90552
1781.0 0.000561 1777.79712 1811.26733
1755.0 0.000570 1776.68787 1787.34375
1762.0 0.000568 1775.57935 1768.00513
1762.0 0.000568 1774.47107 1752.21558
1655.0 0.000604 1773.36316 1739.15210
1778.0 0.000562 1772.25562 1728.17554
1734.0 0.000577 1771.14868 1718.80151
1669.0 0.000599 1770.04175 1710.66833
1664.0 0.000601 1768.93567 1703.51074
1641.0 0.000609 1767.82983 1697.12219
1648.0 0.000607 1766.72437 1691.35303
1573.0 0.000636 1765.61926 1686.08630
1657.0 0.000604 1764.51453 1681.23291
1645.0 0.000608 1763.41016 1676.72131
1584.0 0.000631 1762.30652 1672.49854
1608.0 0.000622 1761.20313 1668.51746
1667.0 0.000600 1760.09998 1664.74255
1608.0 0.000622 1758.99731 1662.67407
1604.0 0.000623 1757.89514 1659.27478
1590.0 0.000629 1756.79358 1656.01123
1643.0 0.000609 1755.69202 1652.86511
1604.0 0.000623 1754.59082 1650.57556
1596.0 0.000627 1753.49036 1647.65063
1608.0 0.000622 1752.39014 1644.80933
1594.0 0.000627 1751.29016 1642.04395
1577.0 0.000634 1750.19092 1639.34888
1611.0 0.000621 1749.09204 1636.71729
1636.0 0.000611 1747.99316 1634.14319
1604.0 0.000623 1746.89514 1631.62415
1488.0 0.000672 1745.79736 1629.15540
1566.0 0.000639 1744.69971 1626.73315
1652.0 0.000605 1743.60303 1624.35693
1642.0 0.000609 1742.50635 1622.02307
1647.0 0.000607 1741.40991 1619.72913
1534.0 0.000652 1740.31445 1617.47559
1605.0 0.000623 1739.21912 1615.25952
1510.0 0.000662 1738.12378 1613.08008
1549.0 0.000646 1737.02942 1610.93762
1566.0 0.000639 1735.93530 1608.83118
1526.0 0.000655 1734.84155 1606.75989
1605.0 0.000623 1733.74829 1604.72449
1508.0 0.000663 1732.65527 1602.72412
1613.0 0.000620 1731.56250 1600.75952
1598.0 0.000626 1730.47058 1598.83240
1621.0 0.000617 1729.37878 1596.94202
1596.0 0.000627 1728.28748 1595.09033
1595.0 0.000627 1727.19653 1590.94861
1544.0 0.000648 1726.10571 1589.25781
1579.0 0.000633 1725.01587 1587.60645
1548.0 0.000646 1723.92603 1585.99646
1640.0 0.000610 1722.83679 1583.26624
1596.0 0.000627 1721.74780 1581.78821
1448.0 0.000691 1720.65942 1580.35999
1591.0 0.000629 1719.57104 1578.98462
1577.0 0.000634 1718.48352 1577.66870
1504.0 0.000665 1717.39624 1576.41748
1507.0 0.000664 1716.30933 1575.23779
1530.0 0.000654 1715.22290 1574.13757
1550.0 0.000645 1714.13672 1573.12598
1532.0 0.000653 1713.05078 1572.21436
1563.0 0.000640 1711.96570 1571.41528
1551.0 0.000645 1710.88086 1570.74438
1462.0 0.000684 1709.79639 1570.21973
1631.0 0.000613 1708.71252 1569.86365
1541.0 0.000649 1707.62866 1569.70239
1577.0 0.000634 1706.54517 1569.76892
1571.0 0.000637 1705.46265 1570.10339
1554.0 0.000644 1704.38000 1570.75500
1555.0 0.000643 1703.29797 1571.78662
1575.0 0.000635 1702.21655 1573.27698
1601.0 0.000625 1701.13501 1575.32654
1641.0 0.000609 1700.05432 1578.06799
1576.0 0.000635 1698.97400 1581.67139
1668.0 0.000600 1697.89368 1586.36865
1568.0 0.000638 1696.81421 1592.46667
1620.0 0.000617 1695.73511 1600.38000
1673.0 0.000598 1694.65613 1610.66125
1650.0 0.000606 1693.57788 1624.03320
1687.0 0.000593 1692.49976 1641.43726
1590.0 0.000629 1691.42212 1664.01208
1701.0 0.000588 1690.34497 1693.00366
1660.0 0.000602 1689.26807 1729.43884
1693.0 0.000591 1688.19153 1773.30859
1768.0 0.000566 1687.11572 1822.17700
1814.0 0.000551 1686.04016 1869.93018
1803.0 0.000555 1684.96497 1907.15820
1826.0 0.000548 1683.89014 1925.26758
1882.0 0.000531 1682.81580 1922.28210
1819.0 0.000550 1681.74158 1903.52136
1721.0 0.000581 1680.66821 1875.36206
1788.0 0.000559 1679.59497 1840.44250
1702.0 0.000588 1678.52222 1799.58972
1779.0 0.000562 1677.44983 1755.51917
1679.0 0.000596 1676.37781 1712.67212
1701.0 0.000588 1675.30603 1674.58472
1761.0 0.000568 1674.23511 1642.66479
1660.0 0.000602 1673.16443 1616.69519
1675.0 0.000597 1672.09399 1595.80139
1709.0 0.000585 1671.02405 1578.97864
1583.0 0.000632 1669.95435 1565.32434
1569.0 0.000637 1668.88538 1554.11938
1594.0 0.000627 1667.81665 1544.79309
1614.0 0.000620 1666.74829 1536.92029
1549.0 0.000646 1665.68042 1530.18018
1670.0 0.000599 1664.61279 1524.32971
1635.0 0.000612 1663.54553 1519.18774
1593.0 0.000628 1662.47913 1514.61865
1552.0 0.000644 1661.41260 1510.51392
1551.0 0.000645 1660.34680 1506.79272
1516.0 0.000660 1659.28149 1503.39124
1555.0 0.000643 1658.21606 1500.25671
1545.0 0.000647 1657.15149 1497.34851
1529.0 0.000654 1656.08740 1494.63440
1548.0 0.000646 1655.02332 1492.08484
1487.0 0.000672 1653.95972 1489.67859
1538.0 0.000650 1652.89685 1487.39709
1550.0 0.000645 1651.83398 1485.22339
1601.0 0.000625 1650.77161 1483.14514
1491.0 0.000671 1649.70996 1481.15149
1589.0 0.000629 1648.64832 1479.23181
1493.0 0.000670 1647.58728 1477.37891
1523.0 0.000657 1646.52686 1475.58569
1534.0 0.000652 1645.46655 1473.84570
1508.0 0.000663 1644.40649 1472.15356
1474.0 0.000678 1643.34717 1470.50549
1547.0 0.000646 1642.28809 1468.89673
1546.0 0.000647 1641.22925 1467.32373
1500.0 0.000667 1640.17126 1465.78418
1427.0 0.000701 1639.11316 1464.27441
1445.0 0.000692 1638.05591 1462.79297
1463.0 0.000684 1636.99890 1461.33655
1469.0 0.000681 1635.94226 1459.90393
1547.0 0.000646 1634.88599 1458.49304
1489.0 0.000672 1633.83032 1457.10278
1481.0 0.000675 1632.77466 1455.73096
1519.0 0.000658 1631.71973 1454.37695
1463.0 0.000684 1630.66516 1453.03955
1482.0 0.000675 1629.61096 1451.71729
1444.0 0.000693 1628.55713 1450.40967
1526.0 0.000655 1627.50378 1449.11523
1434.0 0.000697 1626.45056 1447.83362
1468.0 0.000681 1625.39819 1446.56409
1422.0 0.000703 1624.34595 1445.30579
1523.0 0.000657 1623.29419 1444.05823
1479.0 0.000676 1622.24280 1442.82043
1499.0 0.000667 1621.19177 1441.59253
1446.0 0.000692 1620.14111 1440.37317
1431.0 0.000699 1619.09106 1439.16296
1439.0 0.000695 1618.04126 1437.96021
1427.0 0.000701 1616.99182 1436.76538
1423.0 0.000703 1615.94299 1435.57800
1419.0 0.000705 1614.89429 1434.39734
1432.0 0.000698 1613.84595 1433.22314
1461.0 0.000684 1612.79846 1432.05579
1349.0 0.000741 1611.75110 1429.36145
1425.0 0.000702 1610.70435 1428.24927
1387.0 0.000721 1609.65759 1427.14038
1405.0 0.000712 1608.61145 1426.03491
1477.0 0.000677 1607.56592 1424.93323
1389.0 0.000720 1606.52039 1423.08496
1347.0 0.000742 1605.47546 1422.01025
1426.0 0.000701 1604.43115 1420.93799
1370.0 0.000730 1603.38684 1419.86707
1469.0 0.000681 1602.34314 1418.79822
1366.0 0.000732 1601.29993 1417.73132
1385.0 0.000722 1600.25708 1416.66614
1418.0 0.000705 1599.21436 1415.60229
1419.0 0.000705 1598.17249 1414.54053
1400.0 0.000714 1597.13074 1413.48022
1401.0 0.000714 1596.08923 1412.42102
1419.0 0.000705 1595.04858 1411.36353
1367.0 0.000732 1594.00806 1410.30725
1414.0 0.000707 1592.96777 1409.25220
1407.0 0.000711 1591.92834 1408.19873
1348.0 0.000742 1590.88904 1407.14612
1490.0 0.000671 1589.84998 1406.09448
1373.0 0.000728 1588.81165 1405.04431
1360.0 0.000735 1587.77356 1403.99487
1449.0 0.000690 1586.73572 1402.94629
1406.0 0.000711 1585.69873 1401.89880
1380.0 0.000725 1584.66187 1400.85205
1444.0 0.000693 1583.62524 1399.80591
1398.0 0.000715 1582.58936 1398.76086
1445.0 0.000692 1581.55371 1397.71619
1434.0 0.000697 1580.51843 1396.67224
1423.0 0.000703 1579.48364 1395.62891
1440.0 0.000694 1578.44897 1394.58582
1390.0 0.000719 1577.41516 1393.54358
1347.0 0.000742 1576.38147 1392.50146
1323.0 0.000756 1575.34827 1391.46008
1383.0 0.000723 1574.31543 1390.41870
1338.0 0.000747 1573.28308 1389.37781
1352.0 0.000740 1572.25085 1388.33679
1395.0 0.000717 1571.21948 1387.29639
1408.0 0.000710 1570.18823 1386.25598
1400.0 0.000714 1569.15735 1385.21570
1371.0 0.000729 1568.12695 1384.17542
1362.0 0.000734 1567.09705 1383.13513
1360.0 0.000735 1566.06726 1382.09473
1341.0 0.000746 1565.03821 1381.05457
1371.0 0.000729 1564.00952 1380.01404
1366.0 0.000732 1562.98108 1378.97339
1322.0 0.000756 1561.95300 1377.93250
1315.0 0.000760 1560.92554 1376.89136
1354.0 0.000739 1559.89819 1375.84961
1344.0 0.000744 1558.87158 1374.80823
1349.0 0.000741 1557.84521 1373.76599
1363.0 0.000734 1556.81921 1372.72339
1341.0 0.000746 1555.79382 1371.68042
1283.0 0.000779 1554.76855 1370.63660
1359.0 0.000736 1553.74402 1369.59265
1262.0 0.000792 1552.71960 1368.54785
1304.0 0.000767 1551.69543 1367.50220
1346.0 0.000743 1550.67212 1366.45630
1345.0 0.000743 1549.64893 1365.40930
1342.0 0.000745 1548.62610 1364.36157
1398.0 0.000715 1547.60388 1363.31311
1396.0 0.000716 1546.58203 1362.26367
1313.0 0.000762 1545.56030 1361.21313
1360.0 0.000735 1544.53931 1361.65845
1340.0 0.000746 1543.51868 1360.66077
1348.0 0.000742 1542.49817 1359.66492
1323.0 0.000756 1541.47839 1358.67114
1341.0 0.000746 1540.45898 1357.67993
1336.0 0.000749 1539.43982 1357.43750
1316.0 0.000760 1538.42114 1356.47888
1377.0 0.000726 1537.40283 1355.52478
1293.0 0.000773 1536.38477 1354.57568
1314.0 0.000761 1535.36743 1353.63245
1315.0 0.000760 1534.35034 1352.69482
1317.0 0.000759 1533.33374 1351.76428
1320.0 0.000758 1532.31750 1350.84082
1307.0 0.000765 1531.30151 1349.92566
1375.0 0.000727 1530.28589 1349.01917
1365.0 0.000733 1529.27100 1348.12292
1319.0 0.000758 1528.25635 1347.23755
1350.0 0.000741 1527.24207 1346.36438
1324.0 0.000755 1526.22827 1345.50464
1365.0 0.000733 1525.21460 1344.65979
1346.0 0.000743 1524.20178 1343.83215
1342.0 0.000745 1523.18909 1343.02332
1297.0 0.000771 1522.17688 1342.23572
1295.0 0.000772 1521.16504 1341.47192
1383.0 0.000723 1520.15369 1340.73486
1318.0 0.000759 1519.14233 1340.02820
1368.0 0.000731 1518.13196 1339.35608
1340.0 0.000746 1517.12170 1338.72339
1263.0 0.000792 1516.11194 1338.13525
1325.0 0.000755 1515.10254 1337.59827
1311.0 0.000763 1514.09351 1337.12073
1322.0 0.000756 1513.08472 1336.71082
1332.0 0.000751 1512.07690 1336.38074
1360.0 0.000735 1511.06885 1336.14221
1373.0 0.000728 1510.06152 1336.01196
1352.0 0.000740 1509.05469 1336.00928
1386.0 0.000722 1508.04797 1336.15723
1361.0 0.000735 1507.04175 1336.48560
1355.0 0.000738 1506.03613 1337.02991
1342.0 0.000745 1505.03052 1337.83691
1415.0 0.000707 1504.02563 1338.96460
1430.0 0.000699 1503.02124 1340.48877
1389.0 0.000720 1502.01685 1342.50842
1357.0 0.000737 1501.01306 1345.15442
1403.0 0.000713 1500.00989 1348.60010
1450.0 0.000690 1499.00671 1353.08081
1477.0 0.000677 1498.00439 1358.90771
1474.0 0.000678 1497.00220 1366.49390
1580.0 0.000633 1496.00037 1376.37305
1571.0 0.000637 1494.99915 1389.20264
1557.0 0.000642 1493.99817 1405.75073
1537.0 0.000651 1492.99768 1426.73364
1582.0 0.000632 1491.99756 1452.44885
1713.0 0.000584 1490.99780 1482.03394
1606.0 0.000623 1489.99829 1512.46533
1704.0 0.000587 1488.99963 1538.24329
1625.0 0.000615 1488.00098 1553.31445
1736.0 0.000576 1487.00293 1554.94800
1683.0 0.000594 1486.00525 1545.82178
1631.0 0.000613 1485.00793 1530.91809
1679.0 0.000596 1484.01086 1513.27930
1597.0 0.000626 1483.01453 1492.22278
1657.0 0.000604 1482.01843 1467.62183
1566.0 0.000639 1481.02271 1441.03687
1551.0 0.000645 1480.02747 1415.21045
1528.0 0.000654 1479.03259 1392.22693
1520.0 0.000658 1478.03784 1373.00903
1474.0 0.000678 1477.04407 1357.15967
1432.0 0.000698 1476.05029 1344.28235
1415.0 0.000707 1475.05701 1333.79553
1368.0 0.000731 1474.06421 1325.17761
1369.0 0.000730 1473.07178 1318.00354
1428.0 0.000700 1472.07947 1311.94324
1377.0 0.000726 1471.08801 1306.74744
1350.0 0.000741 1470.09680 1302.22314
1369.0 0.000730 1469.10608 1298.22925
1347.0 0.000742 1468.11548 1294.65588
1352.0 0.000740 1467.12524 1291.42151
1357.0 0.000737 1466.13599 1288.46472
1373.0 0.000728 1465.14661 1285.73340
1321.0 0.000757 1464.15771 1283.19067
1360.0 0.000735 1463.16943 1280.80591
1337.0 0.000748 1462.18127 1278.55310
1326.0 0.000754 1461.19360 1276.41333
1335.0 0.000749 1460.20667 1274.37036
1356.0 0.000737 1459.21960 1272.40967
1285.0 0.000778 1458.23328 1270.52075
1301.0 0.000769 1457.24744 1268.69482
1313.0 0.000762 1456.26160 1266.92310
1326.0 0.000754 1455.27637 1265.19983
1339.0 0.000747 1454.29175 1263.52014
1320.0 0.000758 1453.30737 1261.87854
1345.0 0.000743 1452.32324 1260.27173
1293.0 0.000773 1451.33984 1258.69678
1278.0 0.000782 1450.35657 1257.15088
1330.0 0.000752 1449.37366 1255.63184
1288.0 0.000776 1448.39148 1254.13879
1287.0 0.000777 1447.40955 1252.66968
1351.0 0.000740 1446.42773 1251.22375
1229.0 0.000814 1445.44678 1249.80188
1230.0 0.000813 1444.46582 1248.40186
1294.0 0.000773 1443.48560 1247.02563
1269.0 0.000788 1442.50574 1245.67334
1316.0 0.000760 1441.52612 1244.34619
1266.0 0.000790 1440.54700 1243.04553
1227.0 0.000815 1439.56824 1241.77405
1213.0 0.000824 1438.58972 1240.53394
1283.0 0.000779 1437.61194 1239.32971
1276.0 0.000784 1436.63452 1238.16504
1237.0 0.000808 1435.65735 1237.04639
1266.0 0.000790 1434.68066 1235.98035
1355.0 0.000738 1433.70435 1234.97656
1265.0 0.000791 1432.72815 1232.55969
1250.0 0.000800 1431.75293 1231.76978
1253.0 0.000798 1430.77771 1231.08472
1262.0 0.000792 1429.80310 1230.53015
1310.0 0.000763 1428.82874 1230.13989
1285.0 0.000778 1427.85486 1229.22070
1214.0 0.000824 1426.88123 1229.33154
1231.0 0.000812 1425.90820 1229.78723
1272.0 0.000786 1424.93555 1230.69214
1244.0 0.000804 1423.96326 1232.17981
1226.0 0.000816 1422.99146 1234.41711
1271.0 0.000787 1422.02002 1237.59900
1292.0 0.000774 1421.04871 1241.91687
1288.0 0.000776 1420.07813 1247.47205
1296.0 0.000772 1419.10791 1254.10852
1255.0 0.000797 1418.13806 1261.14697
1278.0 0.000782 1417.16858 1267.25049
1264.0 0.000791 1416.19958 1270.79333
1379.0 0.000725 1415.23108 1270.83203
1286.0 0.000778 1414.26257 1267.84326
1242.0 0.000805 1413.29480 1263.16455
1266.0 0.000790 1412.32751 1257.74756
1251.0 0.000799 1411.36047 1251.66565
1249.0 0.000801 1410.39368 1244.66211
1237.0 0.000808 1409.42761 1236.89209
1225.0 0.000816 1408.46179 1228.98938
1278.0 0.000782 1407.49622 1221.61584
1196.0 0.000836 1406.53137 1215.12500
1206.0 0.000829 1405.56677 1209.57275
1295.0 0.000772 1404.60242 1204.86084
1189.0 0.000841 1403.63879 1200.84497
1248.0 0.000801 1402.67529 1197.37988
1198.0 0.000835 1401.71216 1194.34619
1217.0 0.000822 1400.74976 1191.64941
1279.0 0.000782 1399.78760 1189.21411
1182.0 0.000846 1398.82556 1186.98425
1238.0 0.000808 1397.86438 1184.91858
1168.0 0.000856 1396.90344 1182.98364
1225.0 0.000816 1395.94275 1181.15540
1188.0 0.000842 1394.98267 1179.41541
1222.0 0.000818 1394.02283 1177.74915
1221.0 0.000819 1393.06335 1176.14502
1223.0 0.000818 1392.10449 1174.59534
1184.0 0.000845 1391.14600 1173.09143
1177.0 0.000850 1390.18774 1171.62866
1192.0 0.000839 1389.22998 1170.20190
1136.0 0.000880 1388.27246 1168.80750
1131.0 0.000884 1387.31567 1167.44275
1096.0 0.000912 1386.35913 1166.10474
1162.0 0.000861 1385.40308 1164.79126
1156.0 0.000865 1384.44727 1163.50085
1161.0 0.000861 1383.49194 1162.23206
1223.0 0.000818 1382.53687 1160.98303
1189.0 0.000841 1381.58252 1159.75427
1179.0 0.000848 1380.62842 1158.54333
1178.0 0.000849 1379.67468 1157.35071
1168.0 0.000856 1378.72131 1156.17480
1128.0 0.000887 1377.76843 1155.01611
1138.0 0.000879 1376.81580 1153.87317
1153.0 0.000867 1375.86389 1152.74695
1128.0 0.000887 1374.91211 1151.63635
1187.0 0.000842 1373.96082 1150.54138
1161.0 0.000861 1373.01001 1149.46155
1186.0 0.000843 1372.05957 1148.39746
1108.0 0.000903 1371.10950 1147.34839
1151.0 0.000869 1370.15979 1146.31445
1112.0 0.000899 1369.21045 1145.29541
1137.0 0.000880 1368.26147 1144.29187
1134.0 0.000882 1367.31287 1143.30322
1179.0 0.000848 1366.36511 1142.33008
1128.0 0.000887 1365.41748 1141.37170
1169.0 0.000855 1364.47021 1140.42871
1121.0 0.000892 1363.52319 1139.50073
1077.0 0.000929 1362.57678 1138.58826
1116.0 0.000896 1361.63074 1137.69116
1084.0 0.000923 1360.68518 1136.80957
1154.0 0.000867 1359.73999 1135.94360
1126.0 0.000888 1358.79517 1135.09290
1127.0 0.000887 1357.85046 1134.25806
1086.0 0.000921 1356.90649 1133.43884
1093.0 0.000915 1355.96265 1132.63550
1201.0 0.000833 1355.01978 1131.84851
1083.0 0.000923 1354.07690 1131.07715
1103.0 0.000907 1353.13452 1130.32190
1145.0 0.000873 1352.19250 1129.58301
1097.0 0.000912 1351.25073 1128.85986
1166.0 0.000858 1350.30969 1127.88147
1060.0 0.000943 1349.36890 1127.19922
1152.0 0.000868 1348.42847 1126.53308
1139.0 0.000878 1347.48853 1125.88318
1099.0 0.000910 1346.54895 1125.24963
1140.0 0.000877 1345.60938 1124.49634
1141.0 0.000876 1344.67114 1123.89990
1173.0 0.000853 1343.73254 1123.31934
1105.0 0.000905 1342.79456 1122.75537
1135.0 0.000881 1341.85706 1122.20789
1164.0 0.000859 1340.91980 1121.67700
1117.0 0.000895 1339.98303 1121.16296
1122.0 0.000891 1339.04688 1120.66541
1190.0 0.000840 1338.11072 1120.18457
1050.0 0.000952 1337.17517 1119.72058
1101.0 0.000908 1336.23999 1119.27368
1167.0 0.000857 1335.30530 1118.84326
1138.0 0.000879 1334.37061 1118.42969
1156.0 0.000865 1333.43713 1118.03345
1147.0 0.000872 1332.50342 1117.65369
1093.0 0.000915 1331.57031 1117.29089
1083.0 0.000923 1330.63757 1116.94495
1076.0 0.000929 1329.70520 1116.61597
1107.0 0.000903 1328.77332 1116.30396
1119.0 0.000894 1327.84192 1116.00867
1129.0 0.000886 1326.91089 1115.73022
1135.0 0.000881 1325.97998 1115.46838
1098.0 0.000911 1325.04968 1115.22339
1138.0 0.000879 1324.11951 1114.99512
1176.0 0.000850 1323.19043 1114.78345
1150.0 0.000870 1322.26135 1114.58826
1109.0 0.000902 1321.33264 1114.40967
1101.0 0.000908 1320.40417 1115.70825
1094.0 0.000914 1319.47620 1115.60559
1136.0 0.000880 1318.54871 1115.52112
1092.0 0.000916 1317.62183 1115.45471
1099.0 0.000910 1316.69519 1115.40686
1153.0 0.000867 1315.76892 1115.37720
1136.0 0.000880 1314.84302 1116.10022
1075.0 0.000930 1313.91736 1116.12903
1148.0 0.000871 1312.99219 1116.17712
1126.0 0.000888 1312.06787 1116.24487
1149.0 0.000870 1311.14355 1116.33203
1112.0 0.000899 1310.21973 1116.43933
1120.0 0.000893 1309.29626 1116.56641
1081.0 0.000925 1308.37305 1116.71338
1080.0 0.000926 1307.45044 1116.88098
1055.0 0.000948 1306.52832 1117.06909
1101.0 0.000908 1305.60657 1117.27808
1146.0 0.000873 1304.68506 1117.50842
1147.0 0.000872 1303.76404 1117.75989
1122.0 0.000891 1302.84326 1118.03381
1047.0 0.000955 1301.92285 1118.32971
1167.0 0.000857 1301.00342 1118.64844
1122.0 0.000891 1300.08398 1118.99072
1077.0 0.000929 1299.16492 1119.35706
1082.0 0.000924 1298.24634 1119.74841
1061.0 0.000943 1297.32813 1120.16541
1102.0 0.000907 1296.41052 1120.60876
1156.0 0.000865 1295.49292 1121.07996
1079.0 0.000927 1294.57593 1121.58020
1141.0 0.000876 1293.65930 1122.11047
1095.0 0.000913 1292.74316 1122.67297
1084.0 0.000923 1291.82703 1123.26941
1122.0 0.000891 1290.91223 1125.12244
1102.0 0.000907 1289.99719 1125.83679
1085.0 0.000922 1289.08252 1126.59473
1085.0 0.000922 1288.16833 1127.39954
1092.0 0.000916 1287.25452 1128.25488
1182.0 0.000846 1286.34119 1129.16528
1107.0 0.000903 1285.42834 1130.75061
1139.0 0.000878 1284.51575 1131.80969
1149.0 0.000870 1283.60352 1132.94397
1062.0 0.000942 1282.69177 1134.16077
1140.0 0.000877 1281.78040 1135.47046
1136.0 0.000880 1280.86938 1136.88452
1128.0 0.000887 1279.95911 1138.41516
1192.0 0.000839 1279.04895 1140.08044
1132.0 0.000883 1278.13904 1141.89978
1102.0 0.000907 1277.22974 1143.89624
1134.0 0.000882 1276.32080 1146.09863
1051.0 0.000951 1275.41248 1148.54089
1124.0 0.000890 1274.50439 1151.26782
1168.0 0.000856 1273.59668 1154.33289
1115.0 0.000897 1272.68933 1157.80310
1163.0 0.000860 1271.78223 1161.76550
1161.0 0.000861 1270.87561 1166.33154
1178.0 0.000849 1269.96985 1171.64197
1152.0 0.000868 1269.06421 1177.89404
1129.0 0.000886 1268.15881 1185.33789
1180.0 0.000847 1267.25391 1194.31042
1128.0 0.000887 1266.34937 1205.25659
1128.0 0.000887 1265.44531 1218.75525
1178.0 0.000849 1264.54175 1235.54114
1163.0 0.000860 1263.63843 1256.52344
1197.0 0.000835 1262.73560 1282.70605
1200.0 0.000833 1261.83313 1314.98254
1174.0 0.000852 1260.93103 1353.58130
1221.0 0.000819 1260.02905 1397.01636
1221.0 0.000819 1259.12817 1440.69861
1191.0 0.000840 1258.22729 1476.90063
1170.0 0.000855 1257.32678 1497.63220
1250.0 0.000800 1256.42676 1500.26733
1208.0 0.000828 1255.52722 1489.70337
1130.0 0.000885 1254.62781 1473.67590
1226.0 0.000816 1253.72913 1456.55359
1239.0 0.000807 1252.83069 1437.75220
1220.0 0.000820 1251.93262 1414.91199
1252.0 0.000799 1251.03503 1387.93237
1257.0 0.000796 1250.13745 1359.82837
1278.0 0.000782 1249.24121 1334.43323
1224.0 0.000817 1248.34473 1314.23584
1206.0 0.000829 1247.44861 1300.25073
1267.0 0.000789 1246.55298 1292.62683
1275.0 0.000784 1245.65784 1291.25281
1307.0 0.000765 1244.76294 1296.02173
1274.0 0.000785 1243.86877 1306.75720
1310.0 0.000763 1242.97473 1322.80920
1329.0 0.000752 1242.08105 1342.26599
1307.0 0.000765 1241.18787 1361.23657
1339.0 0.000747 1240.29504 1374.36670
1374.0 0.000728 1239.40247 1377.58972
1356.0 0.000737 1238.51086 1371.23474
1352.0 0.000740 1237.61926 1359.50171
1360.0 0.000735 1236.72815 1346.53210
1280.0 0.000781 1235.83728 1333.50537
1335.0 0.000749 1234.94678 1319.05798
1272.0 0.000786 1234.05688 1301.81372
1308.0 0.000765 1233.16748 1282.34558
1316.0 0.000760 1232.27844 1262.72620
1293.0 0.000773 1231.38965 1244.88025
1180.0 0.000847 1230.50122 1229.72083
1221.0 0.000819 1229.61316 1217.32202
1233.0 0.000811 1228.72546 1207.35107
1215.0 0.000823 1227.83875 1199.37915
1154.0 0.000867 1226.95203 1192.98193
1166.0 0.000858 1226.06567 1187.81897
1149.0 0.000870 1225.17957 1183.61743
1133.0 0.000883 1224.29407 1180.16504
1179.0 0.000848 1223.40906 1177.30103
1136.0 0.000880 1222.52441 1174.90088
1114.0 0.000898 1221.64014 1172.87219
1160.0 0.000862 1220.75623 1171.14319
1131.0 0.000884 1219.87268 1169.65857
1128.0 0.000887 1218.98926 1168.37524
1165.0 0.000858 1218.10693 1167.25903
1112.0 0.000899 1217.22461 1166.28247
1175.0 0.000851 1216.34277 1165.42261
1189.0 0.000841 1215.46130 1164.66162
1158.0 0.000864 1214.58020 1163.98462
1095.0 0.000913 1213.69934 1163.37878
1102.0 0.000907 1212.81946 1162.83423
1160.0 0.000862 1211.93945 1162.34131
1153.0 0.000867 1211.05994 1161.89258
1156.0 0.000865 1210.18091 1161.48218
1170.0 0.000855 1209.30225 1161.10413
1092.0 0.000916 1208.42371 1160.75403
1143.0 0.000875 1207.54626 1160.42749
1119.0 0.000894 1206.66870 1160.12073
1098.0 0.000911 1205.79163 1159.83130
1155.0 0.000866 1204.91504 1159.55566
1213.0 0.000824 1204.03882 1159.29224
1136.0 0.000880 1203.16296 1159.03845
1180.0 0.000847 1202.28772 1158.79260
1086.0 0.000921 1201.41248 1158.55273
1177.0 0.000850 1200.53784 1158.31750
1125.0 0.000889 1199.66370 1158.08594
1155.0 0.000866 1198.78967 1157.85608
1175.0 0.000851 1197.91663 1157.62817
1139.0 0.000878 1197.04370 1155.91125
1217.0 0.000822 1196.17102 1155.72522
1136.0 0.000880 1195.29871 1155.53589
1129.0 0.000886 1194.42688 1155.34326
1142.0 0.000876 1193.55554 1155.14648
1095.0 0.000913 1192.68469 1154.94519
1072.0 0.000933 1191.81409 1154.00684
1111.0 0.000900 1190.94397 1153.81592
1166.0 0.000858 1190.07397 1152.40601
1153.0 0.000867 1189.20459 1152.24341
1112.0 0.000899 1188.33545 1152.07214
1201.0 0.000833 1187.46729 1151.89172
1195.0 0.000837 1186.59912 1151.70276
1080.0 0.000926 1185.73132 1150.88721
1079.0 0.000927 1184.86401 1150.70166
1162.0 0.000861 1183.99683 1150.50623
1092.0 0.000916 1183.13025 1150.30103
1079.0 0.000927 1182.26440 1150.08643
1147.0 0.000872 1181.39856 1149.86206
1145.0 0.000873 1180.53320 1149.62866
1197.0 0.000835 1179.66833 1149.38599
1103.0 0.000907 1178.80347 1149.13428
1090.0 0.000917 1177.93970 1148.87390
1135.0 0.000881 1177.07593 1148.60486
1135.0 0.000881 1176.21265 1148.32739
1081.0 0.000925 1175.34973 1148.04138
1154.0 0.000867 1174.48718 1147.74744
1165.0 0.000858 1173.62488 1147.44543
1114.0 0.000898 1172.76355 1147.13611
1115.0 0.000897 1171.90210 1146.81897
1147.0 0.000872 1171.04126 1146.49463
1081.0 0.000925 1170.18079 1146.16309
1117.0 0.000895 1169.32056 1145.82471
1123.0 0.000890 1168.46057 1145.47937
1205.0 0.000830 1167.60181 1145.12781
1151.0 0.000869 1166.74280 1144.76990
1140.0 0.000877 1165.88428 1144.40601
1089.0 0.000918 1165.02625 1144.03625
1127.0 0.000887 1164.16858 1143.66089
1107.0 0.000903 1163.31128 1143.28015
1123.0 0.000890 1162.45459 1142.89429
1141.0 0.000876 1161.59814 1142.50366
1094.0 0.000914 1160.74194 1142.10815
1171.0 0.000854 1159.88635 1141.70837
1158.0 0.000864 1159.03101 1141.30444
1178.0 0.000849 1158.17590 1140.89624
1144.0 0.000874 1157.32190 1140.48499
1072.0 0.000933 1156.46790 1140.06982
1176.0 0.000850 1155.61414 1139.65149
1115.0 0.000897 1154.76086 1139.23035
1150.0 0.000870 1153.90808 1138.80627
1080.0 0.000926 1153.05579 1138.38000
1120.0 0.000893 1152.20374 1137.95154
1208.0 0.000828 1151.35217 1137.52100
1159.0 0.000863 1150.50085 1137.08875
1066.0 0.000938 1149.65002 1136.65503
1125.0 0.000889 1148.79944 1136.22021
1132.0 0.000883 1147.94971 1135.78455
1092.0 0.000916 1147.10010 1135.34790
1065.0 0.000939 1146.25098 1134.91101
1116.0 0.000896 1145.40222 1134.47400
1132.0 0.000883 1144.55359 1134.03687
1136.0 0.000880 1143.70569 1133.60022
1112.0 0.000899 1142.85815 1133.16394
1130.0 0.000885 1142.01111 1132.72864
1183.0 0.000845 1141.16431 1132.29431
1138.0 0.000879 1140.31799 1131.86121
1102.0 0.000907 1139.47180 1131.42969
1069.0 0.000935 1138.62610 1130.99976
1079.0 0.000927 1137.78125 1130.57214
1145.0 0.000873 1136.93652 1130.14685
1115.0 0.000897 1136.09216 1129.72375
1087.0 0.000920 1135.24817 1129.30347
1084.0 0.000923 1134.40466 1128.88623
1142.0 0.000876 1133.56140 1128.47192
1099.0 0.000910 1132.71875 1128.06116
1102.0 0.000907 1131.87646 1127.65405
1062.0 0.000942 1131.03455 1127.25061
1109.0 0.000902 1130.19299 1126.85144
1142.0 0.000876 1129.35156 1126.45618
1099.0 0.000910 1128.51135 1126.06592
1039.0 0.000962 1127.67090 1125.67981
1120.0 0.000893 1126.83093 1125.29871
1155.0 0.000866 1125.99146 1124.92273
1106.0 0.000904 1125.15234 1124.55188
1090.0 0.000917 1124.31360 1124.18665
1144.0 0.000874 1123.47546 1123.82690
1103.0 0.000907 1122.63770 1123.47314
1040.0 0.000962 1121.79993 1123.12500
1077.0 0.000929 1120.96289 1122.78333
1094.0 0.000914 1120.12622 1122.44775
1084.0 0.000923 1119.28967 1122.11877
1101.0 0.000908 1118.45422 1121.79639
1086.0 0.000921 1117.61877 1121.48083
1131.0 0.000884 1116.78345 1121.17212
1065.0 0.000939 1115.94885 1120.87048
1081.0 0.000925 1115.11462 1120.57605
1110.0 0.000901 1114.28076 1120.28894
1133.0 0.000883 1113.44751 1120.00928
1072.0 0.000933 1112.61438 1119.73718
1083.0 0.000923 1111.78174 1119.47266
1068.0 0.000936 1110.94934 1119.21594
1104.0 0.000906 1110.11755 1118.96729
1012.0 0.000988 1109.28589 1118.72644
1014.0 0.000986 1108.45520 1118.49402
1107.0 0.000903 1107.62451 1118.26953
1096.0 0.000912 1106.79443 1118.05322
1081.0 0.000925 1105.96436 1117.84521
1058.0 0.000945 1105.13501 1117.64551
1092.0 0.000916 1104.30615 1117.45435
1096.0 0.000912 1103.47754 1117.27173
1001.0 0.000999 1102.64929 1117.09753
987.0 0.001013 1101.82153 1116.93213
1037.0 0.000964 1100.99390 1117.30310
1053.0 0.000950 1100.16675 1117.17041
1071.0 0.000934 1099.34045 1117.04712
1077.0 0.000929 1098.51428 1116.93323
1064.0 0.000940 1097.68848 1116.82898
1057.0 0.000946 1096.86316 1116.73413
1071.0 0.000934 1096.03821 1116.90881
1100.0 0.000909 1095.21350 1116.84082
1113.0 0.000898 1094.38940 1116.78296
1027.0 0.000974 1093.56567 1116.73511
1088.0 0.000919 1092.74231 1116.69763
1048.0 0.000954 1091.91931 1116.67017
1066.0 0.000938 1091.09680 1116.65308
1056.0 0.000947 1090.27441 1116.64624
1106.0 0.000904 1089.45300 1116.65015
1025.0 0.000976 1088.63159 1116.66418
1123.0 0.000890 1087.81067 1116.68933
1160.0 0.000862 1086.99011 1116.72485
1068.0 0.000936 1086.16992 1116.77136
1076.0 0.000929 1085.35034 1116.82886
1109.0 0.000902 1084.53101 1116.89746
1071.0 0.000934 1083.71191 1116.97742
1075.0 0.000930 1082.89343 1117.06885
1104.0 0.000906 1082.07532 1117.17188
1088.0 0.000919 1081.25745 1117.28674
1048.0 0.000954 1080.44043 1117.41357
1059.0 0.000944 1079.62354 1117.55310
1048.0 0.000954 1078.80688 1117.70544
1017.0 0.000983 1077.99084 1117.87109
1043.0 0.000959 1077.17505 1118.05005
1085.0 0.000922 1076.35986 1118.24304
1066.0 0.000938 1075.54504 1118.45105
1080.0 0.000926 1074.73059 1118.67444
1072.0 0.000933 1073.91650 1118.91406
1115.0 0.000897 1073.10266 1119.17065
1008.0 0.000992 1072.28943 1119.44543
1044.0 0.000958 1071.47644 1119.73975
1040.0 0.000962 1070.66431 1120.05493
1045.0 0.000957 1069.85217 1120.39258
1043.0 0.000959 1069.04053 1120.75452
1126.0 0.000888 1068.22913 1121.14380
1127.0 0.000887 1067.41833 1121.56226
1113.0 0.000898 1066.60779 1122.01379
1085.0 0.000922 1065.79797 1122.50208
1083.0 0.000923 1064.98828 1123.03162
1083.0 0.000923 1064.17908 1123.60815
1094.0 0.000914 1063.37024 1124.23840
1062.0 0.000942 1062.56152 1124.93042
1070.0 0.000935 1061.75378 1125.69385
1064.0 0.000940 1060.94617 1126.54163
1080.0 0.000926 1060.13892 1127.48816
1092.0 0.000916 1059.33215 1128.55322
1088.0 0.000919 1058.52576 1129.75989
1070.0 0.000935 1057.71960 1131.13989
1137.0 0.000880 1056.91406 1132.73193
1115.0 0.000897 1056.10889 1134.58936
1140.0 0.000877 1055.30408 1136.78064
1093.0 0.000915 1054.49963 1139.39722
1089.0 0.000918 1053.69568 1142.55994
1098.0 0.000911 1052.89185 1146.42993
1157.0 0.000864 1052.08911 1151.20862
1179.0 0.000848 1051.28613 1157.55054
1191.0 0.000840 1050.48376 1165.00049
1216.0 0.000822 1049.68188 1174.27307
1229.0 0.000814 1048.88025 1185.63977
1193.0 0.000838 1048.07910 1199.08923
1201.0 0.000833 1047.27844 1213.92651
1187.0 0.000842 1046.47791 1228.33997
1244.0 0.000804 1045.67798 1239.65088
1292.0 0.000774 1044.87842 1244.86243
1238.0 0.000808 1044.07935 1243.76843
1214.0 0.000824 1043.28027 1238.57385
1182.0 0.000846 1042.48242 1232.22437
1178.0 0.000849 1041.68445 1226.35083
1211.0 0.000826 1040.88672 1220.73132
1192.0 0.000839 1040.08960 1214.08960
1147.0 0.000872 1039.29285 1205.53613
1206.0 0.000829 1038.49670 1195.45764
1216.0 0.000822 1037.70081 1185.08484
1135.0 0.000881 1036.90527 1175.54285
1138.0 0.000879 1036.10999 1167.38635
1170.0 0.000855 1035.31531 1160.69727
1088.0 0.000919 1034.52087 1155.32007
1126.0 0.000888 1033.72729 1151.03442
1170.0 0.000855 1032.93372 1147.61475
1105.0 0.000905 1032.14063 1144.87695
1161.0 0.000861 1031.34778 1142.67102
1084.0 0.000923 1030.55554 1140.87976
1118.0 0.000894 1029.76367 1139.41357
1088.0 0.000919 1028.97229 1138.20300
1099.0 0.000910 1028.18127 1137.19629
1063.0 0.000941 1027.39063 1136.78613
1028.0 0.000973 1026.60034 1136.09265
1041.0 0.000961 1025.81030 1135.50977
1068.0 0.000936 1025.02075 1135.01892
1053.0 0.000950 1024.23193 1134.60571
1064.0 0.000940 1023.44330 1134.25867
1056.0 0.000947 1022.65503 1133.96936
1028.0 0.000973 1021.86719 1133.94800
1075.0 0.000930 1021.07959 1133.76074
1005.0 0.000995 1020.29254 1133.61462
1022.0 0.000978 1019.50604 1133.50623
1078.0 0.000928 1018.71985 1133.43420
1113.0 0.000898 1017.93402 1133.39685
1027.0 0.000974 1017.14856 1133.39453
1082.0 0.000924 1016.36328 1133.42822
1073.0 0.000932 1015.57910 1133.50012
1082.0 0.000924 1014.79474 1133.61292
1016.0 0.000984 1014.01093 1133.77112
1064.0 0.000940 1013.22754 1133.98083
973.0 0.001028 1012.44452 1134.24915
1036.0 0.000965 1011.66193 1134.58643
1097.0 0.000912 1010.87982 1135.00488
1080.0 0.000926 1010.09790 1135.52100
1106.0 0.000904 1009.31653 1136.15540
1156.0 0.000865 1008.53552 1136.93542
1152.0 0.000868 1007.75494 1137.89636
1049.0 0.000953 1006.97449 1139.08508
1095.0 0.000913 1006.19519 1140.56250
1136.0 0.000880 1005.41577 1142.41174
1145.0 0.000873 1004.63666 1144.73975
1091.0 0.000917 1003.85809 1147.68530
1117.0 0.000895 1003.07996 1151.42334
1157.0 0.000864 1002.30219 1156.16833
1176.0 0.000850 1001.52496 1162.15564
1146.0 0.000873 1000.74805 1169.60217
1210.0 0.000826 999.97131 1178.57239
1148.0 0.000871 999.19519 1188.74438
1124.0 0.000890 998.41931 1199.08557
1199.0 0.000834 997.64423 1207.73291
1148.0 0.000871 996.86932 1212.67297
1206.0 0.000829 996.09479 1213.06018
1186.0 0.000843 995.32068 1209.99207
1253.0 0.000798 994.54681 1205.60059
1228.0 0.000814 993.77350 1201.51147
1222.0 0.000818 993.00073 1198.07617
1246.0 0.000803 992.22821 1194.61011
1239.0 0.000807 991.45612 1189.74109
1259.0 0.000794 990.68439 1184.44470
1245.0 0.000803 989.91296 1178.94385
1233.0 0.000811 989.14191 1174.28809
1303.0 0.000767 988.37170 1171.26343
1248.0 0.000801 987.60162 1170.27002
1245.0 0.000803 986.83197 1171.42432
1268.0 0.000789 986.06268 1174.31519
1241.0 0.000806 985.29364 1178.90820
1300.0 0.000769 984.52515 1183.74792
1207.0 0.000829 983.75720 1187.08337
1306.0 0.000766 982.98956 1187.37122
1289.0 0.000776 982.22229 1184.37329
1258.0 0.000795 981.45544 1179.33618
1273.0 0.000786 980.68896 1173.91309
1243.0 0.000805 979.92267 1169.03308
1241.0 0.000806 979.15729 1164.58643
1258.0 0.000795 978.39203 1159.79565
1252.0 0.000799 977.62720 1154.00391
1216.0 0.000822 976.86273 1147.25916
1240.0 0.000806 976.09869 1140.20007
1195.0 0.000837 975.33521 1133.50464
1228.0 0.000814 974.57202 1127.54700
1179.0 0.000848 973.80902 1122.41650
1092.0 0.000916 973.04657 1118.04480
1166.0 0.000858 972.28461 1114.30811
1257.0 0.000796 971.52264 1111.07996
1229.0 0.000814 970.76190 1108.25439
1195.0 0.000837 970.00110 1105.73865
1183.0 0.000845 969.24054 1103.46399
1235.0 0.000810 968.48053 1101.37744
1215.0 0.000823 967.72095 1099.43750
1162.0 0.000861 966.96173 1097.61206
1189.0 0.000841 966.20313 1095.87756
1176.0 0.000850 965.44476 1094.21436
1191.0 0.000840 964.68658 1092.60815
1153.0 0.000867 963.92902 1091.04810
1130.0 0.000885 963.17188 1089.52454
1159.0 0.000863 962.41498 1088.02979
1137.0 0.000880 961.65887 1086.55908
1121.0 0.000892 960.90289 1085.10583
1170.0 0.000855 960.14734 1083.66724
1122.0 0.000891 959.39203 1082.23877
1131.0 0.000884 958.63727 1080.81897
1124.0 0.000890 957.88293 1079.40479
1148.0 0.000871 957.12915 1077.99451
1016.0 0.000984 956.37561 1076.58618
1074.0 0.000931 955.62250 1075.17859
1078.0 0.000928 954.86957 1073.77026
1023.0 0.000978 954.11707 1072.36060
1050.0 0.000952 953.36548 1070.94897
1039.0 0.000962 952.61395 1069.53430
1027.0 0.000974 951.86279 1068.11584
1030.0 0.000971 951.11212 1066.69348
1054.0 0.000949 950.36182 1065.26648
1038.0 0.000963 949.61169 1063.83435
1005.0 0.000995 948.86237 1062.39771
984.0 0.001016 948.11328 1060.95544
1021.0 0.000979 947.36456 1059.50793
1026.0 0.000975 946.61627 1058.05469
996.0 0.001004 945.86835 1056.59570
1009.0 0.000991 945.12061 1055.13062
984.0 0.001016 944.37378 1053.27307
989.0 0.001011 943.62714 1051.80774
958.0 0.001044 942.88086 1050.33630
1012.0 0.000988 942.13495 1048.85876
977.0 0.001024 941.38953 1047.37549
1018.0 0.000982 940.64429 1045.88574
957.0 0.001045 939.89990 1043.77393
1015.0 0.000985 939.15552 1042.72107
1000.0 0.001000 938.41162 1041.24622
989.0 0.001011 937.66821 1039.76587
957.0 0.001045 936.92517 1038.28003
992.0 0.001008 936.18219 1036.56689
990.0 0.001010 935.44043 1035.07971
994.0 0.001006 934.69843 1033.58643
979.0 0.001021 933.95697 1032.30176
983.0 0.001017 933.21594 1030.80591
972.0 0.001029 932.47534 1029.30652
1019.0 0.000981 931.73523 1027.80359
951.0 0.001052 930.99542 1026.29761
1050.0 0.000952 930.25604 1024.78882
928.0 0.001078 929.51685 1023.27753
998.0 0.001002 928.77826 1021.76447
1004.0 0.000996 928.03992 1020.24927
971.0 0.001030 927.30237 1018.73389
941.0 0.001063 926.56500 1017.21722
996.0 0.001004 925.82800 1015.70007
1018.0 0.000982 925.09125 1014.18262
1043.0 0.000959 924.35504 1012.66602
989.0 0.001011 923.61926 1011.15021
1050.0 0.000952 922.88403 1009.63611
921.0 0.001086 922.14905 1008.12372
1005.0 0.000995 921.41449 1006.61365
979.0 0.001021 920.68018 1005.10638
1030.0 0.000971 919.94641 1003.60278
1054.0 0.000949 919.21289 1002.10303
1006.0 0.000994 918.48022 1000.60919
966.0 0.001035 917.74768 999.12030
973.0 0.001028 917.01550 997.63770
1020.0 0.000980 916.28381 996.16229
941.0 0.001063 915.55225 994.69446
985.0 0.001015 914.82147 993.23645
972.0 0.001029 914.09094 991.78827
968.0 0.001033 913.36078 990.35120
937.0 0.001067 912.63110 988.92706
995.0 0.001005 911.90179 987.51691
929.0 0.001076 911.17255 986.12213
949.0 0.001054 910.44446 984.74603
944.0 0.001059 909.71619 983.38904
923.0 0.001083 908.98846 982.05469
913.0 0.001095 908.26117 980.74561
920.0 0.001087 907.53430 979.46515
941.0 0.001063 906.80780 978.21722
962.0 0.001040 906.08179 977.00653
1005.0 0.000995 905.35596 975.83771
961.0 0.001041 904.63068 974.71851
981.0 0.001019 903.90582 973.65637
974.0 0.001027 903.18134 972.66077
887.0 0.001127 902.45697 971.74280
897.0 0.001115 901.73370 970.91888
916.0 0.001092 901.01025 970.20508
872.0 0.001147 900.28741 969.62598
911.0 0.001098 899.56494 969.21088
913.0 0.001095 898.84290 968.99841
914.0 0.001094 898.12122 969.03931
911.0 0.001098 897.40009 969.39996
905.0 0.001105 896.67926 970.16797
918.0 0.001089 895.95868 971.45721
879.0 0.001138 895.23859 973.41534
904.0 0.001106 894.51886 976.22760
893.0 0.001120 893.79987 980.11206
842.0 0.001188 893.08105 985.31555
886.0 0.001129 892.36261 992.04535
921.0 0.001086 891.64447 1000.34216
860.0 0.001163 890.92682 1009.82092
948.0 0.001055 890.20959 1019.33521
897.0 0.001115 889.49292 1026.89294
915.0 0.001093 888.77655 1030.37659
885.0 0.001130 888.06049 1028.95740
872.0 0.001147 887.34491 1023.83905
878.0 0.001139 886.62958 1017.30151
831.0 0.001203 885.91461 1011.13452
879.0 0.001138 885.20050 1005.84576
887.0 0.001127 884.48651 1000.75830
887.0 0.001127 883.77295 994.74646
855.0 0.001170 883.05975 987.18866
868.0 0.001152 882.34680 978.44763
836.0 0.001196 881.63446 969.46210
810.0 0.001235 880.92261 961.05566
893.0 0.001120 880.21106 953.63318
899.0 0.001112 879.49988 947.26910
868.0 0.001152 878.78912 941.96442
821.0 0.001218 878.07861 937.36694
826.0 0.001211 877.36853 933.41949
874.0 0.001144 876.65924 929.99249
870.0 0.001149 875.95007 926.97314
833.0 0.001200 875.24133 924.27777
857.0 0.001167 874.53302 921.84027
801.0 0.001248 873.82507 919.65900
765.0 0.001307 873.11768 917.59766
866.0 0.001155 872.41040 915.67340
864.0 0.001157 871.70367 913.86346
861.0 0.001161 870.99738 912.15009
825.0 0.001212 870.29144 910.51843
804.0 0.001244 869.58569 908.95673
882.0 0.001134 868.88098 907.45776
840.0 0.001190 868.17627 906.01178
861.0 0.001161 867.47180 904.61304
840.0 0.001190 866.76788 903.25708
870.0 0.001149 866.06439 901.93964
861.0 0.001161 865.36133 900.65674
855.0 0.001170 864.65875 899.40594
898.0 0.001114 863.95648 898.18433
813.0 0.001230 863.25446 896.98938
823.0 0.001215 862.55298 895.82001
772.0 0.001295 861.85187 894.67432
851.0 0.001175 861.15106 893.55078
836.0 0.001196 860.45105 892.44910
801.0 0.001248 859.75122 891.36713
828.0 0.001208 859.05164 890.30432
831.0 0.001203 858.35254 889.26031
821.0 0.001218 857.65393 888.23438
867.0 0.001153 856.95569 887.22565
827.0 0.001209 856.25793 886.23413
783.0 0.001277 855.56049 885.25909
836.0 0.001196 854.86346 884.30029
815.0 0.001227 854.16669 883.35748
825.0 0.001212 853.47034 882.43060
792.0 0.001263 852.77478 881.52002
849.0 0.001178 852.07935 880.62494
813.0 0.001230 851.38428 879.74579
856.0 0.001168 850.68970 878.88293
776.0 0.001289 849.99536 878.03577
826.0 0.001211 849.30151 877.20581
815.0 0.001227 848.60828 876.39307
782.0 0.001279 847.91528 875.59796
822.0 0.001217 847.22266 874.82159
871.0 0.001148 846.53046 874.06476
848.0 0.001179 845.83868 873.32886
847.0 0.001181 845.14697 872.61548
832.0 0.001202 844.45624 871.92694
883.0 0.001133 843.76569 871.26575
872.0 0.001147 843.07550 870.63452
822.0 0.001217 842.38574 870.03821
796.0 0.001256 841.69635 869.48175
762.0 0.001312 841.00726 868.53241
793.0 0.001261 840.31885 868.09113
818.0 0.001222 839.63068 867.71710
885.0 0.001130 838.94293 867.42627
871.0 0.001148 838.25555 867.23926
833.0 0.001200 837.56836 867.18317
808.0 0.001238 836.88220 867.29352
833.0 0.001200 836.19604 867.39514
837.0 0.001195 835.51019 867.98297
781.0 0.001280 834.82483 868.88855
866.0 0.001155 834.13995 870.15723
891.0 0.001122 833.45538 871.78961
875.0 0.001143 832.77136 873.67761
826.0 0.001211 832.08765 875.52899
814.0 0.001229 831.40417 876.85962
863.0 0.001159 830.72131 877.19116
902.0 0.001109 830.03876 876.38629
814.0 0.001229 829.35657 874.77783
866.0 0.001155 828.67511 872.91229
858.0 0.001166 827.99377 871.19177
858.0 0.001166 827.31287 869.72363
853.0 0.001172 826.63226 868.34631
847.0 0.001181 825.95221 866.78223
806.0 0.001241 825.27252 864.85370
853.0 0.001172 824.59338 862.61694
802.0 0.001247 823.91449 860.28333
838.0 0.001193 823.23596 858.05743
771.0 0.001297 822.55780 856.04974
832.0 0.001202 821.88013 854.28656
803.0 0.001245 821.20276 852.74963
839.0 0.001192 820.52612 851.40540
814.0 0.001229 819.84967 850.21680
748.0 0.001337 819.17358 849.15332
824.0 0.001214 818.49780 848.18896
819.0 0.001221 817.82257 847.30334
760.0 0.001316 817.14789 846.48077
817.0 0.001224 816.47345 845.70850
746.0 0.001340 815.79938 844.97748
776.0 0.001289 815.12579 844.27997
840.0 0.001190 814.45258 843.61072
815.0 0.001227 813.77948 842.96472
817.0 0.001224 813.10730 842.33942
722.0 0.001385 812.43524 841.73114
789.0 0.001267 811.76367 841.13782
817.0 0.001224 811.09247 840.55750
753.0 0.001328 810.42163 839.98877
775.0 0.001290 809.75110 839.42999
793.0 0.001261 809.08136 838.88062
828.0 0.001208 808.41162 838.33893
784.0 0.001276 807.74243 837.80469
712.0 0.001404 807.07367 837.27673
735.0 0.001361 806.40527 836.75500
753.0 0.001328 805.73700 836.23816
778.0 0.001285 805.06982 835.72681
742.0 0.001348 804.40253 835.21936
767.0 0.001304 803.73578 834.71600
796.0 0.001256 803.06940 834.21625
771.0 0.001297 802.40344 833.71985
805.0 0.001242 801.73785 833.22650
749.0 0.001335 801.07281 832.73584
737.0 0.001357 800.40796 832.24768
735.0 0.001361 799.74359 831.76178
782.0 0.001279 799.07965 831.27783
728.0 0.001374 798.41602 830.79559
749.0 0.001335 797.75311 830.31531
736.0 0.001359 797.09039 829.83624
772.0 0.001295 796.42804 829.35840
754.0 0.001326 795.76599 828.88171
721.0 0.001387 795.10443 828.40570
700.0 0.001429 794.44336 827.93060
767.0 0.001304 793.78271 827.45642
735.0 0.001361 793.12244 826.98242
761.0 0.001314 792.46252 826.50879
739.0 0.001353 791.80292 826.03534
775.0 0.001290 791.14380 825.56201
712.0 0.001404 790.48499 825.08868
751.0 0.001332 789.82690 824.61530
753.0 0.001328 789.16901 824.14148
729.0 0.001372 788.51154 823.66730
737.0 0.001357 787.85443 823.19275
764.0 0.001309 787.19763 822.71753
742.0 0.001348 786.54132 822.24158
746.0 0.001340 785.88562 821.76501
782.0 0.001279 785.23016 821.18524
716.0 0.001397 784.57507 820.70959
803.0 0.001245 783.92041 820.23273
786.0 0.001272 783.26599 819.75452
781.0 0.001280 782.61200 819.27484
789.0 0.001267 781.95880 818.79425
758.0 0.001319 781.30579 818.31183
753.0 0.001328 780.65314 817.82776
757.0 0.001321 780.00092 817.29236
720.0 0.001389 779.34894 816.80627
716.0 0.001397 778.69775 816.31860
772.0 0.001295 778.04657 815.82861
738.0 0.001355 777.39594 815.33679
719.0 0.001391 776.74573 814.84290
726.0 0.001377 776.09589 814.34692
737.0 0.001357 775.44623 813.84851
767.0 0.001304 774.79761 813.34839
731.0 0.001368 774.14886 812.84546
719.0 0.001391 773.50067 812.34039
721.0 0.001387 772.85284 811.83289
788.0 0.001269 772.20544 811.32294
698.0 0.001433 771.55847 810.81030
758.0 0.001319 770.91199 810.29535
775.0 0.001290 770.26581 809.77765
760.0 0.001316 769.61993 809.25714
812.0 0.001232 768.97449 808.73401
745.0 0.001342 768.32953 808.20807
763.0 0.001311 767.68469 807.67926
722.0 0.001385 767.04089 807.14795
704.0 0.001420 766.39716 806.61346
747.0 0.001339 765.75366 806.07593
776.0 0.001289 765.11072 805.53552
753.0 0.001328 764.46814 804.99213
729.0 0.001372 763.82611 804.44568
733.0 0.001364 763.18439 803.89606
728.0 0.001374 762.54303 803.34326
682.0 0.001466 761.90198 802.78729
757.0 0.001321 761.26141 802.22815
721.0 0.001387 760.62115 801.66571
707.0 0.001414 759.98169 801.10028
731.0 0.001368 759.34235 800.53131
704.0 0.001420 758.70343 799.95905
731.0 0.001368 758.06488 799.38342
695.0 0.001439 757.42664 798.80426
736.0 0.001359 756.78894 798.22186
724.0 0.001381 756.15173 797.63611
755.0 0.001325 755.51483 797.04675
750.0 0.001333 754.87836 796.45398
788.0 0.001269 754.24225 795.85760
742.0 0.001348 753.60645 795.25769
711.0 0.001406 752.97101 794.65417
720.0 0.001389 752.33636 794.04742
724.0 0.001381 751.70190 793.43689
783.0 0.001277 751.06781 792.82269
747.0 0.001339 750.43414 792.20496
762.0 0.001312 749.80084 791.58356
740.0 0.001351 749.16785 790.95837
712.0 0.001404 748.53552 790.32983
731.0 0.001368 747.90344 789.69745
755.0 0.001325 747.27179 789.06140
743.0 0.001346 746.64050 788.42169
748.0 0.001337 746.00946 787.77795
757.0 0.001321 745.37933 787.13116
751.0 0.001332 744.74921 786.48022
679.0 0.001473 744.11957 785.82562
721.0 0.001387 743.49030 785.16736
729.0 0.001372 742.86145 784.50531
730.0 0.001370 742.23303 783.83948
709.0 0.001410 741.60510 783.17010
737.0 0.001357 740.97754 782.49683
709.0 0.001410 740.35016 781.81970
733.0 0.001364 739.72333 781.13898
753.0 0.001328 739.09692 780.45453
736.0 0.001359 738.47064 779.76599
791.0 0.001264 737.84540 779.07446
728.0 0.001374 737.22021 778.37878
723.0 0.001383 736.59534 777.67920
732.0 0.001366 735.97089 776.97607
793.0 0.001261 735.34692 776.26923
712.0 0.001404 734.72333 775.55865
706.0 0.001416 734.10028 774.84454
723.0 0.001383 733.47748 774.12653
705.0 0.001418 732.85510 773.40485
750.0 0.001333 732.23303 772.86334
666.0 0.001502 731.61145 772.14099
727.0 0.001376 730.99017 771.41522
705.0 0.001418 730.36963 770.68665
728.0 0.001374 729.74927 769.95447
744.0 0.001344 729.12933 769.21924
727.0 0.001376 728.50964 768.48071
756.0 0.001323 727.89050 767.73932
691.0 0.001447 727.27185 767.08691
735.0 0.001361 726.65350 766.34296
717.0 0.001395 726.03558 765.59619
757.0 0.001321 725.41803 764.84698
786.0 0.001272 724.80084 764.09509
739.0 0.001353 724.18396 763.34076
716.0 0.001397 723.56787 762.58459
729.0 0.001372 722.95197 761.82623
704.0 0.001420 722.33643 761.06580
719.0 0.001391 721.72131 760.30347
711.0 0.001406 721.10663 759.53967
698.0 0.001433 720.49219 758.77417
730.0 0.001370 719.87842 758.00775
721.0 0.001387 719.26489 757.24036
700.0 0.001429 718.65179 756.47217
689.0 0.001451 718.03912 755.70374
698.0 0.001433 717.42682 754.93536
668.0 0.001497 716.81476 754.16705
710.0 0.001408 716.20361 753.40039
696.0 0.001437 715.59241 752.63470
739.0 0.001353 714.98175 751.87122
723.0 0.001383 714.37146 751.11060
665.0 0.001504 713.76160 750.35382
647.0 0.001546 713.15222 749.60168
648.0 0.001543 712.54315 748.85541
707.0 0.001414 711.93439 748.11621
671.0 0.001490 711.32617 747.38623
691.0 0.001447 710.71832 746.66736
677.0 0.001477 710.11072 745.96179
667.0 0.001499 709.50391 745.27325
678.0 0.001475 708.89728 744.60480
720.0 0.001389 708.29095 743.96118
640.0 0.001563 707.68512 743.34863
707.0 0.001414 707.07971 742.77472
665.0 0.001504 706.47467 742.24896
695.0 0.001439 705.87018 741.78455
694.0 0.001441 705.26593 741.39795
739.0 0.001353 704.66211 741.11139
668.0 0.001497 704.05859 740.95306
717.0 0.001395 703.45563 740.96051
654.0 0.001529 702.85291 741.17987
661.0 0.001513 702.25092 741.66693
697.0 0.001435 701.64911 742.48553
713.0 0.001403 701.04773 743.69543
681.0 0.001468 700.44666 745.32452
687.0 0.001456 699.84601 747.31274
683.0 0.001464 699.24585 749.42328
720.0 0.001389 698.64618 751.18164
681.0 0.001468 698.04681 751.98242
722.0 0.001385 697.44788 751.43030
687.0 0.001456 696.84930 749.66199
697.0 0.001435 696.25092 747.25287
721.0 0.001387 695.65338 744.82031
708.0 0.001412 695.05603 742.71906
692.0 0.001445 694.45905 740.98358
688.0 0.001453 693.86249 739.38434
706.0 0.001416 693.26636 737.57239
677.0 0.001477 692.67053 735.30475
687.0 0.001456 692.07526 732.60901
662.0 0.001511 691.48035 729.72034
670.0 0.001493 690.88580 726.89325
670.0 0.001493 690.29169 724.28137
652.0 0.001534 689.69800 721.93500
720.0 0.001389 689.10443 719.84308
664.0 0.001506 688.51184 717.97278
662.0 0.001511 687.91925 716.28204
620.0 0.001613 687.32709 714.73633
615.0 0.001626 686.73541 713.30469
683.0 0.001464 686.14410 711.96350
644.0 0.001553 685.55322 710.69366
675.0 0.001481 684.96283 709.48047
672.0 0.001488 684.37262 708.31238
668.0 0.001497 683.78296 707.18073
633.0 0.001580 683.19366 706.07892
645.0 0.001550 682.60480 705.00183
650.0 0.001538 682.01605 703.94464
591.0 0.001692 681.42834 702.90594
638.0 0.001567 680.84064 701.88135
617.0 0.001621 680.25330 700.86914
669.0 0.001495 679.66644 699.86798
625.0 0.001600 679.07996 698.87646
649.0 0.001541 678.49402 697.89374
645.0 0.001550 677.90839 696.91803
659.0 0.001517 677.32312 695.94916
656.0 0.001524 676.73816 694.98608
638.0 0.001567 676.15375 694.02869
622.0 0.001608 675.56958 693.07617
648.0 0.001543 674.98615 692.12891
636.0 0.001572 674.40295 691.18579
663.0 0.001508 673.82013 690.24677
643.0 0.001555 673.23755 689.31128
647.0 0.001546 672.65558 688.38000
618.0 0.001618 672.07391 687.45209
609.0 0.001642 671.49286 686.52802
649.0 0.001541 670.91205 685.60699
610.0 0.001639 670.33160 685.00348
627.0 0.001595 669.75165 684.09845
619.0 0.001616 669.17194 683.19684
609.0 0.001642 668.59259 682.29895
617.0 0.001621 668.01404 681.40515
605.0 0.001653 667.43567 680.51477
621.0 0.001610 666.85767 679.62805
622.0 0.001608 666.28009 678.74512
631.0 0.001585 665.70282 678.02106
614.0 0.001629 665.12604 676.96246
639.0 0.001565 664.54980 676.10278
665.0 0.001504 663.97382 675.24695
672.0 0.001488 663.39825 674.39508
647.0 0.001546 662.82312 673.54767
604.0 0.001656 662.24811 672.70435
630.0 0.001587 661.67413 671.86633
623.0 0.001605 661.10004 671.03223
639.0 0.001565 660.52649 670.11011
643.0 0.001555 659.95337 669.28925
611.0 0.001637 659.38062 668.47394
603.0 0.001658 658.80829 667.66351
647.0 0.001546 658.23645 666.85901
641.0 0.001560 657.66486 666.06012
642.0 0.001558 657.09369 665.26733
597.0 0.001675 656.52295 664.48077
628.0 0.001592 655.95270 663.70117
612.0 0.001634 655.38251 662.92804
627.0 0.001595 654.81335 662.16327
613.0 0.001631 654.24426 661.58057
645.0 0.001550 653.67548 660.83710
630.0 0.001587 653.10718 660.10291
632.0 0.001582 652.53925 659.41016
636.0 0.001572 651.97174 658.69647
602.0 0.001661 651.40479 657.99377
652.0 0.001534 650.83813 657.30237
635.0 0.001575 650.27173 656.62317
590.0 0.001695 649.70581 656.04340
624.0 0.001603 649.14026 655.39520
566.0 0.001767 648.57544 654.76294
639.0 0.001565 648.01074 654.14758
609.0 0.001642 647.44647 653.56708
610.0 0.001639 646.88263 652.99139
613.0 0.001631 646.31903 652.43854
610.0 0.001639 645.75604 651.91101
596.0 0.001678 645.19348 651.41168
618.0 0.001618 644.63123 650.94403
620.0 0.001613 644.06940 650.51233
596.0 0.001678 643.50793 650.12152
635.0 0.001575 642.94678 649.77740
622.0 0.001608 642.38611 649.48773
597.0 0.001675 641.82605 649.26135
626.0 0.001597 641.26624 649.10974
627.0 0.001595 640.70679 649.04681
584.0 0.001712 640.14783 649.09052
634.0 0.001577 639.58911 649.26422
598.0 0.001672 639.03088 649.59802
626.0 0.001597 638.47321 650.13043
618.0 0.001618 637.91577 650.91266
603.0 0.001658 637.35876 652.01001
645.0 0.001550 636.80219 653.50623
569.0 0.001757 636.24597 655.50562
637.0 0.001570 635.69000 658.13550
665.0 0.001504 635.13483 661.53522
662.0 0.001511 634.57983 665.84546
605.0 0.001653 634.02527 671.14093
673.0 0.001486 633.47113 677.32019
625.0 0.001600 632.91736 683.92169
653.0 0.001531 632.36407 689.96515
644.0 0.001553 631.81116 694.10223
605.0 0.001653 631.25848 695.27515
633.0 0.001580 630.70630 693.51221
643.0 0.001555 630.15454 689.95709
636.0 0.001572 629.60303 686.08136
597.0 0.001675 629.05237 682.93781
634.0 0.001577 628.50183 680.88965
571.0 0.001751 627.95160 679.68506
640.0 0.001563 627.40186 678.68481
590.0 0.001695 626.85254 677.12048
605.0 0.001653 626.30359 674.75732
586.0 0.001706 625.75519 671.92877
631.0 0.001585 625.20703 669.23370
622.0 0.001608 624.65924 667.08276
627.0 0.001595 624.11194 665.45856
650.0 0.001538 623.56500 663.94336
610.0 0.001639 623.01843 661.99548
616.0 0.001623 622.47253 659.29150
632.0 0.001582 621.92682 656.03113
621.0 0.001610 621.38153 652.69952
635.0 0.001575 620.83655 649.73444
650.0 0.001538 620.29205 647.33942
580.0 0.001724 619.74799 645.46741
594.0 0.001684 619.20441 643.87207
626.0 0.001597 618.66113 642.21326
636.0 0.001572 618.11823 640.23907
649.0 0.001541 617.57568 637.93390
612.0 0.001634 617.03351 635.48413
616.0 0.001623 616.49207 633.11755
588.0 0.001701 615.95081 630.97748
639.0 0.001565 615.40997 629.12006
612.0 0.001634 614.86951 627.54193
645.0 0.001550 614.32947 626.21594
605.0 0.001653 613.78967 625.11029
599.0 0.001669 613.25055 624.19733
589.0 0.001698 612.71173 623.45581
600.0 0.001667 612.17328 622.87317
610.0 0.001639 611.63525 622.44482
614.0 0.001629 611.09766 622.17230
585.0 0.001709 610.56024 622.06396
611.0 0.001637 610.02362 622.12921
574.0 0.001742 609.48718 622.37213
627.0 0.001595 608.95117 622.77576
586.0 0.001706 608.41559 623.27673
557.0 0.001795 607.88037 623.74188
604.0 0.001656 607.34546 623.98053
580.0 0.001724 606.81128 623.82916
631.0 0.001585 606.27716 623.26294
584.0 0.001712 605.74359 622.42090
631.0 0.001585 605.21039 621.50684
587.0 0.001704 604.67761 620.67926
617.0 0.001621 604.14508 620.00317
636.0 0.001572 603.61334 619.45569
586.0 0.001706 603.08173 618.94623
573.0 0.001745 602.55054 618.36237
581.0 0.001721 602.01978 617.63617
612.0 0.001634 601.48944 616.78455
565.0 0.001770 600.95953 615.88531
592.0 0.001689 600.42999 615.01819
593.0 0.001686 599.90088 614.23352
618.0 0.001618 599.37201 613.54926
564.0 0.001773 598.84369 612.96490
592.0 0.001689 598.31561 612.47253
541.0 0.001848 597.78827 612.06287
638.0 0.001567 597.26117 611.72778
606.0 0.001650 596.73444 611.46381
602.0 0.001661 596.20801 611.26855
612.0 0.001634 595.68207 611.14526
599.0 0.001669 595.15656 611.09943
613.0 0.001631 594.63153 610.82556
611.0 0.001637 594.10687 610.97327
606.0 0.001650 593.58252 611.22815
620.0 0.001613 593.05853 611.59253
596.0 0.001678 592.53503 612.04590
615.0 0.001626 592.01184 612.52643
579.0 0.001727 591.48932 612.91846
578.0 0.001730 590.96704 613.08289
620.0 0.001613 590.44519 612.62805
592.0 0.001689 589.92371 612.20911
634.0 0.001577 589.40247 611.64343
599.0 0.001669 588.88190 611.07391
556.0 0.001799 588.36163 610.58978
618.0 0.001618 587.84180 610.21252
626.0 0.001597 587.32233 609.90564
595.0 0.001681 586.80328 609.59283
580.0 0.001724 586.28442 609.19672
572.0 0.001748 585.76642 608.68536
564.0 0.001773 585.24854 608.08820
569.0 0.001757 584.73108 607.46631
587.0 0.001704 584.21399 606.87225
604.0 0.001656 583.69739 606.43597
600.0 0.001667 583.18115 605.96057
630.0 0.001587 582.66541 605.54199
588.0 0.001701 582.14990 605.17206
576.0 0.001736 581.63483 604.84198
591.0 0.001692 581.12024 604.54401
564.0 0.001773 580.60602 604.27112
606.0 0.001650 580.09198 604.01758
555.0 0.001802 579.57892 603.78009
619.0 0.001616 579.06580 603.60590
574.0 0.001742 578.55322 603.39063
599.0 0.001669 578.04095 603.18262
611.0 0.001637 577.52917 602.98016
607.0 0.001647 577.01776 602.78210
575.0 0.001739 576.50690 602.58716
594.0 0.001684 575.99634 602.39453
594.0 0.001684 575.48602 602.20313
573.0 0.001745 574.97626 602.01245
552.0 0.001812 574.46680 601.82214
603.0 0.001658 573.95801 601.63159
596.0 0.001678 573.44946 601.44037
574.0 0.001742 572.94128 601.24817
537.0 0.001862 572.43341 601.05408
591.0 0.001692 571.92609 600.85883
538.0 0.001859 571.41913 600.66107
581.0 0.001721 570.91266 600.46136
534.0 0.001873 570.40649 600.25903
609.0 0.001642 569.90076 600.05402
571.0 0.001751 569.39545 599.84595
589.0 0.001698 568.89044 599.63495
584.0 0.001712 568.38580 599.42047
570.0 0.001754 567.88184 599.20270
525.0 0.001905 567.37811 598.98114
583.0 0.001715 566.87482 598.75580
557.0 0.001795 566.37189 598.52686
568.0 0.001761 565.86926 598.29370
555.0 0.001802 565.36719 598.05676
551.0 0.001815 564.86560 597.81537
525.0 0.001905 564.36426 597.51208
531.0 0.001883 563.86334 597.26361
556.0 0.001799 563.36285 597.01074
552.0 0.001812 562.86267 596.75330
611.0 0.001637 562.36292 596.49164
608.0 0.001645 561.86383 596.22552
556.0 0.001799 561.36493 596.01636
556.0 0.001799 560.86646 595.74359
563.0 0.001776 560.36835 595.45038
533.0 0.001876 559.87067 595.16962
570.0 0.001754 559.37354 594.88550
533.0 0.001876 558.87659 594.59747
588.0 0.001701 558.38007 594.30603
555.0 0.001802 557.88403 594.01184
557.0 0.001795 557.38843 593.71490
492.0 0.002033 556.89294 593.44641
538.0 0.001859 556.39844 593.14709
572.0 0.001748 555.90399 592.81476
526.0 0.001901 555.40985 592.51526
554.0 0.001805 554.91620 592.21692
567.0 0.001764 554.42297 591.92090
502.0 0.001992 553.93011 591.62860
550.0 0.001818 553.43781 591.34192
544.0 0.001838 552.94580 591.06299
523.0 0.001912 552.45410 590.79431
561.0 0.001783 551.96295 590.52338
529.0 0.001890 551.47205 590.28644
578.0 0.001730 550.98157 590.07281
515.0 0.001942 550.49164 589.88837
577.0 0.001733 550.00214 589.74164
505.0 0.001980 549.51282 589.64313
522.0 0.001916 549.02417 589.60706
491.0 0.002037 548.53571 589.65063
560.0 0.001786 548.04761 589.79755
505.0 0.001980 547.56012 590.07709
600.0 0.001667 547.07300 590.52740
553.0 0.001808 546.58618 591.19397
498.0 0.002008 546.09985 592.13196
503.0 0.001988 545.61365 593.40118
575.0 0.001739 545.12836 595.05334
543.0 0.001842 544.64325 597.10968
538.0 0.001859 544.15845 599.50171
541.0 0.001848 543.67401 601.99774
537.0 0.001862 543.19012 604.14777
519.0 0.001927 542.70648 605.37048
549.0 0.001821 542.22345 605.24982
550.0 0.001818 541.74078 603.83948
527.0 0.001898 541.25836 601.64056
550.0 0.001818 540.77637 599.27332
546.0 0.001832 540.29492 597.18170
553.0 0.001808 539.81372 595.54010
520.0 0.001923 539.33307 594.27734
514.0 0.001946 538.85284 593.12946
526.0 0.001901 538.37286 591.75171
521.0 0.001919 537.89325 589.89825
564.0 0.001773 537.41425 587.57098
553.0 0.001808 536.93542 584.98267
549.0 0.001821 536.45721 582.43262
567.0 0.001764 535.97943 580.01941
502.0 0.001992 535.50183 577.86084
531.0 0.001883 535.02466 575.96875
531.0 0.001883 534.54791 574.32367
531.0 0.001883 534.07190 572.89905
574.0 0.001742 533.59595 571.66833
551.0 0.001815 533.12054 570.61444
504.0 0.001984 532.64539 569.72748
548.0 0.001825 532.17065 569.02753
561.0 0.001783 531.69647 568.48230
558.0 0.001792 531.22266 568.12390
527.0 0.001898 530.74915 567.96454
568.0 0.001761 530.27618 568.00446
558.0 0.001792 529.80341 568.20587
549.0 0.001821 529.33130 568.46100
538.0 0.001859 528.85919 568.56836
522.0 0.001916 528.38800 568.27771
525.0 0.001905 527.91687 567.42023
554.0 0.001805 527.44635 566.03577
562.0 0.001779 526.97601 564.34619
545.0 0.001835 526.50629 562.61310
559.0 0.001789 526.03680 561.01459
512.0 0.001953 525.56787 559.61633
532.0 0.001880 525.09912 558.38251
559.0 0.001789 524.63104 557.20044
511.0 0.001957 524.16315 555.92035
533.0 0.001876 523.69580 554.43579
548.0 0.001825 523.22858 552.74329
528.0 0.001894 522.76227 550.93494
510.0 0.001961 522.29596 549.11707
547.0 0.001828 521.83026 547.36688
509.0 0.001965 521.36481 545.71558
534.0 0.001873 520.89990 544.16656
502.0 0.001992 520.43536 542.70947
533.0 0.001876 519.97113 541.32813
550.0 0.001818 519.50726 540.00879
570.0 0.001754 519.04401 538.73920
538.0 0.001859 518.58093 537.50830
505.0 0.001980 518.11829 536.30798
542.0 0.001845 517.65643 535.13257
491.0 0.002037 517.19458 533.97601
531.0 0.001883 516.73334 532.83496
551.0 0.001815 516.27228 531.70673
529.0 0.001890 515.81165 530.58868
498.0 0.002008 515.35156 529.48108
526.0 0.001901 514.89197 528.38116
527.0 0.001898 514.43256 527.28876
492.0 0.002033 513.97369 526.20471
518.0 0.001931 513.51508 525.12823
478.0 0.002092 513.05688 524.05994
541.0 0.001848 512.59906 523.00177
526.0 0.001901 512.14203 521.95459
503.0 0.001988 511.68503 520.91986
576.0 0.001736 511.22864 519.90131
533.0 0.001876 510.77243 518.90186
571.0 0.001751 510.31665 517.92615
490.0 0.002041 509.86145 516.98163
515.0 0.001942 509.40662 516.07526
500.0 0.002000 508.95206 515.21704
526.0 0.001901 508.49808 514.42059
526.0 0.001901 508.04428 513.69897
476.0 0.002101 507.59094 513.06866
539.0 0.001855 507.13815 512.54346
513.0 0.001949 506.68576 512.12579
543.0 0.001842 506.23361 511.79385
505.0 0.001980 505.78204 511.47977
513.0 0.001949 505.33069 511.05881
519.0 0.001927 504.87976 510.37872
519.0 0.001927 504.42957 509.23560
526.0 0.001901 503.97943 507.87088
536.0 0.001866 503.52969 506.31668
504.0 0.001984 503.08057 504.73557
471.0 0.002123 502.63162 503.23816
488.0 0.002049 502.18311 501.86862
516.0 0.001938 501.73535 500.61099
520.0 0.001923 501.28763 499.39682
478.0 0.002092 500.84030 498.13699
476.0 0.002101 500.39359 496.70578
494.0 0.002024 499.94708 495.19760
494.0 0.002024 499.50113 493.60864
500.0 0.002000 499.05563 492.00806
546.0 0.001832 498.61035 490.44626
551.0 0.001815 498.16544 488.94937
541.0 0.001848 497.72113 487.52173
520.0 0.001923 497.27707 486.15820
522.0 0.001916 496.83337 484.78931
508.0 0.001969 496.39044 483.53049
478.0 0.002092 495.94760 482.30920
498.0 0.002008 495.50510 481.11978
540.0 0.001852 495.06323 479.95737
481.0 0.002079 494.62158 478.81683
479.0 0.002088 494.18048 477.69543
484.0 0.002066 493.73981 476.59055
510.0 0.001961 493.29935 475.50003
506.0 0.001976 492.85931 474.39197
472.0 0.002119 492.41986 473.32751
504.0 0.001984 491.98062 472.27344
502.0 0.001992 491.54193 471.23044
529.0 0.001890 491.10370 470.19705
495.0 0.002020 490.66568 469.17294
516.0 0.001938 490.22821 468.15848
478.0 0.002092 489.79099 467.15244
529.0 0.001890 489.35422 466.15536
521.0 0.001919 488.91794 465.16727
475.0 0.002105 488.48209 464.18784
490.0 0.002041 488.04651 463.21698
508.0 0.001969 487.61148 462.25458
475.0 0.002105 487.17670 461.30090
497.0 0.002012 486.74228 460.35544
459.0 0.002179 486.30847 459.41919
476.0 0.002101 485.87503 458.49164
459.0 0.002179 485.44186 457.57260
491.0 0.002037 485.00928 456.66260
498.0 0.002008 484.57687 455.76120
478.0 0.002092 484.14508 454.86935
510.0 0.001961 483.71353 453.98593
468.0 0.002137 483.28253 453.11206
435.0 0.002299 482.85178 452.24722
463.0 0.002160 482.42160 451.39178
483.0 0.002070 481.99146 450.54523
459.0 0.002179 481.56223 449.70911
495.0 0.002020 481.13312 448.88177
454.0 0.002203 480.70450 448.06442
460.0 0.002174 480.27618 447.25653
458.0 0.002183 479.84842 446.45865
465.0 0.002151 479.42090 445.67032
498.0 0.002008 478.99393 444.89221
505.0 0.001980 478.56735 444.12433
505.0 0.001980 478.14105 443.36606
468.0 0.002137 477.71515 442.61777
508.0 0.001969 477.28979 441.88004
537.0 0.001862 476.86453 441.15213
504.0 0.001984 476.44016 440.43521
479.0 0.002088 476.01599 439.72842
480.0 0.002083 475.59213 439.03180
492.0 0.002033 475.16861 438.34564
478.0 0.002092 474.74570 437.63055
483.0 0.002070 474.32303 436.96655
486.0 0.002058 473.90091 436.31326
488.0 0.002049 473.47919 435.67059
487.0 0.002053 473.05771 435.03839
502.0 0.001992 472.63663 434.41669
441.0 0.002268 472.21597 433.80573
464.0 0.002155 471.79605 433.20590
502.0 0.001992 471.37616 432.61621
463.0 0.002160 470.95688 432.01761
506.0 0.001976 470.53781 431.44998
471.0 0.002123 470.11917 430.89297
506.0 0.001976 469.70108 430.38593
466.0 0.002146 469.28342 429.85202
464.0 0.002155 468.86597 429.41077
441.0 0.002268 468.44910 428.90036
463.0 0.002160 468.03247 428.40048
490.0 0.002041 467.61624 427.91150
511.0 0.001957 467.20041 427.43332
491.0 0.002037 466.78531 426.96625
501.0 0.001996 466.37030 426.50961
486.0 0.002058 465.95584 426.06387
443.0 0.002257 465.54166 425.64844
503.0 0.001988 465.12799 425.22485
490.0 0.002041 464.71457 424.85294
493.0 0.002028 464.30176 424.45184
471.0 0.002123 463.88919 424.06122
493.0 0.002028 463.47714 423.68140
438.0 0.002283 463.06537 423.31210
476.0 0.002101 462.65411 422.95358
474.0 0.002110 462.24298 422.60535
479.0 0.002088 461.83270 422.26804
482.0 0.002075 461.42255 421.94107
450.0 0.002222 461.01294 421.62469
476.0 0.002101 460.60358 421.31870
478.0 0.002092 460.19479 421.02332
496.0 0.002016 459.78641 420.73843
483.0 0.002070 459.37823 420.46387
485.0 0.002062 458.97046 420.19977
478.0 0.002092 458.56329 419.94635
481.0 0.002079 458.15634 419.70331
477.0 0.002096 457.74982 419.47092
462.0 0.002165 457.34396 419.24936
458.0 0.002183 456.93826 419.03842
509.0 0.001965 456.53293 418.83841
483.0 0.002070 456.12814 418.64951
443.0 0.002257 455.72363 418.47198
448.0 0.002232 455.31967 418.30618
462.0 0.002165 454.91611 418.15244
477.0 0.002096 454.51282 418.01117
466.0 0.002146 454.11005 417.88315
477.0 0.002096 453.70755 417.76920
455.0 0.002198 453.30545 417.67023
435.0 0.002299 452.90378 417.58783
468.0 0.002137 452.50278 417.52371
459.0 0.002179 452.10190 417.48035
454.0 0.002203 451.70154 417.46075
459.0 0.002179 451.30148 417.46887
502.0 0.001992 450.90179 417.50989
468.0 0.002137 450.50269 417.59036
495.0 0.002020 450.10397 417.71808
439.0 0.002278 449.70551 417.90240
469.0 0.002132 449.30759 418.15363
438.0 0.002283 448.90991 418.48056
455.0 0.002198 448.51266 418.88589
476.0 0.002101 448.11597 419.35699
428.0 0.002336 447.71970 419.85373
498.0 0.002008 447.32364 420.29782
458.0 0.002183 446.92819 420.59006
445.0 0.002247 446.53293 420.65915
459.0 0.002179 446.13809 420.51419
446.0 0.002242 445.74380 420.24124
467.0 0.002141 445.34995 419.94736
450.0 0.002222 444.95633 419.71368
481.0 0.002079 444.56326 419.57895
412.0 0.002427 444.17041 419.54483
444.0 0.002252 443.77802 419.58273
419.0 0.002387 443.38632 419.64154
440.0 0.002273 442.99472 419.66531
479.0 0.002088 442.60355 419.62448
443.0 0.002257 442.21286 419.53436
441.0 0.002268 441.82248 419.44315
476.0 0.002101 441.43262 419.40149
445.0 0.002247 441.04318 419.44690
467.0 0.002141 440.65402 419.60385
438.0 0.002283 440.26526 419.88998
487.0 0.002053 439.87704 420.32278
457.0 0.002188 439.48904 420.92422
440.0 0.002273 439.10162 421.72125
438.0 0.002283 438.71460 422.74841
449.0 0.002227 438.32785 424.04169
449.0 0.002227 437.94150 425.63007
437.0 0.002288 437.55569 427.51495
430.0 0.002326 437.17014 429.63019
420.0 0.002381 436.78516 431.78928
448.0 0.002232 436.40054 433.66119
459.0 0.002179 436.01624 434.83945
454.0 0.002203 435.63232 435.05057
418.0 0.002392 435.24893 434.34937
476.0 0.002101 434.86578 433.08728
433.0 0.002309 434.48318 431.69772
464.0 0.002155 434.10104 430.49948
445.0 0.002247 433.71912 429.64548
454.0 0.002203 433.33762 429.13797
475.0 0.002105 432.95667 428.85324
440.0 0.002273 432.57596 428.57327
478.0 0.002092 432.19577 428.05923
460.0 0.002174 431.81604 427.16934
456.0 0.002193 431.43652 425.93768
411.0 0.002433 431.05762 424.52594
443.0 0.002257 430.67892 423.11105
416.0 0.002404 430.30063 421.80988
431.0 0.002320 429.92288 420.67343
438.0 0.002283 429.54556 419.70584
447.0 0.002237 429.16852 418.89105
402.0 0.002488 428.79199 418.20569
408.0 0.002451 428.41571 417.62595
444.0 0.002252 428.04001 417.13116
427.0 0.002342 427.66452 416.70337
476.0 0.002101 427.28961 416.32874
425.0 0.002353 426.91498 415.99545
446.0 0.002242 426.54086 415.69452
452.0 0.002212 426.16690 415.41867
445.0 0.002247 425.79376 415.16257
437.0 0.002288 425.42072 414.92133
464.0 0.002155 425.04822 414.65259
418.0 0.002392 424.67599 414.43259
430.0 0.002326 424.30432 414.21866
406.0 0.002463 423.93289 414.00879
437.0 0.002288 423.56201 413.80161
436.0 0.002294 423.19144 413.59552
406.0 0.002463 422.82132 413.38928
394.0 0.002538 422.45151 413.18222
438.0 0.002283 422.08228 412.97324
436.0 0.002294 421.71313 412.80536
420.0 0.002381 421.34482 412.59164
420.0 0.002381 420.97678 412.37408
435.0 0.002299 420.60898 412.15219
423.0 0.002364 420.24161 411.92545
406.0 0.002463 419.87479 411.69379
428.0 0.002336 419.50818 411.45645
404.0 0.002475 419.14215 411.21338
423.0 0.002364 418.77652 410.96420
437.0 0.002288 418.41116 410.70840
407.0 0.002457 418.04620 410.46768
405.0 0.002469 417.68167 410.19894
434.0 0.002304 417.31778 409.92334
447.0 0.002237 416.95404 409.64026
417.0 0.002398 416.59082 409.34982
412.0 0.002427 416.22787 409.05167
426.0 0.002347 415.86533 408.74579
428.0 0.002336 415.50333 408.43216
417.0 0.002398 415.14172 408.11060
392.0 0.002551 414.78043 407.78079
426.0 0.002347 414.41965 407.44290
414.0 0.002415 414.05911 407.09662
457.0 0.002188 413.69897 406.74188
416.0 0.002404 413.33926 406.37863
425.0 0.002353 412.98022 406.00720
402.0 0.002488 412.62134 405.62695
433.0 0.002309 412.26297 405.23816
392.0 0.002551 411.90491 404.84061
442.0 0.002262 411.54718 404.43427
423.0 0.002364 411.19003 404.01929
439.0 0.002278 410.83325 403.59558
452.0 0.002212 410.47678 403.16302
433.0 0.002309 410.12085 402.72183
394.0 0.002538 409.76517 402.27167
408.0 0.002451 409.41000 401.81277
456.0 0.002193 409.05502 401.34491
426.0 0.002347 408.70084 400.86877
427.0 0.002342 408.34677 400.38361
432.0 0.002315 407.99326 399.88995
438.0 0.002283 407.64001 399.38745
383.0 0.002611 407.28729 398.87662
360.0 0.002778 406.93494 398.35736
425.0 0.002353 406.58292 397.84100
438.0 0.002283 406.23129 397.30511
427.0 0.002342 405.88019 396.67114
425.0 0.002353 405.52936 396.12112
399.0 0.002506 405.17892 395.56314
387.0 0.002584 404.82913 394.99759
415.0 0.002410 404.47952 394.42413
438.0 0.002283 404.13031 393.84311
452.0 0.002212 403.78162 393.25494
428.0 0.002336 403.43323 392.65952
435.0 0.002299 403.08536 392.06348
422.0 0.002370 402.73785 391.45535
376.0 0.002660 402.39066 390.79959
422.0 0.002370 402.04385 390.18051
415.0 0.002410 401.69760 389.55667
381.0 0.002625 401.35165 388.92773
401.0 0.002494 401.00604 388.29498
427.0 0.002342 400.66110 387.65927
408.0 0.002451 400.31635 387.02078
382.0 0.002618 399.97208 386.38116
407.0 0.002457 399.62811 385.74103
433.0 0.002309 399.28458 385.10242
402.0 0.002488 398.94156 384.46732
437.0 0.002288 398.59891 383.83783
423.0 0.002364 398.25653 383.21643
395.0 0.002532 397.91473 382.60736
407.0 0.002457 397.57318 382.01447
407.0 0.002457 397.23206 381.44394
395.0 0.002532 396.89145 380.90344
400.0 0.002500 396.55124 380.40216
402.0 0.002488 396.21127 379.95129
424.0 0.002358 395.87186 379.56650
388.0 0.002577 395.53275 379.26395
423.0 0.002364 395.19403 379.06369
428.0 0.002336 394.85587 378.98572
416.0 0.002404 394.51807 379.04437
446.0 0.002242 394.18051 379.23654
422.0 0.002370 393.84357 379.52332
437.0 0.002288 393.50684 379.80225
428.0 0.002336 393.17056 379.90140
430.0 0.002326 392.83478 379.62256
435.0 0.002299 392.49942 378.84604
402.0 0.002488 392.16431 377.61661
419.0 0.002387 391.82977 376.11771
415.0 0.002410 391.49548 374.55988
399.0 0.002506 391.16162 373.09946
408.0 0.002451 390.82840 371.81284
399.0 0.002506 390.49533 370.70554
393.0 0.002545 390.16263 369.72794
410.0 0.002439 389.83051 368.79776
422.0 0.002370 389.49854 367.76514
386.0 0.002591 389.16733 366.55563
396.0 0.002525 388.83640 365.15500
457.0 0.002188 388.50574 363.62903
422.0 0.002370 388.17548 362.06976
408.0 0.002451 387.84576 360.55109
435.0 0.002299 387.51633 359.11111
421.0 0.002375 387.18744 357.76279
406.0 0.002463 386.85892 356.50354
379.0 0.002639 386.53073 355.33264
407.0 0.002457 386.20288 354.22818
403.0 0.002481 385.87558 353.19025
413.0 0.002421 385.54855 352.21295
422.0 0.002370 385.22208 351.29297
405.0 0.002469 384.89600 350.42511
407.0 0.002457 384.57019 349.60074
412.0 0.002427 384.24481 348.80283
403.0 0.002481 383.91989 348.00131
404.0 0.002475 383.59531 347.15628
395.0 0.002532 383.27124 346.23389
409.0 0.002445 382.94757 345.22632
392.0 0.002551 382.62421 344.15851
434.0 0.002304 382.30121 343.07086
399.0 0.002506 381.97876 341.99805
416.0 0.002404 381.65656 340.95981
439.0 0.002278 381.33493 339.96368
402.0 0.002488 381.01370 339.00363
416.0 0.002404 380.69275 338.06552
423.0 0.002364 380.37231 337.12793
418.0 0.002392 380.05212 336.16876
398.0 0.002513 379.73251 335.17645
401.0 0.002494 379.41315 334.15628
417.0 0.002398 379.09436 333.12546
421.0 0.002375 378.77582 332.09897
393.0 0.002545 378.45779 331.08878
388.0 0.002577 378.13992 330.09875
409.0 0.002445 377.82285 329.13022
401.0 0.002494 377.50592 328.18057
407.0 0.002457 377.18951 327.24915
385.0 0.002597 376.87341 326.33279
404.0 0.002475 376.55783 325.43042
422.0 0.002370 376.24249 324.54044
408.0 0.002451 375.92770 323.66226
405.0 0.002469 375.61322 322.79434
417.0 0.002398 375.29922 321.93689
405.0 0.002469 374.98553 321.08871
395.0 0.002532 374.67239 320.25079
394.0 0.002538 374.35938 319.42151
424.0 0.002358 374.04712 318.60297
358.0 0.002793 373.73502 317.79407
393.0 0.002545 373.42346 316.99557
388.0 0.002577 373.11221 316.20844
421.0 0.002375 372.80145 315.43298
384.0 0.002604 372.49109 314.67084
401.0 0.002494 372.18103 313.92224
420.0 0.002381 371.87149 313.19037
391.0 0.002558 371.56223 312.47614
394.0 0.002538 371.25339 311.78278
362.0 0.002762 370.94492 311.11407
415.0 0.002410 370.63715 310.47375
377.0 0.002653 370.32950 309.86584
386.0 0.002591 370.02237 309.29529
417.0 0.002398 369.71555 308.76468
367.0 0.002725 369.40912 308.27353
393.0 0.002545 369.10318 307.81302
387.0 0.002584 368.79767 307.35873
423.0 0.002364 368.49249 306.87204
397.0 0.002519 368.18777 306.30853
372.0 0.002688 367.88336 305.64221
372.0 0.002688 367.57935 304.88391
400.0 0.002500 367.27573 304.07480
412.0 0.002427 366.97278 303.26343
384.0 0.002604 366.66998 302.43890
396.0 0.002525 366.36768 301.70941
428.0 0.002336 366.06570 301.03159
408.0 0.002451 365.76413 300.39685
354.0 0.002825 365.46307 299.78500
411.0 0.002433 365.16241 299.16974
404.0 0.002475 364.86203 298.52737
379.0 0.002639 364.56213 297.85013
389.0 0.002571 364.26257 297.14868
364.0 0.002747 363.96341 296.44321
408.0 0.002451 363.66489 295.73053
394.0 0.002538 363.36655 295.06531
381.0 0.002625 363.06860 294.42883
401.0 0.002494 362.77115 293.82175
387.0 0.002584 362.47400 293.24142
415.0 0.002410 362.17737 292.67419
383.0 0.002611 361.88113 292.14108
418.0 0.002392 361.58521 291.62793
366.0 0.002732 361.28967 291.13293
377.0 0.002653 360.99466 290.65503
390.0 0.002564 360.69992 290.19257
395.0 0.002532 360.40561 289.74478
389.0 0.002571 360.11194 289.31149
406.0 0.002463 359.81842 288.89136
378.0 0.002646 359.52530 288.48431
392.0 0.002551 359.23273 288.09018
358.0 0.002793 358.94040 287.70261
372.0 0.002688 358.64859 287.33337
370.0 0.002703 358.35724 286.97610
382.0 0.002618 358.06613 286.63065
381.0 0.002625 357.77545 286.29703
419.0 0.002387 357.48529 285.97516
401.0 0.002494 357.19540 285.66476
381.0 0.002625 356.90591 285.36588
406.0 0.002463 356.61710 285.07864
393.0 0.002545 356.32840 284.80258
399.0 0.002506 356.04016 284.53778
372.0 0.002688 355.75241 284.28433
428.0 0.002336 355.46490 284.04196
392.0 0.002551 355.17798 283.81079
378.0 0.002646 354.89142 283.59070
387.0 0.002584 354.60519 283.38159
380.0 0.002632 354.31946 283.18344
399.0 0.002506 354.03403 282.99615
390.0 0.002564 353.74896 282.87973
395.0 0.002532 353.46445 282.71585
388.0 0.002577 353.18033 282.56287
397.0 0.002519 352.89651 282.42044
409.0 0.002445 352.61322 282.28888
417.0 0.002398 352.33020 282.16772
411.0 0.002433 352.04758 282.05722
391.0 0.002558 351.76544 281.95712
391.0 0.002558 351.48376 281.86755
406.0 0.002463 351.20236 281.78830
394.0 0.002538 350.92148 281.71936
401.0 0.002494 350.64087 281.69052
416.0 0.002404 350.36072 281.64267
399.0 0.002506 350.08099 281.60501
370.0 0.002703 349.80173 281.60397
418.0 0.002392 349.52274 281.58704
404.0 0.002475 349.24426 281.57986
373.0 0.002681 348.96609 281.58261
389.0 0.002571 348.68832 281.59506
356.0 0.002809 348.41107 281.61703
420.0 0.002381 348.13422 281.63437
413.0 0.002421 347.85764 281.67599
380.0 0.002632 347.58157 281.72699
378.0 0.002646 347.30576 281.78726
405.0 0.002469 347.03061 281.85678
393.0 0.002545 346.75577 281.94867
389.0 0.002571 346.48120 282.03677
388.0 0.002577 346.20709 282.13406
360.0 0.002778 345.93344 282.24030
375.0 0.002667 345.66013 282.35538
384.0 0.002604 345.38730 282.47211
382.0 0.002618 345.11490 282.60516
417.0 0.002398 344.84277 282.74695
387.0 0.002584 344.57104 282.89755
382.0 0.002618 344.29984 283.05682
380.0 0.002632 344.02893 283.22488
358.0 0.002793 343.75854 283.40158
366.0 0.002732 343.48856 283.58713
364.0 0.002747 343.21884 283.78149
372.0 0.002688 342.94955 283.98489
382.0 0.002618 342.68076 284.19736
384.0 0.002604 342.41229 284.41891
358.0 0.002793 342.14432 284.64993
333.0 0.003003 341.87674 284.89090
366.0 0.002732 341.60944 285.14197
386.0 0.002591 341.34256 285.40341
353.0 0.002833 341.07611 285.67621
399.0 0.002506 340.81024 285.96042
347.0 0.002882 340.54459 286.25769
371.0 0.002695 340.27945 286.56882
372.0 0.002688 340.01456 286.89542
381.0 0.002625 339.75012 287.23898
369.0 0.002710 339.48618 287.60190
383.0 0.002611 339.22263 287.98697
363.0 0.002755 338.95941 288.39844
388.0 0.002577 338.69666 288.84073
389.0 0.002571 338.43423 289.32053
370.0 0.002703 338.17227 289.84506
377.0 0.002653 337.91058 290.42487
395.0 0.002532 337.64957 291.07150
396.0 0.002525 337.38876 291.80032
351.0 0.002849 337.12842 292.62762
366.0 0.002732 336.86841 293.57095
420.0 0.002381 336.60892 294.64340
357.0 0.002801 336.34970 295.84753
373.0 0.002681 336.09100 297.15704
373.0 0.002681 335.83264 298.49857
369.0 0.002710 335.57474 299.73615
344.0 0.002907 335.31717 300.69873
332.0 0.003012 335.06003 301.25378
362.0 0.002762 334.80316 301.39703
341.0 0.002933 334.54700 301.25922
365.0 0.002740 334.29102 301.03076
361.0 0.002770 334.03555 300.87363
377.0 0.002653 333.78040 300.88892
358.0 0.002793 333.52570 301.11792
341.0 0.002933 333.27145 301.55811
363.0 0.002755 333.01752 302.16385
371.0 0.002695 332.76398 302.84863
385.0 0.002597 332.51093 303.49640
370.0 0.002703 332.25818 303.99197
356.0 0.002809 332.00580 304.25684
339.0 0.002950 331.75409 304.26392
391.0 0.002558 331.50253 304.03333
378.0 0.002646 331.25153 303.63062
410.0 0.002439 331.00079 303.15475
377.0 0.002653 330.75049 302.70386
370.0 0.002703 330.50064 302.34628
375.0 0.002667 330.25119 302.11606
385.0 0.002597 330.00211 302.01688
362.0 0.002762 329.75351 302.03397
324.0 0.003086 329.50519 302.13571
359.0 0.002786 329.25729 302.27481
349.0 0.002865 329.00983 302.39795
410.0 0.002439 328.76288 302.46347
375.0 0.002667 328.51620 302.46124
386.0 0.002591 328.27002 302.41278
358.0 0.002793 328.02414 302.35266
354.0 0.002825 327.77866 302.30945
370.0 0.002703 327.53369 302.29800
350.0 0.002857 327.28909 302.32309
363.0 0.002755 327.04483 302.38251
385.0 0.002597 326.80106 302.47195
349.0 0.002865 326.55762 302.58597
352.0 0.002841 326.31458 302.71970
352.0 0.002841 326.07202 302.86868
373.0 0.002681 325.82980 303.02939
352.0 0.002841 325.58798 303.19919
359.0 0.002786 325.34665 303.37524
337.0 0.002967 325.10562 303.55548
400.0 0.002500 324.86499 303.73886
352.0 0.002841 324.62494 303.92349
357.0 0.002801 324.38513 304.10880
345.0 0.002899 324.14566 304.29349
371.0 0.002695 323.90677 304.47711
346.0 0.002890 323.66815 304.65897
370.0 0.002703 323.42993 304.83856
363.0 0.002755 323.19232 305.01532
345.0 0.002899 322.95493 305.18893
365.0 0.002740 322.71790 305.35904
346.0 0.002890 322.48138 305.52518
336.0 0.002976 322.24521 305.68726
372.0 0.002688 322.00949 305.84494
368.0 0.002717 321.77420 305.99802
371.0 0.002695 321.53922 306.14630
356.0 0.002809 321.30463 306.28943
357.0 0.002801 321.07053 306.42752
375.0 0.002667 320.83679 306.56024
336.0 0.002976 320.60342 306.68750
352.0 0.002841 320.37064 306.80905
352.0 0.002841 320.13806 306.92468
365.0 0.002740 319.90588 307.03476
365.0 0.002740 319.67422 307.13861
379.0 0.002639 319.44290 307.23645
365.0 0.002740 319.21204 307.32803
357.0 0.002801 318.98160 307.41336
334.0 0.002994 318.75143 307.49219
330.0 0.003030 318.52170 307.50436
361.0 0.002770 318.29245 307.57196
349.0 0.002865 318.06354 307.63300
326.0 0.003067 317.83508 307.68710
338.0 0.002959 317.60709 307.73480
352.0 0.002841 317.37936 307.77542
328.0 0.003049 317.15213 307.85056
316.0 0.003165 316.92520 307.87845
340.0 0.002941 316.69870 307.89938
367.0 0.002725 316.47272 307.91345
337.0 0.002967 316.24710 307.92044
357.0 0.002801 316.02179 307.89044
323.0 0.003096 315.79700 307.88425
363.0 0.002755 315.57248 307.87091
347.0 0.002882 315.34839 307.82382
324.0 0.003086 315.12482 307.79709
334.0 0.002994 314.90164 307.76328
315.0 0.003175 314.67874 307.74265
349.0 0.002865 314.45639 307.69504
310.0 0.003226 314.23431 307.64023
332.0 0.003012 314.01273 307.57828
344.0 0.002907 313.79147 307.50940
347.0 0.002882 313.57071 307.43332
323.0 0.003096 313.35028 307.35016
350.0 0.002857 313.13031 307.26001
342.0 0.002924 312.91055 307.14944
329.0 0.003040 312.69147 307.04575
329.0 0.003040 312.47266 306.93500
340.0 0.002941 312.25430 306.81735
338.0 0.002959 312.03629 306.69278
357.0 0.002801 311.81876 306.56143
335.0 0.002985 311.60153 306.42316
331.0 0.003021 311.38480 306.27823
365.0 0.002740 311.16846 306.12668
311.0 0.003215 310.95242 305.96832
338.0 0.002959 310.73682 305.80347
369.0 0.002710 310.52173 305.63220
332.0 0.003012 310.30685 305.45432
324.0 0.003086 310.09259 305.27026
360.0 0.002778 309.87869 305.07990
346.0 0.002890 309.66510 304.88327
342.0 0.002924 309.45193 304.68045
316.0 0.003165 309.23923 304.47180
335.0 0.002985 309.02686 304.25708
332.0 0.003012 308.81494 304.03662
356.0 0.002809 308.60345 303.81049
340.0 0.002941 308.39227 303.57874
331.0 0.003021 308.18152 303.35080
320.0 0.003125 307.97119 303.10849
365.0 0.002740 307.76138 302.86118
337.0 0.002967 307.55182 302.60864
315.0 0.003175 307.34274 302.35135
328.0 0.003049 307.13400 302.08926
360.0 0.002778 306.92569 301.82269
323.0 0.003096 306.71783 301.55197
342.0 0.002924 306.51038 301.27710
305.0 0.003279 306.30325 300.99832
348.0 0.002874 306.09659 300.71609
307.0 0.003257 305.89026 300.43045
322.0 0.003106 305.68436 300.14658
309.0 0.003236 305.47885 299.85568
316.0 0.003165 305.27390 299.56281
317.0 0.003155 305.06918 299.26794
333.0 0.003003 304.86493 298.97217
333.0 0.003003 304.66104 298.67563
359.0 0.002786 304.45761 298.37943
326.0 0.003067 304.25452 298.08417
326.0 0.003067 304.05194 297.79105
313.0 0.003195 303.84964 297.50079
314.0 0.003185 303.64780 297.21536
354.0 0.002825 303.44635 296.93625
342.0 0.002924 303.24533 296.66580
339.0 0.002950 303.04459 296.40607
319.0 0.003135 302.84451 296.16116
326.0 0.003067 302.64462 295.93472
306.0 0.003268 302.44522 295.73230
326.0 0.003067 302.24615 295.56033
332.0 0.003012 302.04761 295.42722
305.0 0.003279 301.84943 295.34286
319.0 0.003135 301.65158 295.31937
337.0 0.002967 301.45413 295.37057
326.0 0.003067 301.25717 295.51154
303.0 0.003300 301.06055 295.75528
308.0 0.003247 300.86432 296.10846
343.0 0.002915 300.66864 296.55951
348.0 0.002874 300.47321 297.06445
328.0 0.003049 300.27820 297.53024
331.0 0.003021 300.08365 297.81650
325.0 0.003077 299.88947 297.77921
319.0 0.003135 299.69574 297.34674
351.0 0.002849 299.50241 296.56845
328.0 0.003049 299.30936 295.58524
333.0 0.003003 299.11682 294.55554
322.0 0.003106 298.92462 293.59665
321.0 0.003115 298.73285 292.77289
299.0 0.003344 298.54147 292.10428
323.0 0.003096 298.35065 291.57803
303.0 0.003300 298.16006 291.15024
313.0 0.003195 297.96997 290.74908
299.0 0.003344 297.78018 290.28601
324.0 0.003086 297.59082 289.68713
334.0 0.002994 297.40195 288.92938
338.0 0.002959 297.21344 288.05011
330.0 0.003030 297.02527 287.11816
311.0 0.003215 296.83759 286.19800
297.0 0.003367 296.65024 285.33035
346.0 0.002890 296.46329 284.53436
294.0 0.003401 296.27682 283.81461
365.0 0.002740 296.09076 283.20523
348.0 0.002874 295.90503 282.62692
346.0 0.002890 295.71976 282.11020
316.0 0.003165 295.53482 281.64746
314.0 0.003185 295.35031 281.22855
326.0 0.003067 295.16626 280.83823
306.0 0.003268 294.98264 280.45270
334.0 0.002994 294.79932 280.04428
336.0 0.002976 294.61642 279.59064
323.0 0.003096 294.43393 279.08630
313.0 0.003195 294.25183 278.54611
347.0 0.002882 294.07028 277.99487
319.0 0.003135 293.88898 277.47293
302.0 0.003311 293.70810 276.95798
303.0 0.003300 293.52768 276.47455
292.0 0.003425 293.34760 276.02252
293.0 0.003413 293.16800 275.59799
347.0 0.002882 292.98880 275.19122
331.0 0.003021 292.80991 274.78928
282.0 0.00355 292.63144 274.37741
311.0 0.003215 292.45340 273.94571
306.0 0.003268 292.27576 273.49362
302.0 0.003311 292.09854 273.02988
294.0 0.003401 291.92178 272.56573
307.0 0.003257 291.74533 272.10992
275.0 0.00364 291.56931 271.66776
337.0 0.002967 291.39371 271.24124
303.0 0.003300 291.21848 270.82965
329.0 0.003040 291.04370 270.43240
300.0 0.003333 290.86935 270.04813
313.0 0.003195 290.69531 269.67514
315.0 0.003175 290.52170 269.31290
310.0 0.003226 290.34854 268.96030
291.0 0.003436 290.17569 268.61652
330.0 0.003030 290.00333 268.28149
306.0 0.003268 289.83139 267.95425
309.0 0.003236 289.65979 267.63486
279.0 0.00358 289.48859 267.32288
319.0 0.003135 289.31787 267.01855
333.0 0.003003 289.14746 266.72150
309.0 0.003236 288.97754 266.43192
307.0 0.003257 288.80801 266.15018
321.0 0.003115 288.63885 265.87598
283.0 0.00353 288.47012 265.60968
286.0 0.003497 288.30176 265.35153
265.0 0.00377 288.13373 265.10187
298.0 0.003356 287.96622 264.86136
306.0 0.003268 287.79913 264.63022
312.0 0.003205 287.63239 264.40909
300.0 0.003333 287.46609 264.19894
315.0 0.003175 287.30014 264.00049
326.0 0.003067 287.13464 263.81497
325.0 0.003077 286.96951 263.64401
316.0 0.003165 286.80481 263.48935
290.0 0.003448 286.64047 263.35324
289.0 0.003460 286.47662 263.23886
290.0 0.003448 286.31302 263.14987
295.0 0.003390 286.15002 263.09106
309.0 0.003236 285.98724 263.06815
342.0 0.002924 285.82498 263.08829
331.0 0.003021 285.66306 263.15970
301.0 0.003322 285.50162 263.29156
297.0 0.003367 285.34052 263.45105
302.0 0.003311 285.17987 263.72864
288.0 0.003472 285.01956 264.07990
312.0 0.003205 284.85974 264.48596
293.0 0.003413 284.70026 264.90015
302.0 0.003311 284.54120 265.24341
316.0 0.003165 284.38245 265.42035
300.0 0.003333 284.22430 265.36227
294.0 0.003401 284.06644 265.07047
290.0 0.003448 283.90897 264.61703
294.0 0.003401 283.75189 264.10309
284.0 0.00352 283.59528 263.61481
305.0 0.003279 283.43903 263.18466
271.0 0.00369 283.28320 262.87762
302.0 0.003311 283.12781 262.66455
266.0 0.00376 282.97275 262.54889
295.0 0.003390 282.81812 262.48807
298.0 0.003356 282.66388 262.43256
316.0 0.003165 282.51013 262.32654
318.0 0.003145 282.35669 262.12918
338.0 0.002959 282.20370 261.83615
293.0 0.003413 282.05103 261.47797
280.0 0.00357 281.89880 261.09903
291.0 0.003436 281.74704 260.73624
284.0 0.00352 281.59567 260.41086
302.0 0.003311 281.44467 260.14145
295.0 0.003390 281.29410 259.90216
282.0 0.00355 281.14389 259.70905
316.0 0.003165 280.99411 259.55222
311.0 0.003215 280.84470 259.42645
296.0 0.003378 280.69580 259.32736
266.0 0.00376 280.54721 259.25101
280.0 0.00357 280.39908 259.19403
286.0 0.003497 280.25125 259.15399
311.0 0.003215 280.10385 259.12881
284.0 0.00352 279.95694 259.11661
283.0 0.00353 279.81042 259.11621
296.0 0.003378 279.66425 259.13177
268.0 0.00373 279.51852 259.15186
284.0 0.00352 279.37317 259.18106
254.0 0.00394 279.22824 259.21869
299.0 0.003344 279.08365 259.26431
292.0 0.003425 278.93961 259.31729
297.0 0.003367 278.79584 259.37753
273.0 0.00366 278.65256 259.44476
293.0 0.003413 278.50955 259.51849
292.0 0.003425 278.36707 259.59851
287.0 0.003484 278.22498 259.68472
311.0 0.003215 278.08325 259.77682
273.0 0.00366 277.94193 259.87479
281.0 0.00356 277.80106 259.97821
270.0 0.00370 277.66055 260.08719
274.0 0.00365 277.52042 260.20126
295.0 0.003390 277.38080 260.32062
287.0 0.003484 277.24152 260.44507
250.0 0.00400 277.10260 260.57434
261.0 0.00383 276.96414 260.70844
281.0 0.00356 276.82605 260.84735
253.0 0.00395 276.68835 260.99045
280.0 0.00357 276.55112 261.13840
274.0 0.00365 276.41422 261.29059
276.0 0.00362 276.27774 261.44724
271.0 0.00369 276.14169 261.60794
266.0 0.00376 276.00601 261.77267
268.0 0.00373 275.87076 261.94153
257.0 0.00389 275.73599 262.13568
293.0 0.003413 275.60153 262.31290
285.0 0.00351 275.46750 262.49356
265.0 0.00377 275.33383 262.67813
276.0 0.00362 275.20059 262.86636
295.0 0.003390 275.06775 263.05786
273.0 0.00366 274.93530 263.25296
272.0 0.00368 274.80331 263.45148
274.0 0.00365 274.67172 263.65338
263.0 0.00380 274.54053 263.85843
288.0 0.003472 274.40967 264.02905
291.0 0.003436 274.27927 264.24161
288.0 0.003472 274.14929 264.46790
254.0 0.00394 274.01965 264.68649
272.0 0.00368 273.89047 264.90836
287.0 0.003484 273.76166 265.13324
239.0 0.00418 273.63324 265.36099
233.0 0.00429 273.50531 265.59183
277.0 0.00361 273.37766 265.82578
256.0 0.00391 273.25052 266.06256
264.0 0.00379 273.12375 266.30276
246.0 0.00407 272.99738 266.54623
296.0 0.003378 272.87140 266.77448
302.0 0.003311 272.74582 267.02585
265.0 0.00377 272.62070 267.28116
296.0 0.003378 272.49591 267.54095
290.0 0.003448 272.37158 267.80569
279.0 0.00358 272.24762 268.07620
278.0 0.00360 272.12405 268.35333
314.0 0.003185 272.00092 268.63831
271.0 0.00369 271.87811 268.93253
266.0 0.00376 271.75580 269.23813
279.0 0.00358 271.63388 269.55698
257.0 0.00389 271.51239 269.89230
296.0 0.003378 271.39124 270.24677
254.0 0.00394 271.27054 270.62411
263.0 0.00380 271.15021 271.02664
285.0 0.00351 271.03027 271.45554
286.0 0.003497 270.91080 271.90698
297.0 0.003367 270.79166 272.37009
265.0 0.00377 270.67297 272.82169
255.0 0.00392 270.55466 273.23135
261.0 0.00383 270.43683 273.56244
277.0 0.00361 270.31927 273.80099
231.0 0.00433 270.20218 273.95773
274.0 0.00365 270.08551 274.06470
279.0 0.00358 269.96921 274.15771
281.0 0.00356 269.85333 274.26471
258.0 0.00388 269.73785 274.40143
227.0 0.00441 269.62277 274.57422
279.0 0.00358 269.50812 274.78223
262.0 0.00382 269.39383 275.01944
237.0 0.00422 269.28000 275.27316
283.0 0.00353 269.16650 275.52710
250.0 0.00400 269.05344 275.75909
262.0 0.00382 268.94083 275.95456
261.0 0.00383 268.82858 276.11227
282.0 0.00355 268.71674 276.24210
242.0 0.00413 268.60529 276.36060
272.0 0.00368 268.49426 276.48187
273.0 0.00366 268.38361 276.61478
270.0 0.00370 268.27341 276.76300
262.0 0.00382 268.16354 276.92776
288.0 0.003472 268.05411 277.10852
242.0 0.00413 267.94513 277.30392
295.0 0.003390 267.83655 277.51331
283.0 0.00353 267.72833 277.73599
274.0 0.00365 267.62051 277.97253
276.0 0.00362 267.51309 278.22324
240.0 0.00417 267.40607 278.48990
267.0 0.00375 267.29947 278.77469
291.0 0.003436 267.19330 279.08069
260.0 0.00385 267.08749 279.41229
247.0 0.00405 266.98212 279.77444
240.0 0.00417 266.87714 280.17300
274.0 0.00365 266.77252 280.61401
270.0 0.00370 266.66837 281.10202
264.0 0.00379 266.56458 281.63797
271.0 0.00369 266.46127 282.21317
233.0 0.00429 266.35828 282.80377
271.0 0.00369 266.25571 283.36365
279.0 0.00358 266.15353 283.82925
261.0 0.00383 266.05176 284.13904
275.0 0.00364 265.95044 284.26611
241.0 0.00415 265.84946 284.23550
242.0 0.00413 265.74896 284.10971
255.0 0.00392 265.64880 283.95758
260.0 0.00385 265.54904 283.83099
289.0 0.003460 265.44977 283.75986
265.0 0.00377 265.35086 283.75562
275.0 0.00364 265.25232 283.81750
230.0 0.00435 265.15417 283.93344
256.0 0.00391 265.05649 284.08063
261.0 0.00383 264.95911 284.22556
261.0 0.00383 264.86221 284.32956
225.0 0.00444 264.76569 284.36243
242.0 0.00413 264.66959 284.31750
250.0 0.00400 264.57388 284.21231
279.0 0.00358 264.47858 284.07788
254.0 0.00394 264.38373 283.94196
274.0 0.00365 264.28922 283.82285
261.0 0.00383 264.19519 283.72888
231.0 0.00433 264.10147 283.66205
244.0 0.00410 264.00818 283.62073
241.0 0.00415 263.91534 283.60150
260.0 0.00385 263.82281 283.60068
239.0 0.00418 263.73074 283.61389
215.0 0.00465 263.63907 283.63568
260.0 0.00385 263.54779 283.66006
236.0 0.00424 263.45697 283.68109
251.0 0.00398 263.36649 283.69513
271.0 0.00369 263.27646 283.70172
261.0 0.00383 263.18683 283.70297
254.0 0.00394 263.09763 283.70221
240.0 0.00417 263.00876 283.70221
253.0 0.00395 262.92035 283.70410
219.0 0.00457 262.83231 283.70853
234.0 0.00427 262.74460 283.71524
248.0 0.00403 262.65741 283.72330
247.0 0.00405 262.57059 283.73141
227.0 0.00441 262.48416 283.73752
242.0 0.00413 262.39816 283.73938
252.0 0.00397 262.31253 283.73474
249.0 0.00402 262.22733 283.72232
226.0 0.00442 262.14255 283.69223
258.0 0.00388 262.05817 283.66766
259.0 0.00386 261.97415 283.63913
247.0 0.00405 261.89059 283.60809
268.0 0.00373 261.80737 283.57498
259.0 0.00386 261.72458 283.54004
237.0 0.00422 261.64218 283.50290
242.0 0.00413 261.56018 283.46408
256.0 0.00391 261.47864 283.42258
253.0 0.00395 261.39743 283.37845
270.0 0.00370 261.31665 283.33151
252.0 0.00397 261.23636 283.28152
251.0 0.00398 261.15637 283.22861
275.0 0.00364 261.07684 283.16714
259.0 0.00386 260.99768 283.10782
244.0 0.00410 260.91895 283.04520
242.0 0.00413 260.84058 282.97931
229.0 0.00437 260.76263 282.90991
248.0 0.00403 260.68506 282.83719
272.0 0.00368 260.60791 282.76108
241.0 0.00415 260.53119 282.68167
230.0 0.00435 260.45486 282.59872
235.0 0.00426 260.37894 282.51233
252.0 0.00397 260.30344 282.42273
257.0 0.00389 260.22833 282.32968
238.0 0.00420 260.15363 282.23331
219.0 0.00457 260.07928 282.13364
253.0 0.00395 260.00540 282.03073
253.0 0.00395 259.93188 281.92459
237.0 0.00422 259.85880 281.81528
250.0 0.00400 259.78610 281.70261
244.0 0.00410 259.71375 281.58694
242.0 0.00413 259.64188 281.46805
254.0 0.00394 259.57037 281.34622
241.0 0.00415 259.49936 281.22144
235.0 0.00426 259.42865 281.09360
234.0 0.00427 259.35840 280.96277
250.0 0.00400 259.28851 280.82916
225.0 0.00444 259.21906 280.69263
253.0 0.00395 259.14999 280.55334
257.0 0.00389 259.08133 280.38953
227.0 0.00441 259.01309 280.24536
242.0 0.00413 258.94522 280.09845
229.0 0.00437 258.87772 279.94894
229.0 0.00437 258.81067 279.79688
236.0 0.00424 258.74402 279.64224
236.0 0.00424 258.67783 279.48529
246.0 0.00407 258.61200 279.32593
217.0 0.00461 258.54657 279.16415
228.0 0.00439 258.48154 279.00012
253.0 0.00395 258.41693 278.83389
232.0 0.00431 258.35269 278.66544
255.0 0.00392 258.28888 278.49484
237.0 0.00422 258.22546 278.31155
247.0 0.00405 258.16245 278.13547
239.0 0.00418 258.09985 277.95929
225.0 0.00444 258.03760 277.78110
228.0 0.00439 257.97583 277.60120
233.0 0.00429 257.91443 277.41956
268.0 0.00373 257.85342 277.23605
217.0 0.00461 257.79285 277.05115
242.0 0.00413 257.73267 276.86450
253.0 0.00395 257.67291 276.67645
251.0 0.00398 257.61353 276.48685
250.0 0.00400 257.55453 276.29596
221.0 0.00452 257.49597 276.10367
233.0 0.00429 257.43781 275.90927
230.0 0.00435 257.38004 275.71463
256.0 0.00391 257.32263 275.51880
237.0 0.00422 257.26569 275.32187
236.0 0.00424 257.20917 275.12415
239.0 0.00418 257.15298 274.92532
229.0 0.00437 257.09726 274.72568
256.0 0.00391 257.04190 274.52527
251.0 0.00398 256.98700 274.32407
236.0 0.00424 256.93243 274.12228
244.0 0.00410 256.87830 273.91968
225.0 0.00444 256.82458 273.71680
215.0 0.00465 256.77127 273.51337
227.0 0.00441 256.71835 273.30954
218.0 0.00459 256.66586 273.10544
242.0 0.00413 256.61371 272.90100
253.0 0.00395 256.56198 272.69629
211.0 0.00474 256.51068 272.49161
242.0 0.00413 256.45978 272.28674
252.0 0.00397 256.40927 272.08194
227.0 0.00441 256.35919 271.87729
219.0 0.00457 256.30951 271.67279
229.0 0.00437 256.26022 271.46854
245.0 0.00408 256.21133 271.26465
269.0 0.00372 256.16284 271.06110
248.0 0.00403 256.11478 270.85828
238.0 0.00420 256.06711 270.65598
248.0 0.00403 256.01981 270.45465
240.0 0.00417 255.97295 270.25397
231.0 0.00433 255.92648 270.05447
241.0 0.00415 255.88043 269.85617
218.0 0.00459 255.83476 269.65924
268.0 0.00373 255.78952 269.46375
231.0 0.00433 255.74466 269.26990
229.0 0.00437 255.70023 269.07770
253.0 0.00395 255.65619 268.88687
233.0 0.00429 255.61255 268.69681
255.0 0.00392 255.56934 268.50702
215.0 0.00465 255.52652 268.31616
251.0 0.00398 255.48404 268.12357
243.0 0.00412 255.44200 267.92926
272.0 0.00368 255.40041 267.73422
255.0 0.00392 255.35918 267.53937
268.0 0.00373 255.31837 267.34592
273.0 0.00366 255.27795 267.15445
240.0 0.00417 255.23795 266.96545
238.0 0.00420 255.19836 266.77911
218.0 0.00459 255.15915 266.59543
262.0 0.00382 255.12036 266.41446
252.0 0.00397 255.08197 266.23550
252.0 0.00397 255.04401 266.05853
259.0 0.00386 255.00642 265.88260
225.0 0.00444 254.96919 265.70731
232.0 0.00431 254.93242 265.53278
208.0 0.00481 254.89604 265.35968
246.0 0.00407 254.86009 265.18741
253.0 0.00395 254.82451 265.01685
234.0 0.00427 254.78935 264.84857
217.0 0.00461 254.75459 264.68283
227.0 0.00441 254.72025 264.51962
242.0 0.00413 254.68629 264.35901
232.0 0.00431 254.65276 264.20096
228.0 0.00439 254.61961 264.04547
249.0 0.00402 254.58687 263.89258
240.0 0.00417 254.55449 263.74210
255.0 0.00392 254.52257 263.59424
257.0 0.00389 254.49103 263.44882
234.0 0.00427 254.45992 263.30609
221.0 0.00452 254.42918 263.16620
239.0 0.00418 254.39886 263.02847
232.0 0.00431 254.36896 262.89340
232.0 0.00431 254.33945 262.76080
247.0 0.00405 254.31033 262.63095
239.0 0.00418 254.28165 262.50369
263.0 0.00380 254.25334 262.37912
236.0 0.00424 254.22545 262.25720
220.0 0.00455 254.19797 262.13794
241.0 0.00415 254.17082 262.02139
234.0 0.00427 254.14413 261.90762
258.0 0.00388 254.11786 261.79666
247.0 0.00405 254.09198 261.68845
241.0 0.00415 254.06651 261.58307
213.0 0.00469 254.04143 261.48050
239.0 0.00418 254.01675 261.38074
272.0 0.00368 253.99251 261.28397
227.0 0.00441 253.96864 261.18997
224.0 0.00446 253.94519 261.09888
249.0 0.00402 253.92213 261.01071
228.0 0.00439 253.89949 260.92545
245.0 0.00408 253.87720 260.84311
220.0 0.00455 253.85536 260.76373
248.0 0.00403 253.83392 260.68738
269.0 0.00372 253.81288 260.61392
235.0 0.00426 253.79225 260.54352
228.0 0.00439 253.77202 260.47607
246.0 0.00407 253.75220 260.41165
232.0 0.00431 253.73279 260.35031
217.0 0.00461 253.71378 260.29190
238.0 0.00420 253.69516 260.23648
215.0 0.00465 253.67694 260.18420
225.0 0.00444 253.65913 260.13492
244.0 0.00410 253.64174 260.08865
232.0 0.00431 253.62469 260.04538
247.0 0.00405 253.60809 260.00525
215.0 0.00465 253.59190 259.96808
270.0 0.00370 253.57611 259.93405
223.0 0.00448 253.56073 259.90305
222.0 0.00450 253.54576 259.87506
200.0 0.00500 253.53117 259.85013
232.0 0.00431 253.51700 259.82822
229.0 0.00437 253.50323 259.82120
225.0 0.00444 253.48987 259.80560
220.0 0.00455 253.47690 259.79318
220.0 0.00455 253.46434 259.78369
272.0 0.00368 253.45215 259.77725
240.0 0.00417 253.44038 259.77380
227.0 0.00441 253.42905 259.77344
225.0 0.00444 253.41809 259.77609
218.0 0.00459 253.40755 259.78174
196.0 0.00510 253.39742 259.79025
223.0 0.00448 253.38768 259.80188
236.0 0.00424 253.37836 259.81650
243.0 0.00412 253.36943 259.83405
249.0 0.00402 253.36090 259.85455
234.0 0.00427 253.35278 259.88391
221.0 0.00452 253.34506 259.91043
234.0 0.00427 253.33775 259.93994
233.0 0.00429 253.33080 259.97235
255.0 0.00392 253.32430 260.00772
254.0 0.00394 253.31819 260.04608
258.0 0.00388 253.31250 260.08725
229.0 0.00437 253.30721 260.13141
233.0 0.00429 253.30231 260.17859
237.0 0.00422 253.29782 260.22867
251.0 0.00398 253.29373 260.28168
216.0 0.00463 253.29005 260.33746
255.0 0.00392 253.28677 260.39655
236.0 0.00424 253.28391 260.46317
246.0 0.00407 253.28143 260.52875
217.0 0.00461 253.27933 260.59753
251.0 0.00398 253.27766 260.66968
238.0 0.00420 253.27641 260.74533
224.0 0.00446 253.27554 260.82480
226.0 0.00442 253.27510 260.90817
249.0 0.00402 253.27505 260.99567
249.0 0.00402 253.27541 261.08746
239.0 0.00418 253.27617 261.18381
239.0 0.00418 253.27733 261.28424
223.0 0.00448 253.27888 261.38840
229.0 0.00437 253.28085 261.49493
229.0 0.00437 253.28323 261.61484
265.0 0.00377 253.28596 261.72211
264.0 0.00379 253.28915 261.82306
238.0 0.00420 253.29272 261.91956
240.0 0.00417 253.29672 262.01270
232.0 0.00431 253.30110 262.10507
251.0 0.00398 253.30591 262.19913
258.0 0.00388 253.31110 262.29672
222.0 0.00450 253.31671 262.39883
250.0 0.00400 253.32271 262.50604
255.0 0.00392 253.32912 262.61835
270.0 0.00370 253.33592 262.73541
262.0 0.00382 253.34314 262.85693
236.0 0.00424 253.35077 262.98151
205.0 0.00488 253.35875 263.11484
241.0 0.00415 253.36717 263.24265
249.0 0.00402 253.37601 263.36990
244.0 0.00410 253.38524 263.49713
273.0 0.00366 253.39487 263.62479
237.0 0.00422 253.40492 263.75415
220.0 0.00455 253.41536 263.88641
240.0 0.00417 253.42621 264.02255
230.0 0.00435 253.43747 264.16321
259.0 0.00386 253.44911 264.30869
242.0 0.00413 253.46118 264.45947
236.0 0.00424 253.47363 264.61584
231.0 0.00433 253.48647 264.77814
218.0 0.00459 253.49974 264.94730
229.0 0.00437 253.51340 265.12399
271.0 0.00369 253.52748 265.30948
243.0 0.00412 253.54196 265.50488
251.0 0.00398 253.55685 265.71222
273.0 0.00366 253.57214 265.93344
263.0 0.00380 253.58783 266.17096
242.0 0.00413 253.60393 266.42767
219.0 0.00457 253.62042 266.70612
226.0 0.00442 253.63731 267.00851
228.0 0.00439 253.65463 267.33539
219.0 0.00457 253.67233 267.68320
234.0 0.00427 253.69040 268.04233
229.0 0.00437 253.70892 268.39444
231.0 0.00433 253.72784 268.71274
220.0 0.00455 253.74716 268.96875
220.0 0.00455 253.76689 269.14584
244.0 0.00410 253.78702 269.24805
210.0 0.00476 253.80756 269.29892
253.0 0.00395 253.82851 269.32968
240.0 0.00417 253.84984 269.36761
216.0 0.00463 253.87158 269.43140
259.0 0.00386 253.89372 269.53079
260.0 0.00385 253.91628 269.66968
229.0 0.00437 253.93919 269.84692
235.0 0.00426 253.96255 270.05688
231.0 0.00433 253.98633 270.28815
244.0 0.00410 254.01048 270.52225
238.0 0.00420 254.03506 270.73547
266.0 0.00376 254.06003 270.90491
243.0 0.00412 254.08540 271.01819
216.0 0.00463 254.11119 271.07971
220.0 0.00455 254.13737 271.10703
259.0 0.00386 254.16397 271.12244
265.0 0.00377 254.19095 271.14374
240.0 0.00417 254.21834 271.18289
228.0 0.00439 254.24612 271.24478
238.0 0.00420 254.27431 271.33121
224.0 0.00446 254.30290 271.44141
224.0 0.00446 254.33192 271.57312
215.0 0.00465 254.36133 271.72314
238.0 0.00420 254.39114 271.88739
239.0 0.00418 254.42137 272.06143
247.0 0.00405 254.45200 272.24185
254.0 0.00394 254.48302 272.42789
233.0 0.00429 254.51447 272.62265
261.0 0.00383 254.54628 272.83130
254.0 0.00394 254.57852 273.06012
231.0 0.00433 254.61116 273.31378
231.0 0.00433 254.64417 273.59512
227.0 0.00441 254.67761 273.90359
236.0 0.00424 254.71147 274.23315
235.0 0.00426 254.74573 274.56918
248.0 0.00403 254.78038 274.88834
239.0 0.00418 254.81546 275.16046
236.0 0.00424 254.85092 275.35831
256.0 0.00391 254.88680 275.47125
234.0 0.00427 254.92308 275.51068
237.0 0.00422 254.95973 275.50418
250.0 0.00400 254.99681 275.48273
251.0 0.00398 255.03430 275.47058
254.0 0.00394 255.07219 275.48315
262.0 0.00382 255.11043 275.52747
271.0 0.00369 255.14914 275.60562
236.0 0.00424 255.18825 275.71552
211.0 0.00474 255.22774 275.85199
261.0 0.00383 255.26765 276.00635
232.0 0.00431 255.30795 276.16486
225.0 0.00444 255.34868 276.31058
236.0 0.00424 255.38977 276.42740
247.0 0.00405 255.43130 276.50681
247.0 0.00405 255.47322 276.55060
240.0 0.00417 255.51555 276.56937
211.0 0.00474 255.55829 276.57874
252.0 0.00397 255.60138 276.58948
270.0 0.00370 255.64493 276.60876
235.0 0.00426 255.68886 276.63986
242.0 0.00413 255.73322 276.68320
242.0 0.00413 255.77797 276.73798
248.0 0.00403 255.82312 276.80264
240.0 0.00417 255.86868 276.87579
240.0 0.00417 255.91461 276.95560
230.0 0.00435 255.96098 277.04114
232.0 0.00431 256.00775 277.13092
269.0 0.00372 256.05493 277.22424
233.0 0.00429 256.10251 277.31976
243.0 0.00412 256.15048 277.43033
256.0 0.00391 256.19882 277.52991
228.0 0.00439 256.24759 277.63052
232.0 0.00431 256.29678 277.73172
251.0 0.00398 256.34641 277.83340
220.0 0.00455 256.39639 277.93506
255.0 0.00392 256.44675 278.03668
249.0 0.00402 256.49759 278.13803
241.0 0.00415 256.54880 278.23898
247.0 0.00405 256.60037 278.33951
227.0 0.00441 256.65240 278.43948
224.0 0.00446 256.70480 278.52658
250.0 0.00400 256.75766 278.62534
240.0 0.00417 256.81085 278.72314
239.0 0.00418 256.86447 278.82645
257.0 0.00389 256.91852 278.92264
236.0 0.00424 256.97293 279.01785
243.0 0.00412 257.02777 279.11215
263.0 0.00380 257.08298 279.20575
261.0 0.00383 257.13864 279.29791
258.0 0.00388 257.19470 279.38898
274.0 0.00365 257.25113 279.47879
250.0 0.00400 257.30801 279.56769
258.0 0.00388 257.36526 279.65530
237.0 0.00422 257.42294 279.74185
233.0 0.00429 257.48096 279.81808
245.0 0.00408 257.53943 279.90247
264.0 0.00379 257.59833 279.98648
213.0 0.00469 257.65759 280.06854
237.0 0.00422 257.71725 280.14948
241.0 0.00415 257.77734 280.22913
254.0 0.00394 257.83783 280.30774
222.0 0.00450 257.89874 280.38510
243.0 0.00412 257.96002 280.46158
234.0 0.00427 258.02173 280.53668
259.0 0.00386 258.08383 280.61047
233.0 0.00429 258.14633 280.68320
250.0 0.00400 258.20926 280.75485
247.0 0.00405 258.27252 280.82541
242.0 0.00413 258.33627 280.89481
230.0 0.00435 258.40036 280.96307
245.0 0.00408 258.46490 281.03030
252.0 0.00397 258.52979 281.09692
252.0 0.00397 258.59515 281.16223
276.0 0.00362 258.66086 281.22641
238.0 0.00420 258.72702 281.28973
251.0 0.00398 258.79358 281.35205
258.0 0.00388 258.86050 281.41351
284.0 0.00352 258.92786 281.47427
252.0 0.00397 258.99561 281.53409
237.0 0.00422 259.06375 281.59314
238.0 0.00420 259.13232 281.63745
253.0 0.00395 259.20123 281.69553
248.0 0.00403 259.27060 281.75317
233.0 0.00429 259.34036 281.81030
267.0 0.00375 259.41055 281.86710
238.0 0.00420 259.48111 281.92368
245.0 0.00408 259.55212 281.98010
280.0 0.00357 259.62350 282.03665
232.0 0.00431 259.69528 282.09335
239.0 0.00418 259.76749 282.15067
228.0 0.00439 259.84009 282.20862
271.0 0.00369 259.91309 282.26758
251.0 0.00398 259.98648 282.32797
266.0 0.00376 260.06027 282.39023
277.0 0.00361 260.13443 282.44852
256.0 0.00391 260.20908 282.51657
274.0 0.00365 260.28409 282.58868
245.0 0.00408 260.35950 282.66595
248.0 0.00403 260.43536 282.74957
260.0 0.00385 260.51157 282.84106
238.0 0.00420 260.58820 282.94247
232.0 0.00431 260.66525 283.05579
260.0 0.00385 260.74268 283.18475
242.0 0.00413 260.82053 283.32962
266.0 0.00376 260.89871 283.49362
250.0 0.00400 260.97736 283.67844
255.0 0.00392 261.05640 283.88339
256.0 0.00391 261.13589 284.10303
246.0 0.00407 261.21576 284.32578
266.0 0.00376 261.29602 284.53128
224.0 0.00446 261.37668 284.69354
262.0 0.00382 261.45773 284.78778
284.0 0.00352 261.53925 284.80249
275.0 0.00364 261.62112 284.74527
267.0 0.00375 261.70340 284.63953
265.0 0.00377 261.78610 284.51340
251.0 0.00398 261.86917 284.39056
278.0 0.00360 261.95261 284.28662
270.0 0.00370 262.03650 284.21042
242.0 0.00413 262.12079 284.16391
267.0 0.00375 262.20551 284.14734
242.0 0.00413 262.29062 284.15768
273.0 0.00366 262.37613 284.18915
248.0 0.00403 262.46204 284.23264
241.0 0.00415 262.54837 284.27496
282.0 0.00355 262.63510 284.30078
278.0 0.00360 262.72223 284.29758
250.0 0.00400 262.80978 284.26010
281.0 0.00356 262.89764 284.19345
251.0 0.00398 262.98596 284.10904
288.0 0.003472 263.07471 284.02835
257.0 0.00389 263.16385 283.94424
277.0 0.00361 263.25339 283.87097
257.0 0.00389 263.34335 283.81100
264.0 0.00379 263.43372 283.76459
265.0 0.00377 263.52444 283.73032
266.0 0.00376 263.61563 283.70575
271.0 0.00369 263.70718 283.68814
257.0 0.00389 263.79916 283.67490
271.0 0.00369 263.89154 283.66357
272.0 0.00368 263.98428 283.65347
257.0 0.00389 264.07748 283.64423
248.0 0.00403 264.17099 283.63617
265.0 0.00377 264.26501 283.62860
266.0 0.00376 264.35938 283.62067
308.0 0.003247 264.45419 283.61673
272.0 0.00368 264.54941 283.60837
267.0 0.00375 264.64499 283.60092
249.0 0.00402 264.74100 283.59546
260.0 0.00385 264.83740 283.59299
259.0 0.00386 264.93423 283.59366
260.0 0.00385 265.03137 283.59695
283.0 0.00353 265.12903 283.60202
242.0 0.00413 265.22702 283.60794
270.0 0.00370 265.32544 283.61395
243.0 0.00412 265.42429 283.62024
276.0 0.00362 265.52350 283.62646
282.0 0.00355 265.62317 283.63284
254.0 0.00394 265.72318 283.63937
292.0 0.003425 265.82364 283.64572
279.0 0.00358 265.92450 283.65225
301.0 0.003322 266.02573 283.65793
278.0 0.00360 266.12741 283.66409
271.0 0.00369 266.22940 283.67136
280.0 0.00357 266.33188 283.68011
284.0 0.00352 266.43472 283.69073
289.0 0.003460 266.53802 283.70340
259.0 0.00386 266.64169 283.71808
275.0 0.00364 266.74573 283.73486
290.0 0.003448 266.85022 283.75363
288.0 0.003472 266.95508 283.77435
276.0 0.00362 267.06039 283.79727
270.0 0.00370 267.16611 283.82214
267.0 0.00375 267.27219 283.84946
273.0 0.00366 267.37866 283.87918
316.0 0.003165 267.48553 283.91165
294.0 0.003401 267.59286 283.94742
284.0 0.00352 267.70056 283.98584
279.0 0.00358 267.80869 284.02798
269.0 0.00372 267.91718 284.07364
283.0 0.00353 268.02609 284.12308
297.0 0.003367 268.13541 284.17581
283.0 0.00353 268.24512 284.23093
295.0 0.003390 268.35529 284.28668
295.0 0.003390 268.46582 284.34177
273.0 0.00366 268.57675 284.39462
263.0 0.00380 268.68802 284.44592
265.0 0.00377 268.79977 284.49768
279.0 0.00358 268.91196 284.55298
267.0 0.00375 269.02451 284.61523
276.0 0.00362 269.13748 284.68719
292.0 0.003425 269.25076 284.77097
281.0 0.00356 269.36453 284.86792
290.0 0.003448 269.47876 284.96500
292.0 0.003425 269.59329 285.08609
270.0 0.00370 269.70825 285.21283
284.0 0.00352 269.82364 285.33612
262.0 0.00382 269.93939 285.44327
296.0 0.003378 270.05557 285.52139
264.0 0.00379 270.17215 285.56287
304.0 0.003289 270.28918 285.56845
304.0 0.003289 270.40652 285.54767
269.0 0.00372 270.52435 285.51410
296.0 0.003378 270.64255 285.47968
270.0 0.00370 270.76111 285.45331
294.0 0.003401 270.88016 285.44025
298.0 0.003356 270.99954 285.44275
290.0 0.003448 271.11942 285.46106
285.0 0.00351 271.23959 285.48801
250.0 0.00400 271.36023 285.53470
268.0 0.00373 271.48117 285.59094
287.0 0.003484 271.60263 285.65186
280.0 0.00357 271.72446 285.71066
300.0 0.003333 271.84671 285.76065
298.0 0.003356 271.96936 285.79669
302.0 0.003311 272.09238 285.81827
287.0 0.003484 272.21585 285.82895
290.0 0.003448 272.33966 285.83432
281.0 0.00356 272.46393 285.83994
270.0 0.00370 272.58862 285.84940
303.0 0.003300 272.71359 285.86481
297.0 0.003367 272.83911 285.88690
285.0 0.00351 272.96494 285.91562
286.0 0.003497 273.09122 285.95038
321.0 0.003115 273.21790 285.99051
299.0 0.003344 273.34500 286.03552
297.0 0.003367 273.47250 286.08487
300.0 0.003333 273.60034 286.13782
317.0 0.003155 273.72870 286.19421
295.0 0.003390 273.85733 286.25342
284.0 0.00352 273.98642 286.31964
285.0 0.00351 274.11597 286.38422
313.0 0.003195 274.24585 286.45090
301.0 0.003322 274.37613 286.51968
297.0 0.003367 274.50681 286.59045
276.0 0.00362 274.63797 286.66327
297.0 0.003367 274.76947 286.73764
277.0 0.00361 274.90140 286.81384
308.0 0.003247 275.03375 286.89178
281.0 0.00356 275.16644 286.97147
287.0 0.003484 275.29959 287.05273
283.0 0.00353 275.43311 287.13470
313.0 0.003195 275.56708 287.21960
329.0 0.003040 275.70132 287.30606
278.0 0.00360 275.83609 287.39462
338.0 0.002959 275.97122 287.48712
285.0 0.00351 276.10678 287.57977
322.0 0.003106 276.24280 287.67468
309.0 0.003236 276.37912 287.77191
299.0 0.003344 276.51590 287.87180
291.0 0.003436 276.65305 287.97427
291.0 0.003436 276.79065 288.07974
332.0 0.003012 276.92865 288.18808
303.0 0.003300 277.06702 288.29874
291.0 0.003436 277.20578 288.41125
281.0 0.00356 277.34497 288.52408
325.0 0.003077 277.48450 288.63483
327.0 0.003058 277.62448 288.74240
297.0 0.003367 277.76492 288.84521
313.0 0.003195 277.90573 288.94312
298.0 0.003356 278.04691 289.03754
309.0 0.003236 278.18857 289.13049
305.0 0.003279 278.33054 289.22400
305.0 0.003279 278.47296 289.31961
319.0 0.003135 278.61581 289.41806
325.0 0.003077 278.75900 289.51990
289.0 0.003460 278.90253 289.62521
324.0 0.003086 279.04657 289.73279
330.0 0.003030 279.19104 289.84470
322.0 0.003106 279.33585 289.95932
310.0 0.003226 279.48111 290.07587
308.0 0.003247 279.62674 290.19339
287.0 0.003484 279.77283 290.31079
301.0 0.003322 279.91931 290.42706
281.0 0.00356 280.06613 290.54166
308.0 0.003247 280.21341 290.65491
305.0 0.003279 280.36102 290.76740
338.0 0.002959 280.50916 290.88034
297.0 0.003367 280.65759 290.99445
329.0 0.003040 280.80640 291.11014
308.0 0.003247 280.95569 291.22787
297.0 0.003367 281.10538 291.34766
337.0 0.002967 281.25546 291.45880
308.0 0.003247 281.40594 291.58282
315.0 0.003175 281.55685 291.70871
299.0 0.003344 281.70816 291.83633
284.0 0.00352 281.85983 291.96561
289.0 0.003460 282.01196 292.09659
321.0 0.003115 282.16446 292.22913
325.0 0.003077 282.31738 292.36334
297.0 0.003367 282.47058 292.49902
315.0 0.003175 282.62430 292.63644
315.0 0.003175 282.77847 292.77563
309.0 0.003236 282.93295 292.91666
299.0 0.003344 283.08792 293.05957
275.0 0.00364 283.24323 293.20459
301.0 0.003322 283.39899 293.35184
326.0 0.003067 283.55515 293.50171
307.0 0.003257 283.71167 293.65445
310.0 0.003226 283.86862 293.81046
276.0 0.00362 284.02594 293.97015
286.0 0.003497 284.18375 294.13425
314.0 0.003185 284.34180 294.30319
289.0 0.003460 284.50040 294.47781
316.0 0.003165 284.65930 294.65887
323.0 0.003096 284.81870 294.84686
300.0 0.003333 284.97849 295.04208
300.0 0.003333 285.13864 295.24368
291.0 0.003436 285.29922 295.44986
309.0 0.003236 285.46021 295.65613
330.0 0.003030 285.62161 295.85620
341.0 0.002933 285.78342 296.04218
280.0 0.00357 285.94559 296.20758
335.0 0.002985 286.10815 296.34998
323.0 0.003096 286.27112 296.47263
317.0 0.003155 286.43454 296.58289
313.0 0.003195 286.59830 296.68848
333.0 0.003003 286.76254 296.79620
311.0 0.003215 286.92719 296.91037
326.0 0.003067 287.09216 297.03308
337.0 0.002967 287.25760 297.16537
308.0 0.003247 287.42340 297.30713
334.0 0.002994 287.58966 297.45792
334.0 0.002994 287.75632 297.61649
321.0 0.003115 287.92331 297.78088
311.0 0.003215 288.09067 297.94833
306.0 0.003268 288.25854 298.11478
304.0 0.003289 288.42682 298.27597
294.0 0.003401 288.59540 298.42813
316.0 0.003165 288.76450 298.57056
309.0 0.003236 288.93390 298.70456
327.0 0.003058 289.10379 298.83362
336.0 0.002976 289.27411 298.96136
322.0 0.003106 289.44473 299.09052
317.0 0.003155 289.61581 299.22290
305.0 0.003279 289.78729 299.35907
321.0 0.003115 289.95911 299.49921
328.0 0.003049 290.13138 299.64316
296.0 0.003378 290.30408 299.79059
318.0 0.003145 290.47720 299.94107
328.0 0.003049 290.65067 300.09412
361.0 0.002770 290.82455 300.24948
335.0 0.002985 290.99884 300.40677
312.0 0.003205 291.17358 300.56583
315.0 0.003175 291.34869 300.72647
314.0 0.003185 291.52417 300.88828
308.0 0.003247 291.70013 301.05130
341.0 0.002933 291.87640 301.21542
329.0 0.003040 292.05316 301.38046
310.0 0.003226 292.23019 301.54626
289.0 0.003460 292.40775 301.71304
341.0 0.002933 292.58572 301.88055
328.0 0.003049 292.76401 302.04874
355.0 0.002817 292.94275 302.21753
341.0 0.002933 293.12186 302.38611
348.0 0.002874 293.30145 302.55923
308.0 0.003247 293.48141 302.72998
321.0 0.003115 293.66174 302.90128
339.0 0.002950 293.84256 303.07321
338.0 0.002959 294.02359 303.24551
330.0 0.003030 294.20517 303.41858
325.0 0.003077 294.38712 303.59192
339.0 0.002950 294.56952 303.76584
304.0 0.003289 294.75226 303.94012
361.0 0.002770 294.93549 304.11450
304.0 0.003289 295.11908 304.28903
296.0 0.003378 295.30301 304.46344
335.0 0.002985 295.48746 304.63785
329.0 0.003040 295.67218 304.81226
332.0 0.003012 295.85742 304.98688
343.0 0.002915 296.04306 305.16132
346.0 0.002890 296.22900 305.33646
295.0 0.003390 296.41541 305.51355
320.0 0.003125 296.60217 305.68958
321.0 0.003115 296.78943 305.86603
322.0 0.003106 296.97702 306.04288
347.0 0.002882 297.16504 306.22018
305.0 0.003279 297.35352 306.39780
328.0 0.003049 297.54227 306.57581
349.0 0.002865 297.73154 306.75400
338.0 0.002959 297.92114 306.93237
324.0 0.003086 298.11121 307.11099
328.0 0.003049 298.30154 307.28955
340.0 0.002941 298.49243 307.46823
346.0 0.002890 298.68365 307.64700
342.0 0.002924 298.87534 307.82590
314.0 0.003185 299.06741 308.00497
341.0 0.002933 299.25986 308.18423
310.0 0.003226 299.45276 308.36386
314.0 0.003185 299.64597 308.54355
321.0 0.003115 299.83969 308.72366
330.0 0.003030 300.03375 308.90396
310.0 0.003226 300.22821 309.08441
335.0 0.002985 300.42313 309.26526
335.0 0.002985 300.61838 309.44196
305.0 0.003279 300.81403 309.62317
342.0 0.002924 301.01007 309.80463
355.0 0.002817 301.20660 309.98639
342.0 0.002924 301.40353 310.16943
328.0 0.003049 301.60080 310.35153
355.0 0.002817 301.79855 310.53391
353.0 0.002833 301.99664 310.71628
355.0 0.002817 302.19519 310.89899
305.0 0.003279 302.39413 311.08179
367.0 0.002725 302.59338 311.26483
324.0 0.003086 302.79309 311.44794
324.0 0.003086 302.99319 311.63135
358.0 0.002793 303.19376 311.81491
345.0 0.002899 303.39465 311.99863
340.0 0.002941 303.59604 312.18256
350.0 0.002857 303.79779 312.36459
327.0 0.003058 303.99991 312.54889
335.0 0.002985 304.20248 312.73343
335.0 0.002985 304.40540 312.91812
327.0 0.003058 304.60880 313.10370
354.0 0.002825 304.81256 313.28882
341.0 0.002933 305.01669 313.47415
330.0 0.003030 305.22131 313.65982
322.0 0.003106 305.42615 313.84552
351.0 0.002849 305.63159 314.03162
349.0 0.002865 305.83731 314.21790
343.0 0.002915 306.04355 314.40445
343.0 0.002915 306.25006 314.59131
364.0 0.002747 306.45712 314.77859
328.0 0.003049 306.66452 314.96613
350.0 0.002857 306.87228 315.15390
342.0 0.002924 307.08054 315.34222
323.0 0.003096 307.28909 315.53082
354.0 0.002825 307.49811 315.71997
305.0 0.003279 307.70740 315.90955
344.0 0.002907 307.91727 316.09979
325.0 0.003077 308.12750 316.29062
363.0 0.002755 308.33810 316.48224
361.0 0.002770 308.54916 316.67468
350.0 0.002857 308.76056 316.86804
335.0 0.002985 308.97241 317.06265
351.0 0.002849 309.18469 317.25851
369.0 0.002710 309.39731 317.45578
330.0 0.003030 309.61038 317.65500
363.0 0.002755 309.82376 317.85620
324.0 0.003086 310.03763 318.06006
350.0 0.002857 310.25177 318.26672
336.0 0.002976 310.46646 318.47711
328.0 0.003049 310.68152 318.69153
359.0 0.002786 310.89700 318.91061
339.0 0.002950 311.11292 319.13498
358.0 0.002793 311.32913 319.36469
362.0 0.002762 311.54584 319.59982
354.0 0.002825 311.76291 319.83893
346.0 0.002890 311.98041 320.07990
363.0 0.002755 312.19833 320.31808
339.0 0.002950 312.41660 320.54767
342.0 0.002924 312.63525 320.76260
356.0 0.002809 312.85428 320.95859
351.0 0.002849 313.07379 321.13556
358.0 0.002793 313.29367 321.29718
338.0 0.002959 313.51401 321.44971
349.0 0.002865 313.73477 321.59955
364.0 0.002747 313.95584 321.75153
318.0 0.003145 314.17740 321.90906
303.0 0.003300 314.39926 322.07358
349.0 0.002865 314.62164 322.24597
367.0 0.002725 314.84442 322.42615
344.0 0.002907 315.06750 322.61383
344.0 0.002907 315.29099 322.80814
335.0 0.002985 315.51486 323.00781
331.0 0.003021 315.73926 323.21112
345.0 0.002899 315.96396 323.41495
343.0 0.002915 316.18915 323.61603
380.0 0.002632 316.41473 323.81125
356.0 0.002809 316.64066 323.99899
364.0 0.002747 316.86707 324.17975
366.0 . . .
loop_
_refln_index_h
_refln_index_k
_refln_index_l
_pd_refln_wavelength_id
_refln_observed_status
_refln_F_squared_meas
_refln_F_squared_calc
_refln_phase_calc
_refln_d_spacing
_gsas_i100_meas
1 0 0 1 o 2677.848 2740.553 0.00 5.45418 100.00
1 0 0 2 o 2657.890 2740.553 0.00 5.45418 49.38
0 0 1 1 o 1000.074 1102.811 0.00 4.49838 18.15
0 0 1 2 o 962.918 1102.811 0.00 4.49838 8.70
1 0 -1 1 o 1259.709 1086.304 0.00 3.47034 30.84
1 0 1 1 o 822.662 708.482 0.00 3.47034 20.31
1 0 1 2 o 806.958 708.482 0.00 3.47034 9.91
1 0 -1 2 o 1235.859 1086.304 0.00 3.47034 15.05
1 1 0 1 o 2843.048 2014.948 0.00 3.14897 33.29
1 1 0 2 o 2716.972 2014.948 0.00 3.14897 15.82
2 0 0 1 o 916.194 1202.550 0.00 2.72709 7.89
2 0 0 2 o 755.138 1202.550 0.00 2.72709 3.24
1 1 1 1 o 500.487 469.955 0.00 2.57971 10.57
1 1 1 2 o 566.187 469.955 0.00 2.57971 5.93
2 0 -1 1 o 621.469 295.181 0.00 2.33202 4.92
2 0 1 1 o 1063.270 509.241 0.00 2.33202 8.36
2 0 1 2 o 1152.672 509.241 0.00 2.33202 4.50
2 0 -1 2 o 674.122 295.181 0.00 2.33202 2.65
0 0 2 1 o 868.695 434.520 0.00 2.24919 3.45
0 0 2 2 o 806.421 434.520 0.00 2.24919 1.59
1 0 2 1 o 148.969 549.168 0.00 2.07933 1.41
1 0 -2 1 o 123.156 457.841 0.00 2.07933 1.18
1 0 2 2 o 200.748 549.168 0.00 2.07933 0.93
1 0 -2 2 o 166.459 457.841 0.00 2.07933 0.78
2 1 0 1 o 409.588 582.774 0.00 2.06148 3.73
2 1 0 2 o 451.740 582.774 0.00 2.06148 2.04
2 1 1 1 o -5.706 122.441 0.00 1.87407 0.00
2 1 -1 1 o -4.801 252.167 0.00 1.87407 0.00
2 1 1 2 o -5.706 122.441 0.00 1.87407 0.00
2 1 -1 2 o -4.801 252.167 0.00 1.87407 0.00
1 1 2 1 o 113.521 198.159 0.00 1.83026 1.41
1 1 2 2 o 247.143 198.159 0.00 1.83026 1.49
3 0 0 1 o 1174.025 550.508 0.00 1.81806 3.90
3 0 0 2 o 1392.806 550.508 0.00 1.81806 2.30
2 0 2 1 o -4.208 230.387 0.00 1.73517 0.00
2 0 -2 1 o -4.010 289.277 0.00 1.73517 0.00
2 0 2 2 o -4.208 230.387 0.00 1.73517 0.00
2 0 -2 2 o -4.010 289.277 0.00 1.73517 0.00
3 0 -1 1 o -3.764 92.107 0.00 1.68560 0.00
3 0 1 1 o -3.764 92.107 0.00 1.68560 0.00
3 0 1 2 o -3.764 92.107 0.00 1.68560 0.00
3 0 -1 2 o -3.764 92.107 0.00 1.68560 0.00
2 2 0 1 o -3.337 316.716 0.00 1.57448 0.00
2 2 0 2 o -3.337 316.716 0.00 1.57448 0.00
2 1 -2 1 o -2.446 119.178 0.00 1.51972 0.00
2 1 2 1 o -2.316 157.901 0.00 1.51972 0.00
2 1 -2 2 o -2.446 119.178 0.00 1.51972 0.00
2 1 2 2 o -2.316 157.901 0.00 1.51972 0.00
3 1 0 1 o -2.915 160.798 0.00 1.51272 0.00
0 0 3 1 o -2.450 178.233 0.00 1.49946 0.00
3 1 0 2 o -2.915 160.798 0.00 1.51272 0.00
0 0 3 2 o -2.450 178.233 0.00 1.49946 0.00
2 2 1 1 o -2.186 39.093 0.00 1.48609 0.00
2 2 1 2 o -2.186 39.093 0.00 1.48609 0.00
1 0 -3 1 o -2.216 72.855 0.00 1.44582 0.00
1 0 3 1 o -2.073 140.391 0.00 1.44582 0.00
1 0 3 2 o -2.073 140.391 0.00 1.44582 0.00
1 0 -3 2 o -2.216 72.855 0.00 1.44582 0.00
3 1 -1 1 o -1.988 16.944 0.00 1.43382 0.00
3 1 1 1 o -1.502 64.421 0.00 1.43382 0.00
3 1 -1 2 o -1.988 16.944 0.00 1.43382 0.00
3 1 1 2 o -1.502 64.421 0.00 1.43382 0.00
3 0 2 1 o 443.163 41.590 0.00 1.41391 1.15
3 0 -2 1 o 443.163 41.590 0.00 1.41391 1.15
3 0 2 2 o 1082.105 41.590 0.00 1.41391 1.40
3 0 -2 2 o 1082.106 41.590 0.00 1.41391 1.40
4 0 0 1 o 2060.143 89.685 0.00 1.36354 3.37
1 1 3 1 o 794.259 103.436 0.00 1.35381 4.96
4 0 0 2 o 1144.920 89.685 0.00 1.36354 0.93
1 1 3 2 o 722.974 103.436 0.00 1.35381 2.24
2 0 -3 1 o 1148.789 81.661 0.00 1.31394 3.25
2 0 3 1 o 523.602 36.525 0.00 1.31394 1.48
2 0 -3 2 o 1360.439 81.661 0.00 1.31394 1.91
2 0 3 2 o 620.206 36.525 0.00 1.31394 0.87
4 0 1 1 o 205.171 4.711 0.00 1.30491 0.33
4 0 -1 1 o 1165.135 32.526 0.00 1.30491 1.89
4 0 1 2 o 352.795 4.711 0.00 1.30491 0.29
4 0 -1 2 o 1999.290 32.526 0.00 1.30491 1.61
2 2 2 1 o 2156.662 18.556 0.00 1.28985 8.57
2 2 2 2 o 3256.794 18.556 0.00 1.28985 6.43
3 1 -2 1 o 1981.207 51.329 0.00 1.25523 7.32
3 1 2 1 o 1318.384 33.855 0.00 1.25523 4.87
3 1 -2 2 o 1451.863 51.329 0.00 1.25523 2.67
3 1 2 2 o 966.052 33.855 0.00 1.25523 1.78
3 2 0 1 o 1487.026 51.946 0.00 1.25127 4.02
3 2 0 2 o 2047.567 51.946 0.00 1.25127 2.75
2 1 3 1 o 919.190 49.197 0.00 1.21261 4.09
2 1 -3 1 o 355.152 18.545 0.00 1.21261 1.58
2 1 3 2 o 825.832 49.197 0.00 1.21261 1.83
2 1 -3 2 o 319.031 18.545 0.00 1.21261 0.71
3 2 1 1 o 33.676 0.696 0.00 1.20551 0.09
3 2 -1 1 o 402.535 16.244 0.00 1.20551 1.09
3 2 -1 2 o 555.430 16.244 0.00 1.20551 0.75
3 2 1 2 o 46.730 0.696 0.00 1.20551 0.06
4 1 0 1 o 1608.526 78.303 0.00 1.19020 3.94
4 1 0 2 o 1862.789 78.303 0.00 1.19020 2.27
4 0 2 1 o 107.833 30.520 0.00 1.16601 0.17
4 0 -2 1 o 66.024 18.541 0.00 1.16601 0.10
4 0 2 2 o -0.437 30.520 0.00 1.16601 0.00
4 0 -2 2 o -0.471 18.541 0.00 1.16601 0.00
3 0 3 1 o -0.540 38.781 0.00 1.15678 0.00
3 0 -3 1 o -0.540 38.781 0.00 1.15678 0.00
3 0 -3 2 o -0.540 38.781 0.00 1.15678 0.00
3 0 3 2 o -0.540 38.781 0.00 1.15678 0.00
4 1 1 1 o -0.455 1.338 0.00 1.15061 0.00
4 1 -1 1 o -0.455 1.338 0.00 1.15061 0.00
4 1 1 2 o -0.455 1.338 0.00 1.15061 0.00
4 1 -1 2 o -0.455 1.338 0.00 1.15061 0.00
0 0 4 1 o -0.293 3.109 0.00 1.12460 0.00
0 0 4 2 o -0.293 3.109 0.00 1.12460 0.00
1 0 -4 1 o -0.302 0.614 0.00 1.10143 0.00
1 0 4 1 o -0.480 1.623 180.00 1.10143 0.00
1 0 -4 2 o -0.302 0.614 0.00 1.10143 0.00
1 0 4 2 o -0.480 1.623 180.00 1.10143 0.00
3 2 -2 1 o -0.272 10.348 0.00 1.09345 0.00
3 2 2 1 o -0.250 18.677 0.00 1.09345 0.00
3 2 -2 2 o -0.272 10.348 0.00 1.09345 0.00
3 2 2 2 o -0.250 18.677 0.00 1.09345 0.00
5 0 0 1 o -0.441 19.628 0.00 1.09084 0.00
2 2 3 1 o -0.339 25.061 0.00 1.08583 0.00
5 0 0 2 o -0.441 19.628 0.00 1.09084 0.00
2 2 3 2 o -0.339 25.061 0.00 1.08583 0.00
3 1 -3 1 o -0.290 19.878 0.00 1.06493 0.00
3 1 3 1 o -0.278 4.987 0.00 1.06493 0.00
3 1 3 2 o -0.278 4.987 0.00 1.06493 0.00
3 1 -3 2 o -0.290 19.878 0.00 1.06493 0.00
1 1 4 1 o -0.176 0.950 0.00 1.05908 0.00
5 0 -1 1 o -0.302 0.471 180.00 1.06011 0.00
5 0 1 1 o -0.131 3.768 0.00 1.06011 0.00
1 1 4 2 o -0.176 0.950 0.00 1.05908 0.00
5 0 -1 2 o -0.302 0.471 180.00 1.06011 0.00
5 0 1 2 o -0.131 3.768 0.00 1.06011 0.00
4 1 2 1 o -0.219 1.150 0.00 1.05199 0.00
4 1 -2 1 o -0.219 1.150 0.00 1.05199 0.00
4 1 2 2 o 5.516 1.150 0.00 1.05199 0.01
4 1 -2 2 o 5.516 1.150 0.00 1.05199 0.01
3 3 0 1 o 117.486 37.459 0.00 1.04966 0.12
3 3 0 2 o 693.414 37.459 0.00 1.04966 0.36
2 0 4 1 o 24.310 0.020 0.00 1.03966 0.05
2 0 -4 1 o 376.798 2.977 180.00 1.03966 0.78
2 0 4 2 o 29.785 0.020 0.00 1.03966 0.03
2 0 -4 2 o 461.052 2.977 180.00 1.03966 0.48
4 2 0 1 o 1070.734 12.845 0.00 1.03074 2.23
4 2 0 2 o 1764.469 12.845 0.00 1.03074 1.83
3 3 1 1 o 143.790 0.030 180.00 1.02220 0.32
3 3 1 2 o 192.276 0.030 180.00 1.02220 0.21
4 0 -3 1 o 422.873 2.659 0.00 1.00881 0.67
4 0 3 1 o 2024.781 13.339 0.00 1.00881 3.20
4 0 3 2 o 1675.537 13.339 0.00 1.00881 1.32
4 0 -3 2 o 349.912 2.659 0.00 1.00881 0.28
