#------------------------------------------------------------------------------
#$Date: 2015-07-15 10:20:26 +0300 (Wed, 15 Jul 2015) $
#$Revision: 152081 $
#$URL: svn://www.crystallography.net/cod/cif/7/22/15/7221562.cif $
#------------------------------------------------------------------------------
#
# This file is available in the Crystallography Open Database (COD),
# http://www.crystallography.net/
#
# All data on this site have been placed in the public domain by the
# contributors.
#
data_7221562
loop_
_publ_author_name
'Hameed, A. Shahul'
'Reddy, M. V.'
'Sarkar, Nirjhar'
'Chowdari, B. V. R.'
'Vittal, Jagadese J.'
_publ_section_title
;
 Synthesis and electrochemical investigation of novel phosphite based
 layered cathodes for Li-ion batteries
;
_journal_issue                   74
_journal_name_full               'RSC Adv.'
_journal_page_first              60630
_journal_paper_doi               10.1039/C5RA12410G
_journal_volume                  5
_journal_year                    2015
_chemical_formula_sum            'C2 H6 Na2 O14 P2 V2'
_chemical_formula_weight         463.87
_chemical_name_systematic
; 
 ? 
;
_space_group_crystal_system      triclinic
_space_group_IT_number           2
_space_group_name_Hall           '-P 1'
_space_group_name_H-M_alt        'P -1'
_symmetry_space_group_name_Hall  '-P 1'
_symmetry_space_group_name_H-M   'P -1'
_atom_sites_solution_hydrogens   difmap
_audit_creation_method           SHELXL-2014
_audit_update_record
;
2014-12-24 deposited with the CCDC.
2015-07-06 downloaded from the CCDC.
;
_cell_angle_alpha                104.9920(10)
_cell_angle_beta                 101.6790(10)
_cell_angle_gamma                99.1200(10)
_cell_formula_units_Z            1
_cell_length_a                   6.3255(4)
_cell_length_b                   6.7760(5)
_cell_length_c                   8.0759(6)
_cell_measurement_reflns_used    2274
_cell_measurement_temperature    223(2)
_cell_measurement_theta_max      27.48
_cell_measurement_theta_min      2.70
_cell_volume                     319.20(4)
_computing_cell_refinement       'Bruker SMART'
_computing_data_collection       'Bruker SMART'
_computing_data_reduction        'Bruker SAINT'
_computing_molecular_graphics    'Bruker SHELXTL'
_computing_publication_material  'Bruker SHELXTL'
_computing_structure_refinement  'SHELXL-2014 (Sheldrick, 2014)'
_computing_structure_solution    'Bruker SHELXTL'
_diffrn_ambient_temperature      223(2)
_diffrn_measured_fraction_theta_full 0.999
_diffrn_measured_fraction_theta_max 0.999
_diffrn_measurement_device_type  'CCD area detector'
_diffrn_measurement_method       'phi and omega scans'
_diffrn_radiation_type           MoK\a
_diffrn_radiation_wavelength     0.71073
_diffrn_reflns_av_R_equivalents  0.0218
_diffrn_reflns_av_unetI/netI     0.0243
_diffrn_reflns_laue_measured_fraction_full 0.999
_diffrn_reflns_laue_measured_fraction_max 0.999
_diffrn_reflns_limit_h_max       8
_diffrn_reflns_limit_h_min       -8
_diffrn_reflns_limit_k_max       8
_diffrn_reflns_limit_k_min       -8
_diffrn_reflns_limit_l_max       10
_diffrn_reflns_limit_l_min       -10
_diffrn_reflns_number            4133
_diffrn_reflns_point_group_measured_fraction_full 0.999
_diffrn_reflns_point_group_measured_fraction_max 0.999
_diffrn_reflns_theta_full        25.242
_diffrn_reflns_theta_max         27.480
_diffrn_reflns_theta_min         2.700
_exptl_absorpt_coefficient_mu    1.859
_exptl_absorpt_correction_T_max  0.8456
_exptl_absorpt_correction_T_min  0.7862
_exptl_absorpt_correction_type   multi-scan
_exptl_absorpt_process_details   'SADABS (Sheldrick, 2010)'
_exptl_crystal_colour            Blue
_exptl_crystal_density_diffrn    2.413
_exptl_crystal_density_meas      ?
_exptl_crystal_description       Rectangular_Block
_exptl_crystal_F_000             228
_exptl_crystal_size_max          0.140
_exptl_crystal_size_mid          0.100
_exptl_crystal_size_min          0.080
_refine_diff_density_max         0.498
_refine_diff_density_min         -0.336
_refine_diff_density_rms         0.085
_refine_ls_extinction_method     none
_refine_ls_goodness_of_fit_ref   1.059
_refine_ls_hydrogen_treatment    refxyz
_refine_ls_matrix_type           full
_refine_ls_number_parameters     109
_refine_ls_number_reflns         1454
_refine_ls_number_restraints     2
_refine_ls_restrained_S_all      1.059
_refine_ls_R_factor_all          0.0307
_refine_ls_R_factor_gt           0.0288
_refine_ls_shift/su_max          0.000
_refine_ls_shift/su_mean         0.000
_refine_ls_structure_factor_coef Fsqd
_refine_ls_weighting_details
'w=1/[\s^2^(Fo^2^)+(0.0379P)^2^+0.3564P] where P=(Fo^2^+2Fc^2^)/3'
_refine_ls_weighting_scheme      calc
_refine_ls_wR_factor_gt          0.0734
_refine_ls_wR_factor_ref         0.0745
_reflns_Friedel_coverage         0.000
_reflns_number_gt                1377
_reflns_number_total             1454
_reflns_threshold_expression     'I > 2\s(I)'
_cod_data_source_file            c5ra12410g2.cif
_cod_data_source_block           b322
_cod_depositor_comments
;
The following automatic conversions were performed:

'_exptl_absorpt_correction_type' value 'Multi-scan' changed to
'multi-scan' according to
/usr/data/users/saulius/crontab/automatic-downloads/rss-feeds/RSC/lib/dictionaries/cif_core.dic
dictionary named 'cif_core.dic' version 2.4.2 from 2011-04-26.

'_exptl_crystal_density_meas' value 'Not Measured' was changed to '?'
- the value is perceived as not measured.

Automatic conversion script
Id: cif_fix_values 3271 2015-04-21 07:52:19Z andrius 
;
_cod_database_code               7221562
_shelx_space_group_comment
; 
The symmetry employed for this shelxl refinement is uniquely defined 
by the following loop, which should always be used as a source of 
symmetry information in preference to the above space-group names. 
They are only intended as comments. 
;
_shelx_estimated_absorpt_t_min   0.781
_shelx_estimated_absorpt_t_max   0.866
_shelxl_version_number           2014-3
_shelx_res_file
; 
TITL b322 in P-1 
CELL 0.71073   6.3255   6.7760   8.0759 104.992 101.679  99.120 
ZERR    1.00   0.0004   0.0005   0.0006   0.001   0.001   0.001 
LATT 1 
SFAC C  H  O  Na P  V 
UNIT 2 6 14 2 2 2 
OMIT  -1.00  55.00 
L.S. 4 
ACTA 
DFIX 0.85 0.02 O5 H5A O5 H5B 
HTAB 
SIZE 0.14 0.10 0.08 
EQIV $1  x, y, z+1 
HTAB O5 O1_$1 
FREE Na1  P1 
TEMP -50 
WGHT    0.037900    0.356400 
FVAR       0.31205 
V1    6    0.164954    0.270632    0.349187    11.00000    0.00981    0.01675 = 
         0.01045   -0.00006    0.00211    0.00203 
NA1   4    0.210230    0.443320    0.845884    11.00000    0.05342    0.03734 = 
         0.02504    0.01428    0.01236    0.00871 
P1    5    0.314657    0.741744    0.584552    11.00000    0.01154    0.01457 = 
         0.01587    0.00029    0.00425    0.00101 
H1    2    0.336264    0.933444    0.571140    11.00000   -1.20000 
O1    3    0.263033    0.578982    0.402590    11.00000    0.02342    0.01947 = 
         0.01395    0.00041    0.00603   -0.00326 
O2    3    0.150373    0.697023    0.692153    11.00000    0.01107    0.02409 = 
         0.01816    0.00508    0.00536    0.00436 
O3    3    0.546041    0.770748    0.697181    11.00000    0.01173    0.05475 = 
         0.02173   -0.00580    0.00354    0.00633 
O4    3    0.194995    0.244729    0.542759    11.00000    0.02603    0.02423 = 
         0.01615    0.00390    0.00403    0.00802 
O5    3    0.433048    0.689413    1.123025    11.00000    0.03845    0.04704 = 
         0.03228    0.01448    0.00713    0.00290 
H5A   2    0.387664    0.651608    1.205187    11.00000   -1.20000 
H5B   2    0.449623    0.811018    1.116865    11.00000   -1.20000 
O6    3    0.092254    0.271620    0.062554    11.00000    0.02255    0.01514 = 
         0.01531    0.00147    0.00450   -0.00081 
O7    3   -0.041970    0.041734   -0.207242    11.00000    0.02470    0.01779 = 
         0.01242    0.00348    0.00445    0.00385 
C1    1    0.014381    0.090172   -0.041224    11.00000    0.01129    0.01806 = 
         0.01466    0.00339    0.00476    0.00415 
HKLF 4 
  
REM  b322 in P-1 
REM R1 =  0.0288 for    1377 Fo > 4sig(Fo)  and  0.0307 for all    1454 data 
REM    109 parameters refined using      2 restraints 
  
END 
  
WGHT      0.0379      0.3564 
  
REM Instructions for potential hydrogen bonds 
EQIV $2 x, y+1, z 
HTAB P1 O4_$2 
HTAB O5 O1_$1 
  
REM Highest difference peak  0.498,  deepest hole -0.336,  1-sigma level  0.085 
Q1    1   0.0000  0.0000  0.0000  10.50000  0.05    0.48 
Q2    1   0.5289  0.6635  0.6991  11.00000  0.05    0.48 
Q3    1   0.2420  0.8868  0.5246  11.00000  0.05    0.45 
Q4    1   0.1710  0.2041  0.4474  11.00000  0.05    0.37 
Q5    1   0.4705  0.7743  0.6500  11.00000  0.05    0.37 
Q6    1   0.1674  0.3168  0.2573  11.00000  0.05    0.36 
Q7    1   0.2524  0.5287  0.4370  11.00000  0.05    0.35 
Q8    1   0.5729  0.7954  0.6724  11.00000  0.05    0.34 
Q9    1   0.3131  0.6539  0.4990  11.00000  0.05    0.30 
Q10   1   0.1714  0.7355  0.6437  11.00000  0.05    0.28 
Q11   1   0.1997  0.3152  0.5870  11.00000  0.05    0.28 
Q12   1   0.4675  0.7306  1.0359  11.00000  0.05    0.27 
Q13   1   0.0366  0.1934  0.0239  11.00000  0.05    0.27 
Q14   1   0.0795  0.4156  0.7921  11.00000  0.05    0.26 
Q15   1   0.6592  0.9504  0.7413  11.00000  0.05    0.25 
Q16   1   0.0952  0.2579  0.1489  11.00000  0.05    0.24 
Q17   1  -0.0376  0.0565 -0.1317  11.00000  0.05    0.24 
Q18   1  -0.0786 -0.0955 -0.2204  11.00000  0.05    0.23 
Q19   1   0.0336  0.3372  0.0565  11.00000  0.05    0.23 
Q20   1   0.0251  0.7486  0.7306  11.00000  0.05    0.23 
;
_shelx_res_checksum              80947
_shelx_hkl_file
; 
  -1   0   0  121.89    2.59 
  -1   0   0  114.82    2.54 
   1   0   0  121.17    2.64 
   1   0   0  116.39    2.57 
   1   0   0  119.29    2.55 
  -2   0   0   92.22    2.15 
  -2   0   0   92.24    1.92 
   2   0   0   89.98    2.19 
   2   0   0   91.56    2.19 
  -3   0   0  112.15    2.69 
   3   0   0  108.05    2.74 
   3   0   0  111.38    2.74 
  -4   0   0    0.94    0.22 
   4   0   0    2.00    0.29 
   4   0   0    1.05    0.25 
  -5   0   0    2.84    0.40 
   5   0   0    3.79    0.49 
   5   0   0    3.26    0.41 
  -6   0   0   54.43    1.93 
   6   0   0   52.52    1.99 
   6   0   0   53.49    1.90 
  -7   0   0   18.53    1.10 
   7   0   0   17.02    1.05 
   7   0   0   20.14    1.22 
   7  -1   0    3.13    0.53 
   7  -1   0    2.60    0.45 
  -7   1   0    2.64    0.49 
   6  -1   0   11.04    0.79 
   6  -1   0   11.55    0.75 
  -6   1   0   11.75    0.78 
   5  -1   0    5.13    0.55 
   5  -1   0    4.27    0.45 
  -5   1   0    4.68    0.49 
   4  -1   0  137.22    3.42 
   4  -1   0  135.87    3.43 
  -4   1   0  136.96    3.38 
  -4   1   0  139.90    2.98 
   3  -1   0  104.84    2.56 
   3  -1   0  100.76    2.56 
  -3   1   0  103.69    2.27 
  -3   1   0  104.52    2.54 
   2  -1   0  991.67   19.86 
   2  -1   0 1000.00   20.64 
  -2   1   0  953.83   19.92 
  -2   1   0  977.76   19.44 
   1  -1   0   96.62    2.17 
  -1   1   0   94.69    2.04 
   0  -1   0   53.00    1.27 
   0   1   0   51.62    1.22 
   0   1   0   52.09    1.18 
  -1  -1   0    0.88    0.14 
  -1  -1   0    0.96    0.11 
   1   1   0    0.90    0.08 
   1   1   0    1.27    0.16 
  -2  -1   0   31.87    0.93 
   2   1   0   31.76    1.02 
   2   1   0   31.58    0.71 
   2   1   0   32.14    0.99 
  -3  -1   0   15.28    0.66 
   3   1   0   16.59    0.72 
   3   1   0   15.33    0.74 
  -4  -1   0  139.53    3.42 
   4   1   0  136.54    3.53 
   4   1   0  136.15    3.54 
  -5  -1   0    4.55    0.50 
   5   1   0    4.60    0.56 
   5   1   0    2.70    0.40 
  -6  -1   0    4.37    0.56 
   6   1   0    4.10    0.61 
   6   1   0    4.58    0.57 
  -7  -1   0    3.20    0.54 
  -7  -1   0    3.49    0.58 
   7   1   0    3.43    0.56 
   7   1   0    3.51    0.59 
   8  -2   0   26.92    1.49 
  -8   2   0   27.31    1.47 
   7  -2   0   20.95    1.12 
   7  -2   0   21.27    1.21 
  -7   2   0   19.68    1.15 
   6  -2   0   92.04    2.77 
   6  -2   0   95.26    2.89 
  -6   2   0   95.85    2.81 
   5  -2   0   14.07    0.75 
   5  -2   0   12.40    0.77 
  -5   2   0   12.81    0.57 
  -5   2   0   12.54    0.73 
   4  -2   0   96.11    2.55 
   4  -2   0   95.14    2.51 
  -4   2   0   93.08    2.24 
  -4   2   0   93.49    2.48 
   3  -2   0  149.63    3.50 
   3  -2   0  150.03    3.57 
  -3   2   0  152.94    3.33 
  -3   2   0  149.61    3.47 
   2  -2   0    0.19    0.09 
   2  -2   0    0.12    0.08 
  -2   2   0    0.15    0.08 
  -2   2   0    0.04    0.05 
   1  -2   0    6.18    0.31 
   1  -2   0    6.59    0.34 
  -1   2   0    6.36    0.31 
  -1   2   0    6.24    0.23 
   0  -2   0  615.03   12.99 
   0   2   0  608.06   12.44 
   0   2   0  603.27   12.21 
  -1  -2   0    1.36    0.21 
  -1  -2   0    1.69    0.13 
   1   2   0    1.53    0.15 
   1   2   0    1.45    0.22 
  -2  -2   0   99.74    2.59 
  -2  -2   0  100.44    2.34 
   2   2   0   99.65    2.16 
   2   2   0   99.44    2.54 
  -3  -2   0   73.59    2.18 
  -3  -2   0   75.91    1.99 
   3   2   0   77.02    1.63 
   3   2   0   74.39    2.17 
  -4  -2   0   45.60    1.62 
  -4  -2   0   44.24    1.48 
   4   2   0   43.80    1.64 
  -5  -2   0    0.54    0.22 
  -5  -2   0    0.37    0.16 
   5   2   0    0.18    0.15 
  -6  -2   0   24.04    1.29 
  -6  -2   0   24.08    1.20 
   6   2   0   24.32    1.34 
  -7  -2   0    7.65    0.79 
  -7  -2   0   10.04    0.87 
   7   2   0   10.44    1.04 
   7  -3   0    1.80    0.44 
  -7   3   0    2.27    0.45 
   6  -3   0    2.51    0.45 
   6  -3   0    2.25    0.39 
  -6   3   0    2.60    0.43 
   5  -3   0    0.47    0.17 
   5  -3   0    0.40    0.21 
  -5   3   0    0.64    0.20 
  -5   3   0    0.30    0.14 
   4  -3   0   13.02    0.70 
   4  -3   0   14.33    0.71 
  -4   3   0   13.09    0.66 
  -4   3   0   13.51    0.64 
   3  -3   0   31.71    1.10 
   3  -3   0   30.49    1.07 
  -3   3   0   31.78    1.01 
  -3   3   0   33.96    1.07 
   2  -3   0  104.47    2.59 
   2  -3   0  101.93    2.45 
  -2   3   0   98.39    2.42 
  -2   3   0   99.84    2.30 
   1  -3   0    3.78    0.31 
  -1   3   0    4.06    0.30 
  -1   3   0    3.86    0.28 
  -1   3   0    3.54    0.15 
   0  -3   0   86.28    2.25 
   0   3   0   82.60    2.04 
   0   3   0   83.51    2.14 
  -1  -3   0   72.72    2.07 
  -1  -3   0   74.68    1.68 
   1   3   0   74.03    2.02 
   1   3   0   73.02    1.81 
  -2  -3   0  122.28    3.26 
  -2  -3   0  127.25    2.87 
   2   3   0  126.52    3.21 
   2   3   0  125.16    2.79 
  -3  -3   0    1.49    0.24 
  -3  -3   0    1.52    0.30 
   3   3   0    1.36    0.16 
   3   3   0    0.95    0.26 
  -4  -3   0   88.98    2.46 
  -4  -3   0   93.44    2.77 
   4   3   0   87.81    2.75 
  -5  -3   0    0.95    0.24 
  -5  -3   0    0.21    0.18 
   5   3   0    0.16    0.17 
  -6  -3   0    6.81    0.80 
  -6  -3   0    7.29    0.62 
   6   3   0    8.83    0.93 
   7  -4   0    2.99    0.55 
  -7   4   0    2.06    0.43 
   6  -4   0   30.75    1.34 
   6  -4   0   34.26    1.47 
  -6   4   0   31.79    1.36 
   5  -4   0    7.24    0.55 
   5  -4   0    7.84    0.61 
  -5   4   0    7.03    0.51 
  -5   4   0    7.84    0.55 
   4  -4   0    9.19    0.61 
   4  -4   0   12.03    0.67 
  -4   4   0   10.98    0.59 
  -4   4   0   11.74    0.64 
   3  -4   0   45.96    1.53 
   3  -4   0   48.68    1.50 
  -3   4   0   49.22    1.51 
  -3   4   0   46.18    1.32 
   2  -4   0   10.28    0.60 
   2  -4   0   10.22    0.54 
  -2   4   0    9.48    0.38 
  -2   4   0    9.70    0.55 
   1  -4   0    2.16    0.32 
  -1   4   0    2.30    0.30 
  -1   4   0    2.21    0.31 
   0  -4   0  302.28    6.91 
   0   4   0  283.46    6.36 
   0   4   0  307.57    6.64 
  -1  -4   0   15.30    0.48 
  -1  -4   0   14.88    0.78 
   1   4   0   15.99    0.80 
  -2  -4   0   48.81    1.31 
  -2  -4   0   49.63    1.74 
   2   4   0   49.99    1.72 
   2   4   0   47.05    1.37 
  -3  -4   0    6.40    0.56 
  -3  -4   0    6.70    0.44 
   3   4   0    7.13    0.61 
  -4  -4   0   11.63    0.84 
  -4  -4   0   12.00    0.66 
   4   4   0   11.91    0.88 
  -5  -4   0    0.68    0.26 
   5   4   0    0.30    0.22 
  -6  -4   0   21.02    1.33 
   6   4   0   22.27    1.41 
   7  -5   0    3.45    0.60 
  -7   5   0    4.43    0.62 
   6  -5   0    5.92    0.64 
   6  -5   0    7.21    0.73 
  -6   5   0    6.38    0.62 
  -6   5   0    6.02    0.59 
   5  -5   0   10.19    0.73 
   5  -5   0   10.41    0.70 
  -5   5   0    8.53    0.62 
  -5   5   0   10.65    0.65 
   4  -5   0   45.33    1.56 
   4  -5   0   43.24    1.60 
  -4   5   0   45.38    1.57 
  -4   5   0   44.41    1.40 
   3  -5   0   16.88    0.89 
   3  -5   0   16.72    0.81 
  -3   5   0   15.88    0.83 
   2  -5   0   91.44    2.65 
   2  -5   0   91.26    2.46 
  -2   5   0   89.06    2.47 
   1  -5   0    0.59    0.21 
  -1   5   0    0.63    0.18 
  -1   5   0    0.62    0.18 
   0  -5   0   39.38    1.52 
   0   5   0   41.14    1.50 
   0   5   0   39.51    1.35 
  -1  -5   0   39.26    1.57 
   1   5   0   38.57    1.49 
   1   5   0   40.45    1.33 
  -2  -5   0   54.58    1.91 
   2   5   0   44.01    1.47 
   2   5   0   52.55    1.88 
  -3  -5   0    1.19    0.32 
   3   5   0    0.83    0.29 
  -4  -5   0  109.77    3.52 
   4   5   0  110.17    3.52 
  -5  -5   0    1.42    0.39 
   5   5   0    1.47    0.40 
   6  -6   0   41.69    1.71 
  -6   6   0   38.75    1.61 
   5  -6   0    1.82    0.40 
   5  -6   0    1.90    0.40 
  -5   6   0    1.68    0.35 
   4  -6   0    2.61    0.42 
   4  -6   0    2.22    0.41 
  -4   6   0    2.55    0.43 
   3  -6   0    0.33    0.18 
   3  -6   0    0.19    0.17 
  -3   6   0    0.02    0.12 
   2  -6   0    0.23    0.14 
   2  -6   0    0.01    0.15 
  -2   6   0    0.25    0.16 
   1  -6   0   24.41    1.22 
  -1   6   0   23.52    1.08 
  -1   6   0   23.31    1.13 
   0  -6   0  115.50    3.38 
   0   6   0  107.07    3.17 
   0   6   0  111.89    3.01 
  -1  -6   0    0.20    0.17 
   1   6   0    0.13    0.16 
   1   6   0    0.16    0.16 
  -2  -6   0   76.30    2.69 
   2   6   0   77.83    2.63 
  -3  -6   0    0.93    0.31 
   3   6   0    0.88    0.30 
  -4  -6   0    1.28    0.37 
   4   6   0    1.97    0.45 
   5  -7   0    0.32    0.24 
   5  -7   0    0.92    0.31 
  -5   7   0    0.21    0.21 
   4  -7   0    4.28    0.61 
   4  -7   0    4.44    0.57 
  -4   7   0    4.08    0.58 
   3  -7   0   43.23    1.67 
   3  -7   0   40.72    1.77 
  -3   7   0   44.10    1.73 
   2  -7   0   96.03    3.10 
   2  -7   0   96.32    2.87 
  -2   7   0   94.56    2.89 
   1  -7   0    1.07    0.35 
  -1   7   0    1.03    0.29 
  -1   7   0    1.27    0.30 
   0  -7   0   35.31    1.67 
   0   7   0   32.72    1.52 
   0   7   0   32.34    1.40 
  -1  -7   0    4.19    0.64 
   1   7   0    4.36    0.64 
   1   7   0    5.39    0.59 
  -2  -7   0    1.30    0.38 
   2   7   0    1.34    0.36 
   4  -8   0   17.07    1.12 
  -4   8   0   15.13    1.03 
   3  -8   0    0.70    0.31 
   3  -8   0    1.68    0.40 
  -3   8   0    1.68    0.40 
   2  -8   0    1.07    0.40 
   2  -8   0    1.31    0.32 
  -2   8   0    1.14    0.32 
   1  -8   0    0.08    0.22 
  -1   8   0    0.44    0.23 
  -1   8   0    0.49    0.24 
   0  -8   0    4.93    0.75 
   0   8   0    4.64    0.69 
   0   8   0    4.96    0.65 
   1   8  -1    3.53    0.52 
   1   8  -1    3.89    0.61 
  -1  -8   1    3.47    0.62 
   0   8  -1    0.89    0.31 
   0   8  -1    0.33    0.25 
   0  -8   1    0.43    0.31 
  -1   8  -1    1.48    0.39 
  -1   8  -1    1.38    0.34 
   1  -8   1    0.84    0.34 
  -2   8  -1   20.63    1.18 
   2  -8   1   21.07    1.29 
   2  -8   1   21.28    1.12 
  -3   8  -1    9.00    0.75 
   3  -8   1    8.16    0.90 
  -4   8  -1    8.88    0.75 
   4  -8   1    8.72    0.93 
   3   7  -1    0.38    0.23 
  -3  -7   1    0.14    0.22 
   2   7  -1    1.76    0.41 
  -2  -7   1    2.16    0.46 
   1   7  -1    0.06    0.15 
   1   7  -1    0.16    0.18 
  -1  -7   1    0.19    0.22 
   0   7  -1   47.06    1.81 
   0   7  -1   46.67    1.72 
   0  -7   1   44.13    1.93 
  -1   7  -1    9.28    0.69 
  -1   7  -1    8.65    0.66 
   1  -7   1    8.97    0.78 
  -2   7  -1   14.81    0.90 
   2  -7   1   14.01    0.96 
  -3   7  -1    0.25    0.19 
   3  -7   1    0.58    0.22 
   3  -7   1    0.31    0.22 
  -4   7  -1    6.10    0.69 
   4  -7   1    6.90    0.77 
  -5   7  -1    0.05    0.21 
   5  -7   1    0.05    0.20 
   4   6  -1   33.11    1.72 
  -4  -6   1   35.14    1.71 
   3   6  -1    0.32    0.20 
  -3  -6   1    0.39    0.22 
   2   6  -1   58.27    2.13 
   2   6  -1   59.66    1.83 
  -2  -6   1   58.91    2.21 
   1   6  -1   27.31    1.12 
   1   6  -1   29.24    1.30 
  -1  -6   1   28.43    1.37 
   0   6  -1    2.06    0.34 
   0   6  -1    2.09    0.36 
   0  -6   1    1.59    0.36 
  -1   6  -1   28.80    1.22 
  -1   6  -1   31.14    1.22 
   1  -6   1   29.13    1.36 
  -2   6  -1    0.08    0.11 
   2  -6   1   -0.15    0.12 
   2  -6   1    0.06    0.11 
  -3   6  -1    5.60    0.58 
   3  -6   1    4.71    0.59 
   3  -6   1    5.86    0.48 
  -4   6  -1   14.38    0.86 
   4  -6   1   13.76    0.88 
   4  -6   1   15.90    0.83 
  -5   6  -1   15.34    0.89 
   5  -6   1   14.63    0.94 
  -6   6  -1    0.66    0.25 
   6  -6   1    0.71    0.29 
   5   5  -1    0.54    0.24 
  -5  -5   1    0.57    0.28 
   4   5  -1   53.44    2.16 
  -4  -5   1   54.77    2.11 
   3   5  -1    7.87    0.68 
  -3  -5   1    8.86    0.69 
   2   5  -1    2.46    0.32 
   2   5  -1    2.94    0.44 
  -2  -5   1    2.00    0.38 
   1   5  -1   14.86    0.81 
   1   5  -1   14.65    0.72 
  -1  -5   1   13.83    0.84 
   0   5  -1   10.18    0.63 
   0  -5   1    9.36    0.66 
  -1   5  -1    2.71    0.36 
  -1   5  -1    2.72    0.36 
   1  -5   1    3.05    0.43 
  -2   5  -1   44.09    1.48 
  -2   5  -1   42.76    1.16 
   2  -5   1   45.16    1.60 
   2  -5   1   44.60    1.39 
  -3   5  -1   22.89    0.99 
  -3   5  -1   22.74    0.84 
   3  -5   1   22.31    1.06 
   3  -5   1   25.07    0.98 
  -4   5  -1    4.46    0.42 
  -4   5  -1    5.24    0.51 
   4  -5   1    5.16    0.57 
   4  -5   1    5.46    0.46 
  -5   5  -1    3.26    0.43 
   5  -5   1    3.56    0.51 
   5  -5   1    2.90    0.45 
  -6   5  -1   22.29    1.11 
   6  -5   1   21.73    1.18 
  -7   5  -1    6.83    0.74 
   6   4  -1    3.83    0.66 
  -6  -4   1    5.46    0.73 
   5   4  -1    0.65    0.27 
  -5  -4   1    1.01    0.30 
  -5  -4   1    1.19    0.28 
   4   4  -1   58.49    2.15 
  -4  -4   1   59.62    1.80 
  -4  -4   1   59.95    2.10 
   3   4  -1    7.06    0.59 
   3   4  -1    6.77    0.41 
  -3  -4   1    7.39    0.59 
  -3  -4   1    6.88    0.44 
   2   4  -1   11.84    0.70 
   2   4  -1   11.27    0.56 
  -2  -4   1   11.68    0.51 
  -2  -4   1   12.01    0.70 
   1   4  -1   62.79    1.72 
   1   4  -1   63.21    1.85 
  -1  -4   1   63.58    1.52 
  -1  -4   1   62.34    1.95 
   0   4  -1    5.08    0.38 
   0   4  -1    4.80    0.36 
   0  -4   1    4.38    0.40 
   0  -4   1    4.75    0.21 
  -1   4  -1    3.01    0.31 
  -1   4  -1    2.62    0.32 
  -1   4  -1    3.05    0.18 
   1  -4   1    3.10    0.38 
  -2   4  -1  107.94    2.71 
  -2   4  -1  107.24    2.50 
   2  -4   1  107.08    2.62 
   2  -4   1  113.21    2.93 
  -3   4  -1   35.16    1.19 
  -3   4  -1   36.58    1.12 
   3  -4   1   34.58    1.15 
   3  -4   1   37.56    1.34 
  -4   4  -1   40.57    1.40 
  -4   4  -1   43.99    1.40 
   4  -4   1   44.39    1.56 
   4  -4   1   43.94    1.45 
  -5   4  -1    0.08    0.12 
  -5   4  -1    0.49    0.20 
   5  -4   1    0.43    0.19 
   5  -4   1    0.37    0.18 
  -6   4  -1   15.28    0.90 
   6  -4   1   14.83    0.91 
  -7   4  -1    9.35    0.76 
   7  -4   1    7.52    0.79 
   6   3  -1   46.57    2.03 
  -6  -3   1   48.16    1.94 
  -6  -3   1   47.14    1.79 
   5   3  -1    0.34    0.22 
  -5  -3   1    0.48    0.20 
  -5  -3   1    0.92    0.23 
   4   3  -1   80.75    2.51 
  -4  -3   1   79.74    2.23 
  -4  -3   1   79.74    2.44 
   3   3  -1   79.72    1.91 
   3   3  -1   81.97    2.38 
  -3  -3   1   79.57    2.10 
  -3  -3   1   80.69    2.34 
   2   3  -1   24.84    0.99 
   2   3  -1   25.08    0.80 
  -2  -3   1   25.82    0.82 
  -2  -3   1   23.54    0.97 
   1   3  -1  102.19    2.50 
   1   3  -1  100.48    2.36 
  -1  -3   1   97.51    2.59 
  -1  -3   1  102.61    2.27 
   0   3  -1  485.97   10.14 
   0   3  -1  487.58   10.01 
   0  -3   1  492.56   10.68 
   0  -3   1  492.74   10.02 
  -1   3  -1   19.49    0.72 
  -1   3  -1   21.04    0.68 
  -1   3  -1   19.44    0.58 
   1  -3   1   19.64    0.79 
  -2   3  -1  164.91    3.71 
  -2   3  -1  172.28    3.79 
   2  -3   1  171.03    4.05 
   2  -3   1  168.28    3.72 
  -3   3  -1    9.38    0.49 
  -3   3  -1    9.65    0.49 
   3  -3   1    8.63    0.48 
   3  -3   1    9.80    0.57 
  -4   3  -1   42.96    1.50 
  -4   3  -1   51.02    1.43 
   4  -3   1   51.08    1.63 
   4  -3   1   49.50    1.55 
  -5   3  -1    2.16    0.36 
  -5   3  -1    2.58    0.31 
   5  -3   1    2.67    0.40 
  -6   3  -1   35.51    1.47 
   6  -3   1   32.83    1.46 
   6  -3   1   34.69    1.47 
  -7   3  -1   10.82    0.83 
   7  -3   1   11.20    0.85 
   7  -3   1   11.54    0.85 
   7   2  -1    1.87    0.46 
  -7  -2   1    2.51    0.50 
  -7  -2   1    0.99    0.31 
   6   2  -1   18.53    1.12 
  -6  -2   1   16.22    0.94 
  -6  -2   1   16.78    1.02 
   5   2  -1   14.35    0.91 
  -5  -2   1   13.77    0.78 
  -5  -2   1   15.15    0.86 
   4   2  -1  147.18    3.71 
  -4  -2   1  123.53    3.55 
  -4  -2   1  148.92    3.47 
   3   2  -1   55.08    1.33 
   3   2  -1   52.96    1.71 
  -3  -2   1   56.59    1.56 
  -3  -2   1   56.59    1.67 
   2   2  -1  186.55    4.35 
   2   2  -1  194.46    4.07 
  -2  -2   1  200.48    4.23 
  -2  -2   1  190.54    4.47 
   1   2  -1   18.12    0.65 
  -1  -2   1   17.67    0.66 
  -1  -2   1   18.13    0.55 
   0   2  -1  213.81    4.49 
   0   2  -1  213.71    4.50 
   0  -2   1  217.40    4.47 
   0  -2   1  210.55    4.78 
  -1   2  -1    6.80    0.29 
  -1   2  -1    7.56    0.35 
   1  -2   1    6.83    0.27 
   1  -2   1    7.14    0.38 
  -2   2  -1   64.43    1.66 
  -2   2  -1   69.07    1.63 
   2  -2   1   67.49    1.80 
   2  -2   1   67.46    1.64 
  -3   2  -1    4.21    0.32 
  -3   2  -1    4.17    0.27 
   3  -2   1    4.05    0.33 
   3  -2   1    4.44    0.33 
  -4   2  -1   88.66    2.10 
  -4   2  -1   88.89    2.41 
   4  -2   1   88.54    2.46 
  -5   2  -1    0.74    0.21 
   5  -2   1    0.16    0.14 
   5  -2   1    0.53    0.23 
  -6   2  -1   23.10    1.15 
   6  -2   1   23.33    1.16 
   6  -2   1   22.48    1.15 
  -7   2  -1    9.75    0.80 
   7  -2   1   11.32    0.84 
   7  -2   1   10.97    0.83 
   7   1  -1   34.05    1.70 
  -7  -1   1   33.69    1.55 
  -7  -1   1   37.13    1.61 
   6   1  -1  110.38    3.17 
   6   1  -1  112.94    3.39 
  -6  -1   1  114.81    3.25 
  -6  -1   1  107.89    3.16 
   5   1  -1    4.81    0.48 
   5   1  -1    4.96    0.58 
  -5  -1   1    4.58    0.49 
   4   1  -1  249.54    5.14 
   4   1  -1  258.24    5.85 
   4   1  -1  260.53    5.84 
  -4  -1   1  240.35    5.68 
   3   1  -1    7.96    0.43 
   3   1  -1    7.69    0.30 
   3   1  -1    7.99    0.51 
  -3  -1   1    7.87    0.44 
   2   1  -1   36.27    0.89 
   2   1  -1   36.48    1.10 
  -2  -1   1   35.83    1.01 
   1   1  -1   97.82    2.19 
   1   1  -1   95.11    2.08 
  -1  -1   1   97.55    2.14 
   0   1  -1  351.04    7.13 
   0   1  -1  362.11    7.36 
   0  -1   1  349.61    7.26 
   0  -1   1  358.87    7.56 
   0  -1   1  345.80    7.28 
  -1   1  -1   37.61    0.97 
  -1   1  -1   39.51    0.94 
   1  -1   1   39.80    1.05 
   1  -1   1   37.87    0.90 
  -2   1  -1  135.56    3.10 
  -2   1  -1  137.72    2.90 
   2  -1   1  139.61    3.23 
   2  -1   1  138.87    3.07 
  -3   1  -1   53.18    1.23 
  -3   1  -1   51.59    1.50 
   3  -1   1   53.29    1.51 
   3  -1   1   52.69    1.55 
  -4   1  -1   59.24    1.78 
  -4   1  -1   59.23    1.35 
   4  -1   1   59.49    1.82 
   4  -1   1   55.08    1.75 
  -5   1  -1    1.51    0.30 
   5  -1   1    1.58    0.33 
   5  -1   1    1.38    0.30 
  -6   1  -1   11.90    0.80 
   6  -1   1   12.69    0.84 
   6  -1   1   12.34    0.82 
  -7   1  -1    7.06    0.76 
   7  -1   1    6.92    0.74 
   7  -1   1    7.24    0.80 
   8   0  -1   27.42    1.56 
  -8   0   1   25.10    1.39 
   7   0  -1    0.07    0.17 
  -7   0   1    0.31    0.17 
   6   0  -1   44.48    1.79 
   6   0  -1   42.30    1.57 
  -6   0   1   46.08    1.71 
   5   0  -1   11.46    0.76 
   5   0  -1   11.34    0.63 
  -5   0   1   10.96    0.67 
   4   0  -1    8.57    0.48 
   4   0  -1    7.88    0.57 
  -4   0   1    8.72    0.53 
  -4   0   1    8.52    0.35 
   3   0  -1  162.22    3.69 
   3   0  -1  161.02    3.78 
  -3   0   1  160.87    3.69 
  -3   0   1  161.24    3.39 
   2   0  -1  439.88    9.19 
   2   0  -1  417.11    8.95 
  -2   0   1  437.09    8.68 
   1   0  -1   51.98    1.25 
   1   0  -1   53.29    1.23 
  -1   0   1   53.06    1.19 
  -1   0   1   52.72    1.22 
  -1   0   1   51.20    1.22 
   0   0   1  136.27    2.93 
   0   0   1  139.27    2.91 
   0   0   1  141.24    2.87 
  -1   0  -1    0.22    0.05 
  -1   0  -1    0.22    0.07 
   1   0   1    0.15    0.07 
  -2   0  -1  162.37    3.62 
   2   0   1  161.26    3.63 
   2   0   1  165.08    3.78 
  -3   0  -1   16.54    0.69 
   3   0   1   17.71    0.75 
   3   0   1   15.33    0.71 
  -4   0  -1   45.92    1.49 
   4   0   1   44.51    1.53 
   4   0   1   44.53    1.53 
  -5   0  -1    0.19    0.14 
   5   0   1    0.35    0.16 
   5   0   1    0.22    0.15 
  -6   0  -1   26.34    1.26 
   6   0   1   26.22    1.29 
   6   0   1   26.83    1.33 
  -7   0  -1   14.70    0.98 
   7   0   1   15.12    1.02 
   7   0   1   17.59    1.11 
   8  -1  -1    1.54    0.39 
  -8   1   1    1.55    0.38 
   7  -1  -1    4.69    0.68 
  -7   1   1    5.73    0.68 
   6  -1  -1   41.26    1.69 
   6  -1  -1   38.42    1.44 
  -6   1   1   39.66    1.56 
   5  -1  -1   11.21    0.62 
   5  -1  -1   11.75    0.76 
  -5   1   1   11.55    0.69 
  -5   1   1   12.55    0.53 
   4  -1  -1  435.14    9.55 
   4  -1  -1  449.23    9.64 
  -4   1   1  446.22    9.02 
  -4   1   1  434.62    9.48 
   3  -1  -1  122.69    3.00 
   3  -1  -1  125.97    2.90 
  -3   1   1  124.71    2.94 
  -3   1   1  123.14    2.74 
   2  -1  -1   19.57    0.57 
   2  -1  -1   19.13    0.68 
  -2   1   1   19.70    0.63 
  -2   1   1   19.04    0.60 
   1  -1  -1    9.33    0.38 
   1  -1  -1    9.45    0.32 
  -1   1   1    9.65    0.36 
  -1   1   1    9.30    0.31 
   0  -1  -1  149.26    3.28 
   0   1   1  145.57    3.06 
   0   1   1  145.51    3.18 
   0   1   1  145.89    3.08 
  -1  -1  -1    9.04    0.34 
   1   1   1    8.36    0.29 
   1   1   1    8.98    0.41 
   1   1   1    8.89    0.41 
  -2  -1  -1   33.25    0.98 
   2   1   1   32.23    0.73 
   2   1   1   31.46    1.05 
   2   1   1   31.30    1.06 
  -3  -1  -1  111.09    2.70 
   3   1   1  106.68    2.84 
   3   1   1  105.21    2.78 
  -4  -1  -1   19.04    0.86 
   4   1   1   18.80    0.91 
   4   1   1   18.82    0.93 
  -5  -1  -1    1.10    0.27 
   5   1   1    1.50    0.33 
   5   1   1    1.12    0.29 
  -6  -1  -1   15.08    0.93 
   6   1   1   15.63    1.02 
   6   1   1   16.37    1.00 
  -7  -1  -1    2.10    0.43 
   7   1   1    2.73    0.52 
   7   1   1    2.55    0.52 
   8  -2  -1   15.25    1.12 
  -8   2   1   14.41    1.01 
   7  -2  -1    6.11    0.77 
  -7   2   1    5.85    0.69 
   6  -2  -1  125.13    3.59 
   6  -2  -1  123.36    3.34 
  -6   2   1  128.87    3.47 
   5  -2  -1    6.69    0.56 
   5  -2  -1    6.01    0.44 
  -5   2   1    6.32    0.50 
  -5   2   1    4.51    0.36 
   4  -2  -1   40.15    1.23 
   4  -2  -1   37.92    1.37 
  -4   2   1   39.15    1.18 
  -4   2   1   39.08    1.30 
   3  -2  -1   12.81    0.53 
   3  -2  -1   12.51    0.62 
  -3   2   1   13.23    0.56 
  -3   2   1   13.23    0.57 
   2  -2  -1  159.81    3.59 
   2  -2  -1  161.41    3.58 
  -2   2   1  154.40    3.47 
  -2   2   1  155.81    3.42 
   1  -2  -1    1.95    0.20 
  -1   2   1    1.97    0.12 
  -1   2   1    1.97    0.23 
  -1   2   1    1.52    0.19 
   0  -2  -1  206.19    4.26 
   0  -2  -1  204.78    4.62 
   0   2   1  204.28    4.49 
   0   2   1  202.25    4.31 
  -1  -2  -1  266.71    5.87 
  -1  -2  -1  256.49    5.39 
   1   2   1  253.06    5.31 
   1   2   1  255.30    5.64 
  -2  -2  -1    0.24    0.13 
  -2  -2  -1    0.28    0.12 
   2   2   1    0.08    0.06 
   2   2   1    0.14    0.11 
  -3  -2  -1    9.61    0.53 
  -3  -2  -1    9.32    0.61 
   3   2   1    9.76    0.61 
   3   2   1    9.99    0.63 
  -4  -2  -1   97.18    2.91 
  -4  -2  -1   98.36    2.66 
   4   2   1   99.16    2.88 
   4   2   1   98.26    2.87 
  -5  -2  -1    0.42    0.20 
  -5  -2  -1    0.16    0.15 
   5   2   1    0.31    0.18 
  -6  -2  -1   59.67    2.35 
  -6  -2  -1   60.89    2.19 
   6   2   1   64.16    2.41 
   8  -3  -1    1.17    0.39 
  -8   3   1    1.07    0.33 
   7  -3  -1   12.92    0.96 
  -7   3   1   11.76    0.84 
   6  -3  -1   46.62    1.83 
  -6   3   1   47.87    1.74 
   5  -3  -1    0.51    0.22 
   5  -3  -1    0.67    0.19 
  -5   3   1    0.76    0.19 
  -5   3   1    0.96    0.23 
   4  -3  -1  139.48    3.39 
   4  -3  -1  137.11    3.46 
  -4   3   1  136.15    3.32 
  -4   3   1  135.91    3.28 
   3  -3  -1   32.92    1.16 
   3  -3  -1   33.61    1.11 
  -3   3   1   32.77    1.02 
  -3   3   1   34.47    1.13 
   2  -3  -1   51.49    1.48 
   2  -3  -1   49.37    1.47 
  -2   3   1   50.95    1.25 
  -2   3   1   51.57    1.47 
   1  -3  -1  149.70    3.53 
  -1   3   1  143.80    3.33 
  -1   3   1  145.93    3.47 
   0  -3  -1  323.88    7.13 
   0   3   1  301.93    6.61 
   0   3   1  324.02    6.92 
  -1  -3  -1   16.31    0.77 
  -1  -3  -1   16.22    0.51 
   1   3   1   15.73    0.76 
   1   3   1   15.24    0.60 
  -2  -3  -1   69.14    1.71 
  -2  -3  -1   66.92    2.05 
   2   3   1   66.89    2.03 
   2   3   1   63.22    1.62 
  -3  -3  -1    2.34    0.30 
  -3  -3  -1    2.03    0.37 
   3   3   1    1.30    0.29 
  -4  -3  -1   71.46    2.42 
  -4  -3  -1   70.62    2.09 
   4   3   1   69.22    2.38 
  -5  -3  -1    0.81    0.24 
  -5  -3  -1    0.69    0.26 
   5   3   1    0.62    0.24 
  -6  -3  -1    1.87    0.39 
  -6  -3  -1    1.62    0.42 
   6   3   1    2.29    0.49 
   7  -4  -1    2.37    0.49 
  -7   4   1    2.98    0.49 
   6  -4  -1   79.00    2.61 
  -6   4   1   81.35    2.45 
  -6   4   1   79.04    2.35 
   5  -4  -1    8.19    0.57 
   5  -4  -1   10.57    0.72 
  -5   4   1    7.98    0.56 
   4  -4  -1    2.18    0.35 
   4  -4  -1    1.89    0.31 
  -4   4   1    2.37    0.34 
  -4   4   1    2.15    0.29 
   3  -4  -1  142.15    3.62 
   3  -4  -1  151.72    3.73 
  -3   4   1  147.77    3.34 
  -3   4   1  150.92    3.61 
   2  -4  -1  309.57    7.06 
  -2   4   1  307.18    6.72 
  -2   4   1  309.39    6.38 
   1  -4  -1   15.78    0.78 
  -1   4   1   15.89    0.72 
  -1   4   1   15.27    0.78 
   0  -4  -1  174.20    4.20 
   0   4   1  170.43    3.85 
   0   4   1  154.16    4.04 
  -1  -4  -1    1.69    0.32 
   1   4   1    1.65    0.26 
   1   4   1    1.65    0.31 
  -2  -4  -1   33.30    1.39 
   2   4   1   33.96    1.08 
   2   4   1   32.22    1.36 
  -3  -4  -1    0.19    0.16 
   3   4   1    0.17    0.15 
  -4  -4  -1   16.01    1.03 
   4   4   1   14.16    0.98 
  -5  -4  -1    0.34    0.20 
   5   4   1    0.17    0.20 
   7  -5  -1    9.80    0.95 
   6  -5  -1   12.61    0.88 
  -6   5   1   11.45    0.77 
   5  -5  -1   16.75    0.90 
   5  -5  -1   18.50    0.99 
  -5   5   1   17.07    0.93 
   4  -5  -1   90.52    2.68 
   4  -5  -1   95.48    2.71 
  -4   5   1   91.91    2.65 
   3  -5  -1    1.46    0.30 
   3  -5  -1    2.22    0.37 
  -3   5   1    1.45    0.30 
   2  -5  -1   63.40    1.97 
   2  -5  -1   60.52    2.00 
  -2   5   1   62.92    1.94 
   1  -5  -1    5.99    0.52 
  -1   5   1    6.34    0.49 
  -1   5   1    6.75    0.55 
   0  -5  -1    9.12    0.66 
   0   5   1   10.14    0.69 
   0   5   1    9.23    0.58 
  -1  -5  -1    0.37    0.17 
   1   5   1    0.33    0.17 
   1   5   1    0.05    0.10 
  -2  -5  -1   22.26    1.20 
   2   5   1   25.06    0.95 
   2   5   1   21.99    1.19 
  -3  -5  -1    2.16    0.45 
   3   5   1    1.62    0.40 
  -4  -5  -1   31.21    1.59 
   4   5   1   27.66    1.52 
   6  -6  -1   35.82    1.65 
  -6   6   1   36.76    1.58 
   5  -6  -1    1.18    0.33 
  -5   6   1    0.97    0.29 
   4  -6  -1    6.40    0.66 
   4  -6  -1    5.75    0.60 
  -4   6   1    5.28    0.61 
   3  -6  -1    7.87    0.63 
   3  -6  -1    8.32    0.65 
  -3   6   1    6.60    0.67 
   2  -6  -1   71.40    2.28 
   2  -6  -1   69.49    2.36 
  -2   6   1   71.28    2.25 
   1  -6  -1    0.50    0.22 
  -1   6   1    0.05    0.13 
  -1   6   1   -0.09    0.11 
   0  -6  -1   68.58    2.41 
   0   6   1   72.02    2.17 
   0   6   1   66.47    2.32 
  -1  -6  -1    9.66    0.79 
   1   6   1   10.98    0.68 
   1   6   1    8.49    0.73 
  -2  -6  -1    4.54    0.66 
   2   6   1    4.11    0.63 
  -3  -6  -1    0.89    0.32 
   3   6   1    1.37    0.36 
   5  -7  -1    9.19    0.78 
  -5   7   1    8.83    0.75 
   4  -7  -1   43.45    1.75 
   4  -7  -1   36.85    1.68 
  -4   7   1   42.85    1.77 
   3  -7  -1    0.55    0.23 
   3  -7  -1    0.52    0.27 
  -3   7   1    0.33    0.22 
   2  -7  -1   34.48    1.54 
   2  -7  -1   34.25    1.62 
  -2   7   1   37.14    1.57 
   1  -7  -1    0.99    0.33 
  -1   7   1    0.62    0.25 
  -1   7   1    0.70    0.24 
   0  -7  -1    2.21    0.49 
   0   7   1    2.93    0.52 
   0   7   1    3.51    0.52 
  -1  -7  -1    0.77    0.32 
   1   7   1    0.63    0.23 
   1   7   1    0.63    0.26 
  -2  -7  -1   12.86    1.03 
   2   7   1   13.29    1.04 
   3  -8  -1    3.76    0.61 
   3  -8  -1    3.58    0.59 
  -3   8   1    5.12    0.69 
   2  -8  -1   21.11    1.32 
   2  -8  -1   22.12    1.25 
  -2   8   1   23.13    1.27 
   1  -8  -1    0.36    0.26 
  -1   8   1    0.11    0.22 
  -1   8   1    0.14    0.21 
   1   8  -2    2.93    0.51 
   1   8  -2    2.97    0.46 
  -1  -8   2    2.14    0.47 
   0   8  -2    0.28    0.20 
   0  -8   2    0.37    0.24 
  -1   8  -2    7.45    0.76 
   1  -8   2    7.35    0.91 
  -2   8  -2   11.14    0.82 
   2  -8   2    8.04    0.91 
  -3   8  -2   28.06    1.39 
   3  -8   2   25.90    1.46 
  -4   8  -2    0.18    0.21 
   4  -8   2    0.27    0.23 
   3   7  -2   12.90    0.96 
  -3  -7   2   11.12    0.93 
   2   7  -2   12.54    0.91 
   2   7  -2   13.60    0.81 
  -2  -7   2   14.13    1.01 
   1   7  -2   27.56    1.34 
   1   7  -2   27.81    1.25 
  -1  -7   2   28.25    1.47 
   0   7  -2    2.39    0.41 
   0   7  -2    1.91    0.37 
   0  -7   2    1.71    0.40 
  -1   7  -2    5.73    0.57 
  -1   7  -2    5.52    0.62 
   1  -7   2    6.06    0.74 
  -2   7  -2    1.77    0.34 
   2  -7   2    1.28    0.36 
  -3   7  -2    1.13    0.29 
   3  -7   2    1.77    0.40 
  -4   7  -2    7.77    0.75 
   4  -7   2    7.39    0.81 
  -5   7  -2   24.06    1.24 
   5  -7   2   24.00    1.34 
   4   6  -2   45.62    1.99 
  -4  -6   2   44.25    1.94 
   3   6  -2   18.91    1.14 
  -3  -6   2   20.96    1.20 
   2   6  -2    0.38    0.19 
   2   6  -2    0.35    0.18 
  -2  -6   2    0.57    0.24 
   1   6  -2    0.95    0.24 
   1   6  -2    1.49    0.31 
  -1  -6   2    0.45    0.20 
   0   6  -2    6.06    0.50 
   0   6  -2    6.18    0.51 
   0  -6   2    5.44    0.64 
  -1   6  -2    0.00    0.13 
  -1   6  -2    0.04    0.13 
   1  -6   2    0.11    0.13 
  -2   6  -2   49.51    1.71 
   2  -6   2   45.27    1.79 
   2  -6   2   47.97    1.51 
  -3   6  -2   55.27    1.86 
   3  -6   2   53.09    2.01 
  -4   6  -2   10.87    0.72 
   4  -6   2   10.23    0.78 
  -5   6  -2    9.71    0.70 
   5  -6   2    9.30    0.76 
   6  -6   2    8.43    0.74 
   5   5  -2   12.47    0.97 
  -5  -5   2   13.40    0.93 
   4   5  -2    4.88    0.67 
  -4  -5   2    6.59    0.70 
   3   5  -2   10.75    0.60 
   3   5  -2   10.77    0.77 
  -3  -5   2   10.87    0.77 
   2   5  -2    8.16    0.60 
  -2  -5   2    7.03    0.59 
   1   5  -2    0.14    0.11 
   1   5  -2    0.09    0.13 
  -1  -5   2    0.17    0.14 
   0   5  -2   83.70    2.30 
   0   5  -2   81.29    2.26 
   0  -5   2   82.04    1.96 
   0  -5   2   85.89    2.54 
  -1   5  -2    6.91    0.35 
  -1   5  -2    6.95    0.46 
  -1   5  -2    7.82    0.52 
   1  -5   2    6.82    0.55 
  -2   5  -2    0.33    0.15 
  -2   5  -2    0.16    0.12 
   2  -5   2    0.23    0.14 
   2  -5   2    0.33    0.16 
  -3   5  -2    0.13    0.12 
  -3   5  -2    0.26    0.15 
   3  -5   2    0.25    0.17 
   3  -5   2    0.46    0.16 
  -4   5  -2    5.13    0.49 
  -4   5  -2    4.76    0.40 
   4  -5   2    4.99    0.59 
   4  -5   2    4.73    0.45 
  -5   5  -2   19.85    0.99 
  -5   5  -2   17.45    0.89 
   5  -5   2   18.08    1.06 
  -6   5  -2   12.76    0.83 
   6  -5   2   10.73    0.83 
  -7   5  -2   16.30    1.04 
   7  -5   2   14.37    1.03 
   6   4  -2   14.49    1.09 
  -6  -4   2   15.61    1.03 
  -6  -4   2   15.24    0.93 
   5   4  -2    4.67    0.66 
  -5  -4   2    4.58    0.59 
  -5  -4   2    3.00    0.44 
   4   4  -2   52.79    1.98 
  -4  -4   2   54.73    1.91 
  -4  -4   2   52.40    1.68 
   3   4  -2    0.20    0.15 
   3   4  -2    0.13    0.11 
  -3  -4   2    0.42    0.17 
  -3  -4   2    0.15    0.11 
   2   4  -2   87.37    2.45 
  -2  -4   2   90.26    2.55 
  -2  -4   2   87.45    2.22 
   1   4  -2   12.45    0.63 
   1   4  -2   11.73    0.61 
  -1  -4   2   13.27    0.53 
  -1  -4   2   12.95    0.71 
   0   4  -2   54.22    1.48 
   0   4  -2   51.20    1.54 
   0  -4   2   54.69    1.34 
   0  -4   2   48.18    1.64 
  -1   4  -2    0.33    0.14 
  -1   4  -2    0.64    0.15 
   1  -4   2    0.38    0.11 
   1  -4   2    0.51    0.17 
  -2   4  -2   26.03    0.87 
  -2   4  -2   25.52    0.97 
   2  -4   2   25.80    1.07 
   2  -4   2   26.24    0.83 
  -3   4  -2   26.32    1.01 
   3  -4   2   27.93    1.15 
   3  -4   2   26.62    0.92 
  -4   4  -2   40.55    1.35 
  -4   4  -2   40.34    1.41 
   4  -4   2   43.18    1.58 
   4  -4   2   41.87    1.36 
  -5   4  -2   10.48    0.60 
  -5   4  -2   12.64    0.76 
   5  -4   2   10.40    0.76 
   5  -4   2   10.55    0.66 
  -6   4  -2    5.19    0.61 
   6  -4   2    4.37    0.60 
  -7   4  -2    9.90    0.80 
   7  -4   2    9.14    0.79 
   7   3  -2    0.17    0.21 
  -7  -3   2    0.04    0.16 
   6   3  -2   19.70    1.21 
  -6  -3   2   19.82    1.05 
  -6  -3   2   19.25    1.08 
   5   3  -2    0.10    0.13 
  -5  -3   2    0.35    0.15 
  -5  -3   2    0.21    0.13 
   4   3  -2    8.94    0.65 
  -4  -3   2    8.97    0.60 
  -4  -3   2    7.64    0.52 
   3   3  -2    2.19    0.35 
   3   3  -2    2.86    0.28 
  -3  -3   2    2.32    0.29 
  -3  -3   2    2.00    0.32 
   2   3  -2   22.10    0.79 
   2   3  -2   23.76    0.91 
  -2  -3   2   21.33    0.88 
  -2  -3   2   21.65    0.78 
   1   3  -2   14.27    0.60 
   1   3  -2   13.71    0.60 
  -1  -3   2   14.09    0.66 
  -1  -3   2   15.46    0.55 
   0   3  -2   55.23    1.54 
   0   3  -2   56.39    1.42 
   0  -3   2   59.01    1.43 
   0  -3   2   56.85    1.65 
  -1   3  -2  143.14    3.32 
   1  -3   2  145.29    3.56 
   1  -3   2  147.42    3.25 
   1  -3   2  144.50    3.11 
  -2   3  -2   58.51    1.58 
  -2   3  -2   61.37    1.61 
   2  -3   2   58.93    1.77 
   2  -3   2   59.46    1.45 
  -3   3  -2    2.25    0.29 
  -3   3  -2    2.16    0.27 
   3  -3   2    2.90    0.38 
   3  -3   2    2.16    0.26 
  -4   3  -2    2.93    0.32 
  -4   3  -2    2.41    0.35 
   4  -3   2    2.83    0.42 
   4  -3   2    3.23    0.37 
  -5   3  -2   34.23    1.37 
   5  -3   2   33.89    1.30 
   5  -3   2   34.10    1.43 
  -6   3  -2   11.24    0.79 
   6  -3   2   10.63    0.80 
   6  -3   2   11.28    0.74 
  -7   3  -2   49.42    1.98 
   7  -3   2   45.98    1.99 
   7   2  -2   10.53    1.02 
  -7  -2   2   11.18    0.83 
   6   2  -2   10.11    0.82 
  -6  -2   2    9.26    0.71 
  -6  -2   2   10.92    0.73 
   5   2  -2    0.37    0.18 
  -5  -2   2    0.09    0.12 
  -5  -2   2    0.17    0.13 
   4   2  -2  123.04    3.32 
   4   2  -2  123.68    2.81 
  -4  -2   2  128.55    3.17 
   3   2  -2   34.96    1.02 
   3   2  -2   36.14    1.27 
  -3  -2   2   35.42    1.14 
   2   2  -2   32.49    1.06 
   2   2  -2   31.40    0.94 
  -2  -2   2   32.10    0.97 
   1   2  -2  164.24    3.59 
   1   2  -2  164.58    3.59 
  -1  -2   2  164.64    3.60 
  -1  -2   2  162.65    3.76 
   0   2  -2    0.89    0.16 
   0   2  -2    0.58    0.08 
   0  -2   2    0.52    0.13 
   0  -2   2    0.61    0.12 
  -1   2  -2   10.84    0.47 
   1  -2   2   10.92    0.51 
   1  -2   2   10.78    0.45 
   1  -2   2   10.65    0.31 
  -2   2  -2   45.39    1.29 
  -2   2  -2   46.87    1.23 
   2  -2   2   44.72    1.15 
   2  -2   2   43.79    1.38 
  -3   2  -2  229.84    4.79 
  -3   2  -2  224.59    5.09 
   3  -2   2  222.12    4.94 
   3  -2   2  226.73    5.33 
  -4   2  -2   12.86    0.53 
  -4   2  -2   13.40    0.71 
   4  -2   2   13.01    0.67 
   4  -2   2   13.82    0.77 
  -5   2  -2   53.38    1.81 
   5  -2   2   48.43    1.67 
   5  -2   2   52.03    1.86 
  -6   2  -2    7.89    0.65 
   6  -2   2    6.35    0.70 
  -7   2  -2    3.04    0.51 
   7  -2   2    3.84    0.56 
   7  -2   2    3.42    0.57 
   7   1  -2    2.13    0.46 
  -7  -1   2    3.18    0.53 
   6   1  -2   59.22    2.18 
  -6  -1   2   64.04    2.01 
  -6  -1   2   58.57    2.05 
   5   1  -2    0.33    0.19 
  -5  -1   2    0.71    0.20 
  -5  -1   2    0.46    0.17 
   4   1  -2    5.39    0.52 
   4   1  -2    4.23    0.27 
  -4  -1   2    4.82    0.35 
  -4  -1   2    4.32    0.42 
   3   1  -2    7.89    0.51 
   3   1  -2    6.99    0.34 
  -3  -1   2    7.16    0.42 
  -3  -1   2    7.17    0.37 
   2   1  -2    7.34    0.34 
   2   1  -2    8.41    0.44 
  -2  -1   2    7.64    0.33 
  -2  -1   2    8.37    0.40 
   1   1  -2  150.00    3.22 
   1   1  -2  148.04    3.20 
  -1  -1   2  150.83    3.30 
  -1  -1   2  146.67    3.26 
   0   1  -2  539.57   11.07 
   0   1  -2  538.10   10.72 
   0  -1   2  524.99   10.94 
   0  -1   2  534.95   11.33 
   0  -1   2  530.00   10.97 
  -1   1  -2   38.30    0.99 
   1  -1   2   38.06    0.89 
   1  -1   2   37.19    1.08 
   1  -1   2   38.94    1.06 
  -2   1  -2   28.38    0.93 
  -2   1  -2   29.62    0.80 
   2  -1   2   29.32    0.99 
   2  -1   2   29.15    0.85 
  -3   1  -2   97.64    2.48 
  -3   1  -2   96.20    2.13 
   3  -1   2   96.65    2.41 
   3  -1   2   96.70    2.61 
  -4   1  -2   19.86    0.89 
   4  -1   2   18.05    0.90 
  -5   1  -2    0.05    0.10 
   5  -1   2   -0.10    0.10 
   5  -1   2    0.23    0.14 
  -6   1  -2   22.74    1.19 
   6  -1   2   27.32    1.28 
   6  -1   2   22.47    1.22 
  -7   1  -2   31.65    1.56 
   7  -1   2   35.66    1.60 
   7  -1   2   33.39    1.63 
   8   0  -2    8.33    0.95 
  -8   0   2    9.27    0.91 
   7   0  -2    3.16    0.56 
  -7   0   2    3.81    0.56 
   6   0  -2    8.47    0.72 
  -6   0   2    7.45    0.60 
   5   0  -2    1.98    0.28 
   5   0  -2    1.45    0.34 
  -5   0   2    1.59    0.22 
  -5   0   2    1.15    0.25 
   4   0  -2  164.46    4.15 
   4   0  -2  174.20    3.94 
  -4   0   2  171.08    4.05 
  -4   0   2  172.79    3.72 
   3   0  -2  233.90    5.28 
   3   0  -2  235.99    5.13 
  -3   0   2  234.68    4.95 
  -3   0   2  238.19    5.22 
   2   0  -2  201.32    4.37 
  -2   0   2  194.21    4.32 
  -2   0   2  196.09    4.34 
  -2   0   2  208.87    4.24 
   1   0  -2   25.01    0.73 
   1   0  -2   25.31    0.61 
  -1   0   2   25.18    0.61 
  -1   0   2   25.55    0.73 
  -1   0   2   24.36    0.73 
   0   0   2    2.34    0.16 
   0   0   2    2.27    0.17 
   0   0   2    2.22    0.17 
  -1   0  -2   19.38    0.56 
   1   0   2   20.34    0.62 
   1   0   2   19.51    0.69 
   1   0   2   19.37    0.66 
  -2   0  -2   30.41    0.76 
  -2   0  -2   31.25    0.98 
   2   0   2   28.96    1.02 
  -3   0  -2    1.90    0.28 
   3   0   2    2.62    0.35 
   3   0   2    1.80    0.28 
  -4   0  -2   65.61    1.95 
   4   0   2   62.19    1.95 
   4   0   2   66.45    2.08 
  -5   0  -2   15.61    0.87 
   5   0   2   13.13    0.84 
   5   0   2   13.84    0.84 
  -6   0  -2    0.78    0.25 
   6   0   2    1.09    0.31 
   6   0   2    0.64    0.27 
  -7   0  -2    0.09    0.16 
   7   0   2    0.36    0.23 
   7   0   2   -0.06    0.17 
   8  -1  -2   13.16    1.04 
  -8   1   2   11.28    0.90 
   7  -1  -2    8.16    0.88 
  -7   1   2    7.33    0.75 
   6  -1  -2  195.48    5.12 
  -6   1   2  202.09    4.96 
   5  -1  -2   26.13    1.18 
   5  -1  -2   21.65    0.85 
  -5   1   2   21.19    0.83 
  -5   1   2   24.64    1.03 
   4  -1  -2   25.20    1.07 
   4  -1  -2   26.25    0.82 
  -4   1   2   24.15    0.86 
  -4   1   2   23.39    0.95 
   3  -1  -2  145.52    3.20 
   3  -1  -2  138.95    3.43 
  -3   1   2  145.48    3.36 
  -3   1   2  145.56    3.23 
   2  -1  -2   24.66    0.83 
   2  -1  -2   24.25    0.62 
  -2   1   2   23.70    0.78 
  -2   1   2   23.40    0.75 
   1  -1  -2   17.16    0.59 
   1  -1  -2   16.86    0.50 
  -1   1   2   16.26    0.58 
  -1   1   2   16.21    0.52 
   0   1   2  463.97    9.29 
   0   1   2  446.23    9.82 
   0   1   2  460.58    9.45 
   0   1   2  467.85    9.52 
  -1  -1  -2   62.13    1.52 
   1   1   2   59.96    1.60 
   1   1   2   61.87    1.67 
   1   1   2   59.80    1.43 
  -2  -1  -2  192.46    4.18 
   2   1   2  189.45    3.84 
   2   1   2  178.32    4.40 
   2   1   2  181.20    4.24 
  -3  -1  -2   19.91    0.84 
   3   1   2   20.60    0.93 
   3   1   2   20.60    0.91 
  -4  -1  -2    9.10    0.61 
   4   1   2    9.74    0.68 
   4   1   2    9.95    0.67 
  -5  -1  -2    0.52    0.19 
   5   1   2    0.21    0.14 
   5   1   2    0.28    0.21 
  -6  -1  -2   24.39    1.25 
   6   1   2   22.97    1.28 
   6   1   2   23.56    1.30 
   8  -2  -2   44.23    2.06 
  -8   2   2   43.16    1.89 
   7  -2  -2   21.53    1.27 
  -7   2   2   20.94    1.16 
   6  -2  -2    2.96    0.52 
  -6   2   2    3.80    0.50 
   5  -2  -2    3.51    0.50 
   5  -2  -2    4.38    0.34 
  -5   2   2    4.44    0.46 
  -5   2   2    4.29    0.40 
   4  -2  -2   22.08    0.99 
   4  -2  -2   21.53    0.75 
  -4   2   2   21.53    0.85 
  -4   2   2   21.74    0.88 
   3  -2  -2    6.42    0.32 
   3  -2  -2    6.31    0.44 
  -3   2   2    5.72    0.39 
   2  -2  -2  138.46    3.27 
   2  -2  -2  140.49    3.18 
  -2   2   2  137.49    3.18 
  -2   2   2  139.75    3.09 
   1  -2  -2   43.79    1.19 
  -1   2   2   42.12    1.27 
  -1   2   2   42.75    1.20 
  -1   2   2   41.30    1.05 
   0  -2  -2   32.37    1.03 
   0   2   2   31.16    0.94 
   0   2   2   31.50    1.07 
   0   2   2   31.64    0.84 
  -1  -2  -2    0.86    0.20 
  -1  -2  -2    0.95    0.15 
   1   2   2    1.03    0.16 
   1   2   2    1.13    0.22 
  -2  -2  -2    8.66    0.46 
   2   2   2    9.07    0.37 
   2   2   2    8.09    0.54 
   2   2   2    7.68    0.53 
  -3  -2  -2    3.88    0.39 
   3   2   2    3.49    0.45 
   3   2   2    3.95    0.47 
  -4  -2  -2   47.33    1.62 
   4   2   2   47.33    1.81 
   4   2   2   49.84    1.82 
  -5  -2  -2    6.81    0.64 
   5   2   2    5.95    0.69 
   5   2   2    6.52    0.72 
  -6  -2  -2    5.75    0.68 
  -6  -2  -2    8.31    0.90 
   6   2   2    8.43    0.89 
   8  -3  -2   11.78    0.99 
  -8   3   2   11.57    0.90 
   7  -3  -2    6.69    0.82 
  -7   3   2    5.41    0.67 
   6  -3  -2   84.26    2.75 
  -6   3   2   88.37    2.58 
  -6   3   2   82.51    2.40 
   5  -3  -2   14.47    0.86 
  -5   3   2   14.58    0.76 
  -5   3   2   12.82    0.70 
   4  -3  -2   46.65    1.36 
   4  -3  -2   46.22    1.58 
  -4   3   2   40.85    1.37 
  -4   3   2   46.50    1.48 
   3  -3  -2   53.74    1.52 
   3  -3  -2   52.45    1.65 
  -3   3   2   52.89    1.44 
  -3   3   2   54.17    1.60 
   2  -3  -2    0.64    0.16 
   2  -3  -2    0.91    0.22 
  -2   3   2    0.56    0.12 
  -2   3   2    0.62    0.18 
   1  -3  -2    5.89    0.40 
  -1   3   2    5.83    0.24 
  -1   3   2    5.39    0.42 
  -1   3   2    5.26    0.36 
   0  -3  -2  133.97    2.79 
   0  -3  -2  130.63    3.27 
   0   3   2  124.81    3.25 
   0   3   2  126.37    3.00 
  -1  -3  -2    2.50    0.20 
  -1  -3  -2    1.75    0.31 
   1   3   2    1.32    0.26 
   1   3   2    1.91    0.24 
  -2  -3  -2   84.71    2.56 
  -2  -3  -2   89.40    2.18 
   2   3   2   82.98    2.47 
   2   3   2   83.72    2.06 
  -3  -3  -2    0.29    0.15 
  -3  -3  -2    0.36    0.20 
   3   3   2    0.42    0.20 
  -4  -3  -2    0.89    0.29 
  -4  -3  -2    0.61    0.19 
   4   3   2    0.19    0.18 
  -5  -3  -2    0.38    0.22 
  -5  -3  -2    0.85    0.24 
   5   3   2    0.77    0.28 
   7  -4  -2    0.49    0.28 
  -7   4   2    0.43    0.25 
   6  -4  -2    4.59    0.63 
  -6   4   2    4.08    0.50 
  -6   4   2    3.25    0.47 
   5  -4  -2    6.83    0.67 
  -5   4   2    7.41    0.57 
  -5   4   2    7.64    0.53 
   4  -4  -2   46.26    1.65 
   4  -4  -2   46.06    1.48 
  -4   4   2   45.50    1.56 
  -4   4   2   45.36    1.40 
   3  -4  -2    3.53    0.44 
   3  -4  -2    3.18    0.36 
  -3   4   2    3.32    0.41 
  -3   4   2    3.32    0.26 
   2  -4  -2   48.84    1.57 
   2  -4  -2   49.92    1.61 
  -2   4   2   47.85    1.55 
   1  -4  -2    6.40    0.49 
  -1   4   2    6.62    0.46 
  -1   4   2    6.11    0.50 
   0  -4  -2   28.43    1.17 
   0   4   2   29.69    1.22 
   0   4   2   27.63    1.03 
  -1  -4  -2    3.17    0.45 
   1   4   2    2.75    0.33 
   1   4   2    3.34    0.46 
  -2  -4  -2    0.44    0.20 
   2   4   2    0.44    0.19 
   2   4   2    0.24    0.12 
  -3  -4  -2    1.55    0.36 
   3   4   2    1.67    0.37 
  -4  -4  -2   63.02    2.41 
   4   4   2   62.19    2.38 
  -5  -4  -2   21.50    1.36 
   5   4   2   22.39    1.40 
   7  -5  -2    6.93    0.85 
   6  -5  -2  105.33    3.25 
  -6   5   2   99.95    3.01 
   5  -5  -2    0.29    0.19 
  -5   5   2    0.19    0.16 
   4  -5  -2   16.82    0.85 
   4  -5  -2   18.38    0.98 
  -4   5   2   18.24    0.96 
   3  -5  -2    6.78    0.57 
   3  -5  -2    5.96    0.51 
  -3   5   2    6.24    0.53 
   2  -5  -2    1.27    0.28 
   2  -5  -2    1.71    0.33 
  -2   5   2    1.45    0.30 
   1  -5  -2    2.47    0.40 
  -1   5   2    2.74    0.43 
  -1   5   2    2.64    0.38 
   0  -5  -2   52.71    1.92 
   0   5   2   56.09    1.75 
   0   5   2   52.92    1.93 
  -1  -5  -2   12.67    0.84 
   1   5   2   12.47    0.68 
   1   5   2   12.35    0.85 
  -2  -5  -2   82.04    2.75 
   2   5   2   76.22    2.63 
  -3  -5  -2   16.84    1.12 
   3   5   2   17.55    1.14 
  -4  -5  -2    1.00    0.34 
   4   5   2    1.25    0.37 
   6  -6  -2    6.28    0.78 
  -6   6   2    5.73    0.70 
   5  -6  -2    3.23    0.54 
  -5   6   2    1.53    0.37 
   4  -6  -2   18.25    1.04 
  -4   6   2   18.52    1.05 
   3  -6  -2    0.73    0.27 
   3  -6  -2    0.28    0.19 
  -3   6   2    0.28    0.17 
   2  -6  -2   78.43    2.54 
   2  -6  -2   73.26    2.46 
  -2   6   2   77.32    2.42 
   1  -6  -2    1.65    0.38 
  -1   6   2    2.12    0.39 
  -1   6   2    1.36    0.34 
   0  -6  -2   39.08    1.72 
   0   6   2   43.27    1.57 
   0   6   2   40.85    1.74 
  -1  -6  -2    9.94    0.82 
   1   6   2   10.76    0.86 
  -2  -6  -2    0.24    0.22 
   2   6   2    0.33    0.23 
  -3  -6  -2    1.85    0.43 
   3   6   2    0.81    0.33 
   5  -7  -2   -0.24    0.20 
  -5   7   2   -0.10    0.17 
   4  -7  -2   28.27    1.45 
  -4   7   2   30.15    1.47 
   3  -7  -2    6.80    0.77 
   3  -7  -2    6.83    0.78 
  -3   7   2    6.48    0.74 
   2  -7  -2    0.48    0.28 
   2  -7  -2    0.87    0.31 
  -2   7   2    1.17    0.34 
   1  -7  -2    2.99    0.54 
  -1   7   2    3.32    0.51 
  -1   7   2    2.78    0.52 
   0  -7  -2    6.67    0.84 
   0   7   2    7.85    0.65 
   0   7   2    7.46    0.86 
  -1  -7  -2    0.13    0.23 
   1   7   2   -0.05    0.19 
   2   8  -3    0.54    0.24 
  -2  -8   3    0.27    0.28 
   1   8  -3    5.25    0.66 
  -1  -8   3    6.33    0.83 
   0   8  -3   21.98    1.21 
   0  -8   3   24.84    1.43 
  -1   8  -3   43.27    1.77 
   1  -8   3   37.99    1.85 
  -2   8  -3    0.38    0.23 
   2  -8   3   -0.09    0.21 
  -3   8  -3    3.54    0.55 
   3  -8   3    3.30    0.59 
  -4   8  -3    1.51    0.35 
   4  -8   3    0.56    0.31 
   3   7  -3    5.77    0.72 
  -3  -7   3    7.02    0.83 
   2   7  -3   26.60    1.23 
   2   7  -3   26.39    1.33 
  -2  -7   3   27.17    1.44 
   1   7  -3   45.25    1.73 
   1   7  -3   45.08    1.73 
  -1  -7   3   47.90    1.99 
   0   7  -3    0.34    0.19 
   0  -7   3    0.15    0.18 
  -1   7  -3    0.13    0.15 
   1  -7   3   -0.09    0.15 
  -2   7  -3   14.40    0.91 
   2  -7   3   15.35    1.03 
  -3   7  -3   17.06    1.00 
   3  -7   3   16.47    1.09 
  -4   7  -3    5.17    0.62 
   4  -7   3    6.24    0.77 
  -5   7  -3   21.42    1.16 
   5  -7   3   21.21    1.27 
   5   6  -3    5.30    0.76 
  -5  -6   3    5.70    0.75 
   4   6  -3    4.87    0.70 
  -4  -6   3    5.14    0.69 
   3   6  -3    1.64    0.39 
   3   6  -3    2.33    0.37 
  -3  -6   3    2.06    0.43 
   2   6  -3    0.99    0.25 
   2   6  -3    0.91    0.25 
  -2  -6   3    1.76    0.38 
   1   6  -3    2.79    0.40 
   1   6  -3    3.21    0.45 
  -1  -6   3    3.05    0.50 
   0   6  -3   15.73    0.86 
   0   6  -3   15.95    0.81 
   0  -6   3   17.19    0.99 
  -1   6  -3   12.48    0.76 
   1  -6   3   12.06    0.83 
  -2   6  -3    6.01    0.60 
   2  -6   3    6.68    0.70 
  -3   6  -3    3.43    0.48 
   3  -6   3    4.02    0.57 
  -4   6  -3    3.84    0.52 
  -4   6  -3    4.55    0.48 
   4  -6   3    4.41    0.61 
  -5   6  -3   12.27    0.79 
   5  -6   3   11.87    0.90 
  -6   6  -3    3.37    0.52 
   6  -6   3    2.44    0.49 
   5   5  -3    1.69    0.42 
  -5  -5   3    1.41    0.35 
   4   5  -3    7.94    0.78 
  -4  -5   3    7.91    0.67 
   3   5  -3    0.69    0.21 
   3   5  -3    0.84    0.26 
  -3  -5   3    0.49    0.16 
  -3  -5   3    0.54    0.22 
   2   5  -3   17.80    0.91 
   2   5  -3   18.02    0.87 
  -2  -5   3   17.17    0.76 
  -2  -5   3   19.57    1.00 
   1   5  -3   33.01    1.26 
   1   5  -3   33.37    1.20 
  -1  -5   3   32.66    1.36 
  -1  -5   3   32.40    1.06 
   0   5  -3    0.35    0.14 
   0   5  -3    0.30    0.14 
   0  -5   3    0.31    0.12 
   0  -5   3    0.54    0.19 
  -1   5  -3    8.10    0.44 
  -1   5  -3    8.73    0.57 
   1  -5   3    7.75    0.44 
   1  -5   3    7.97    0.60 
  -2   5  -3   50.89    1.51 
  -2   5  -3   53.93    1.70 
   2  -5   3   52.13    1.86 
  -3   5  -3  148.09    3.60 
  -3   5  -3  147.50    3.66 
   3  -5   3  145.03    3.99 
  -4   5  -3   11.90    0.71 
  -4   5  -3   12.50    0.72 
   4  -5   3   11.15    0.80 
  -5   5  -3   51.09    1.72 
  -5   5  -3   53.20    1.85 
   5  -5   3   54.49    2.05 
  -6   5  -3    4.86    0.64 
   6  -5   3    5.13    0.70 
   6   4  -3    4.79    0.72 
  -6  -4   3    5.84    0.65 
  -6  -4   3    5.91    0.68 
   5   4  -3    2.26    0.45 
  -5  -4   3    2.38    0.39 
  -5  -4   3    1.79    0.36 
   4   4  -3   13.94    0.88 
  -4  -4   3   14.62    0.78 
  -4  -4   3   15.56    0.86 
   3   4  -3    1.07    0.27 
   3   4  -3    1.26    0.26 
  -3  -4   3    1.72    0.29 
  -3  -4   3    1.59    0.31 
   2   4  -3    4.18    0.44 
   2   4  -3    4.88    0.40 
  -2  -4   3    4.52    0.35 
  -2  -4   3    4.47    0.47 
   1   4  -3   51.84    1.48 
   1   4  -3   48.67    1.54 
  -1  -4   3   48.43    1.64 
  -1  -4   3   51.50    1.44 
   0   4  -3   99.74    2.35 
   0   4  -3   99.21    2.59 
   0  -4   3   98.51    2.73 
   0  -4   3  100.60    2.43 
  -1   4  -3  151.31    3.63 
   1  -4   3  156.40    3.53 
   1  -4   3  149.31    3.86 
   1  -4   3  150.26    3.28 
  -2   4  -3   37.46    1.30 
   2  -4   3   38.53    1.41 
   2  -4   3   37.44    0.99 
  -3   4  -3   78.86    2.13 
  -3   4  -3   79.39    2.17 
   3  -4   3   76.31    1.92 
   3  -4   3   75.64    2.37 
  -4   4  -3    3.72    0.41 
  -4   4  -3    2.84    0.40 
   4  -4   3    3.36    0.49 
  -5   4  -3   -0.04    0.13 
   5  -4   3    0.24    0.19 
  -6   4  -3    9.06    0.75 
   6  -4   3    9.30    0.78 
  -7   4  -3   23.30    1.32 
   7  -4   3   22.31    1.34 
   7   3  -3    1.20    0.35 
  -7  -3   3    1.46    0.37 
   6   3  -3    3.04    0.55 
  -6  -3   3    3.61    0.53 
   5   3  -3    3.37    0.53 
  -5  -3   3    2.96    0.43 
  -5  -3   3    3.24    0.44 
   4   3  -3  115.54    3.21 
   4   3  -3  115.03    2.81 
  -4  -3   3  115.46    3.00 
   3   3  -3   63.50    1.95 
   3   3  -3   64.51    1.77 
  -3  -3   3   63.30    1.83 
   2   3  -3   40.13    1.27 
   2   3  -3   41.88    1.32 
  -2  -3   3   39.86    1.32 
  -2  -3   3   41.89    1.27 
   1   3  -3  154.45    3.45 
   1   3  -3  151.92    3.56 
  -1  -3   3  154.73    3.72 
  -1  -3   3  153.70    3.51 
   0   3  -3   18.19    0.54 
   0   3  -3   17.18    0.73 
   0  -3   3   17.49    0.67 
   0  -3   3   17.53    0.76 
  -1   3  -3   60.31    1.69 
   1  -3   3   64.09    1.68 
   1  -3   3   58.14    1.79 
  -2   3  -3   30.23    1.03 
  -2   3  -3   29.78    1.03 
   2  -3   3   30.40    0.78 
   2  -3   3   28.60    1.13 
  -3   3  -3   94.91    2.40 
  -3   3  -3   95.90    2.54 
   3  -3   3   97.31    2.73 
   3  -3   3   95.72    2.27 
  -4   3  -3   44.57    1.36 
  -4   3  -3   47.29    1.58 
   4  -3   3   44.29    1.38 
   4  -3   3   47.05    1.70 
  -5   3  -3   52.70    1.88 
   5  -3   3   55.49    2.02 
  -6   3  -3    4.52    0.61 
   6  -3   3    3.72    0.58 
  -7   3  -3    5.89    0.75 
   7  -3   3    7.07    0.84 
   7   2  -3    0.21    0.18 
  -7  -2   3    0.08    0.15 
   6   2  -3   80.34    2.71 
  -6  -2   3   78.48    2.50 
   5   2  -3   12.20    0.80 
  -5  -2   3   11.13    0.64 
  -5  -2   3   11.49    0.70 
   4   2  -3   51.64    1.77 
   4   2  -3   52.45    1.47 
  -4  -2   3   51.49    1.57 
  -4  -2   3   52.37    1.64 
   3   2  -3   14.12    0.72 
   3   2  -3   13.61    0.60 
  -3  -2   3   13.48    0.64 
  -3  -2   3   13.43    0.59 
   2   2  -3   97.34    2.35 
   2   2  -3   90.07    2.25 
  -2  -2   3   91.21    2.30 
  -2  -2   3   93.00    2.33 
   1   2  -3   88.51    2.19 
   1   2  -3   90.57    2.08 
  -1  -2   3   87.29    2.21 
  -1  -2   3   91.40    2.20 
   0   2  -3  158.38    3.60 
   0   2  -3  165.04    3.38 
   0  -2   3  163.38    3.78 
   0  -2   3  158.58    3.62 
  -1   2  -3   71.94    1.81 
   1  -2   3   67.70    1.90 
   1  -2   3   70.06    1.84 
  -2   2  -3  113.78    2.76 
  -2   2  -3  110.93    2.62 
   2  -2   3  112.11    2.44 
   2  -2   3  110.87    2.88 
  -3   2  -3  160.57    3.48 
  -3   2  -3  143.11    3.70 
   3  -2   3  154.53    3.49 
   3  -2   3  160.70    3.95 
  -4   2  -3    1.99    0.24 
  -4   2  -3    2.15    0.35 
   4  -2   3    2.28    0.31 
   4  -2   3    1.87    0.35 
  -5   2  -3    0.05    0.12 
   5  -2   3    0.20    0.17 
   5  -2   3    0.15    0.15 
  -6   2  -3    6.96    0.73 
   6  -2   3    6.56    0.75 
  -7   2  -3   15.12    1.03 
   7  -2   3   12.19    0.97 
   7   1  -3   14.80    1.06 
  -7  -1   3   15.86    0.99 
   6   1  -3   13.25    0.94 
  -6  -1   3   16.61    0.92 
   5   1  -3   11.89    0.81 
   5   1  -3   12.25    0.57 
  -5  -1   3   11.25    0.69 
  -5  -1   3   11.98    0.60 
   4   1  -3    1.69    0.23 
   4   1  -3    2.24    0.38 
  -4  -1   3    1.85    0.22 
  -4  -1   3    1.67    0.28 
   3   1  -3    5.38    0.43 
  -3  -1   3    4.82    0.36 
  -3  -1   3    4.24    0.25 
   2   1  -3   63.70    1.64 
   2   1  -3   65.74    1.72 
  -2  -1   3   64.02    1.73 
  -2  -1   3   66.96    1.57 
   1   1  -3   58.24    1.49 
   1   1  -3   56.25    1.40 
  -1  -1   3   59.21    1.52 
  -1  -1   3   56.32    1.41 
   0   1  -3   10.99    0.34 
   0   1  -3   10.42    0.46 
   0  -1   3   10.96    0.48 
  -1   1  -3   84.92    1.98 
   1  -1   3   84.01    1.85 
   1  -1   3   80.32    2.12 
   1  -1   3   83.49    2.10 
  -2   1  -3    2.36    0.23 
  -2   1  -3    2.15    0.28 
   2  -1   3    2.34    0.20 
   2  -1   3    1.99    0.29 
  -3   1  -3   89.13    2.43 
  -3   1  -3   90.63    2.09 
   3  -1   3   90.15    2.28 
   3  -1   3   91.11    2.56 
  -4   1  -3   19.07    0.92 
   4  -1   3   18.81    0.97 
   4  -1   3   18.50    0.85 
  -5   1  -3   10.32    0.72 
   5  -1   3   10.74    0.77 
   5  -1   3   12.05    0.73 
  -6   1  -3    0.98    0.30 
   6  -1   3    1.67    0.40 
   6  -1   3    0.52    0.22 
  -7   1  -3    9.29    0.79 
   7  -1   3    9.52    0.84 
   8   0  -3    1.73    0.44 
   7   0  -3    0.26    0.25 
  -7   0   3    0.10    0.15 
   6   0  -3   30.17    1.48 
  -6   0   3   33.57    1.39 
   5   0  -3    0.72    0.27 
  -5   0   3    0.86    0.21 
  -5   0   3    0.94    0.24 
   4   0  -3  122.88    3.20 
  -4   0   3  124.22    3.07 
  -4   0   3  117.88    2.77 
  -4   0   3  120.54    2.86 
   3   0  -3   29.83    1.07 
  -3   0   3   28.03    0.99 
  -3   0   3   28.42    0.93 
   2   0  -3   47.73    1.35 
  -2   0   3   48.11    1.31 
  -2   0   3   48.69    1.36 
   1   0  -3   13.81    0.52 
  -1   0   3   13.71    0.54 
  -1   0   3   12.77    0.53 
  -1   0   3   13.37    0.42 
   0   0   3   58.41    1.44 
   0   0   3   59.09    1.47 
   0   0   3   55.59    1.49 
   0   0   3   58.88    1.51 
  -1   0  -3   22.79    0.70 
   1   0   3   21.25    0.77 
   1   0   3   21.33    0.72 
   1   0   3   21.54    0.81 
  -2   0  -3   40.10    1.24 
  -2   0  -3   39.12    1.04 
   2   0   3   38.17    1.19 
   2   0   3   37.82    1.29 
  -3   0  -3   75.56    1.74 
  -3   0  -3   75.51    2.12 
   3   0   3   77.31    2.29 
  -4   0  -3    0.02    0.10 
   4   0   3    0.25    0.13 
   4   0   3    0.10    0.11 
  -5   0  -3    0.32    0.18 
   5   0   3    0.35    0.19 
   5   0   3    0.12    0.15 
  -6   0  -3   23.37    1.24 
   6   0   3   24.56    1.27 
   6   0   3   24.08    1.34 
   8  -1  -3   18.82    1.29 
  -8   1   3   18.15    1.15 
   7  -1  -3    8.26    0.89 
  -7   1   3    7.27    0.75 
   6  -1  -3   29.89    1.42 
  -6   1   3   27.45    1.25 
   5  -1  -3   11.42    0.77 
  -5   1   3   11.59    0.68 
  -5   1   3   11.43    0.62 
   4  -1  -3    0.20    0.07 
   4  -1  -3    0.28    0.15 
  -4   1   3    0.09    0.10 
  -4   1   3    0.29    0.14 
   3  -1  -3    2.51    0.33 
  -3   1   3    3.64    0.34 
  -3   1   3    3.12    0.31 
   2  -1  -3   10.49    0.53 
  -2   1   3    9.57    0.46 
  -2   1   3    8.91    0.47 
   1  -1  -3   25.63    0.75 
   1  -1  -3   24.59    0.84 
  -1   1   3   24.58    0.84 
  -1  -1  -3   30.46    0.95 
   1   1   3   28.61    0.87 
   1   1   3   30.56    1.02 
   1   1   3   29.60    1.04 
  -2  -1  -3    0.23    0.11 
   2   1   3    0.18    0.11 
   2   1   3    0.22    0.12 
   2   1   3    0.06    0.08 
  -3  -1  -3   57.11    1.74 
   3   1   3   56.94    1.82 
   3   1   3   58.62    1.92 
  -4  -1  -3   73.34    2.20 
   4   1   3   72.74    2.29 
   4   1   3   68.75    2.34 
  -5  -1  -3   61.15    2.12 
   5   1   3   61.73    2.18 
   5   1   3   59.41    2.24 
  -6  -1  -3    3.43    0.53 
   6   1   3    3.54    0.59 
   6   1   3    3.14    0.55 
   8  -2  -3    0.11    0.24 
  -8   2   3    0.27    0.24 
   7  -2  -3    0.71    0.30 
  -7   2   3    0.28    0.22 
   6  -2  -3   26.69    1.33 
  -6   2   3   23.97    1.15 
  -6   2   3   25.17    1.05 
   5  -2  -3    0.37    0.19 
  -5   2   3    0.14    0.12 
  -5   2   3    0.06    0.12 
   4  -2  -3   45.74    1.57 
  -4   2   3   46.30    1.44 
  -4   2   3   42.50    1.41 
   3  -2  -3    5.35    0.44 
   3  -2  -3    5.49    0.28 
  -3   2   3    5.63    0.42 
   2  -2  -3    5.98    0.31 
   2  -2  -3    6.22    0.43 
  -2   2   3    6.67    0.42 
  -2   2   3    5.27    0.33 
   1  -2  -3    0.36    0.14 
   1  -2  -3    0.50    0.14 
  -1   2   3    0.49    0.14 
  -1   2   3    0.44    0.11 
   0  -2  -3  246.47    5.56 
   0   2   3  241.97    5.43 
   0   2   3  241.02    5.18 
   0   2   3  234.30    5.17 
  -1  -2  -3   66.68    2.00 
  -1  -2  -3   67.58    1.73 
   1   2   3   67.80    1.72 
   1   2   3   63.96    1.92 
  -2  -2  -3  108.37    2.65 
   2   2   3  106.03    2.46 
   2   2   3  104.99    2.94 
   2   2   3  103.68    2.84 
  -3  -2  -3  160.40    3.88 
   3   2   3  158.42    4.09 
   3   2   3  155.59    4.19 
  -4  -2  -3    3.59    0.46 
   4   2   3    3.90    0.55 
   4   2   3    3.17    0.51 
  -5  -2  -3    5.65    0.62 
   5   2   3    5.42    0.71 
   5   2   3    6.52    0.76 
  -6  -2  -3    0.87    0.29 
  -6  -2  -3    1.28    0.39 
   6   2   3    1.65    0.43 
   7  -3  -3    0.38    0.27 
  -7   3   3   -0.02    0.16 
   6  -3  -3   35.79    1.60 
  -6   3   3   32.33    1.31 
  -6   3   3   35.15    1.42 
   5  -3  -3    0.77    0.26 
  -5   3   3    0.73    0.23 
  -5   3   3    1.55    0.30 
   4  -3  -3    1.39    0.31 
  -4   3   3    0.90    0.21 
  -4   3   3    0.90    0.22 
   3  -3  -3    0.57    0.20 
   3  -3  -3    0.75    0.16 
  -3   3   3    0.75    0.17 
  -3   3   3    0.67    0.19 
   2  -3  -3  167.46    3.96 
   2  -3  -3  166.67    4.04 
  -2   3   3  170.91    3.95 
  -2   3   3  167.30    3.73 
   1  -3  -3    1.25    0.23 
  -1   3   3    1.09    0.15 
  -1   3   3    1.37    0.24 
  -1   3   3    1.10    0.24 
   0  -3  -3  112.59    2.52 
   0  -3  -3  108.39    2.94 
   0   3   3  106.87    2.70 
   0   3   3  113.24    2.97 
  -1  -3  -3   74.58    1.87 
  -1  -3  -3   73.60    2.26 
   1   3   3   75.04    2.25 
   1   3   3   72.44    1.95 
  -2  -3  -3   33.91    1.44 
  -2  -3  -3   32.54    1.11 
   2   3   3   30.82    1.33 
   2   3   3   32.75    1.06 
  -3  -3  -3    1.56    0.35 
  -3  -3  -3    1.93    0.31 
   3   3   3    1.87    0.38 
  -4  -3  -3   15.21    1.06 
   4   3   3   17.44    1.07 
  -5  -3  -3   16.26    1.17 
   5   3   3   16.27    1.14 
   7  -4  -3    3.19    0.57 
  -7   4   3    4.38    0.58 
   6  -4  -3   46.63    1.91 
  -6   4   3   45.52    1.74 
   5  -4  -3    1.34    0.35 
  -5   4   3    1.23    0.30 
  -5   4   3    1.47    0.29 
   4  -4  -3   91.75    2.71 
  -4   4   3   90.36    2.37 
  -4   4   3   88.49    2.58 
   3  -4  -3   14.88    0.73 
   3  -4  -3   16.01    0.87 
  -3   4   3   14.87    0.81 
   2  -4  -3   81.00    2.37 
   2  -4  -3   80.26    2.28 
  -2   4   3   78.16    2.28 
   1  -4  -3    1.14    0.27 
  -1   4   3    1.71    0.30 
  -1   4   3    1.22    0.28 
   0  -4  -3    0.79    0.23 
   0   4   3    0.94    0.22 
   0   4   3    0.62    0.21 
  -1  -4  -3    0.85    0.24 
   1   4   3    0.52    0.20 
   1   4   3    0.87    0.21 
  -2  -4  -3   35.44    1.57 
   2   4   3   35.62    1.55 
  -3  -4  -3   37.81    1.74 
   3   4   3   42.24    1.80 
  -4  -4  -3    0.85    0.29 
   4   4   3    0.91    0.32 
   7  -5  -3    0.22    0.27 
  -7   5   3    0.26    0.22 
   6  -5  -3   47.32    1.98 
  -6   5   3   46.21    1.83 
   5  -5  -3    0.20    0.21 
  -5   5   3    0.28    0.18 
   4  -5  -3   27.58    1.31 
  -4   5   3   26.42    1.25 
   3  -5  -3    0.52    0.21 
   3  -5  -3    0.61    0.24 
  -3   5   3    0.20    0.15 
   2  -5  -3   12.02    0.80 
   2  -5  -3   10.85    0.72 
  -2   5   3   11.54    0.74 
   1  -5  -3   10.36    0.72 
  -1   5   3   10.06    0.67 
  -1   5   3    9.35    0.72 
   0  -5  -3   59.09    2.17 
   0   5   3   66.19    2.27 
   0   5   3   68.92    2.06 
  -1  -5  -3   27.68    1.39 
   1   5   3   27.67    1.40 
   1   5   3   29.23    1.16 
  -2  -5  -3    1.84    0.42 
   2   5   3    2.05    0.44 
  -3  -5  -3    0.14    0.18 
   3   5   3    0.06    0.20 
   6  -6  -3    2.63    0.51 
  -6   6   3    3.24    0.54 
   5  -6  -3    0.10    0.19 
  -5   6   3    0.09    0.19 
   4  -6  -3   12.29    0.90 
  -4   6   3   11.54    0.86 
   3  -6  -3   -0.07    0.16 
  -3   6   3    0.10    0.14 
   2  -6  -3   33.68    1.53 
   2  -6  -3   31.51    1.45 
  -2   6   3   34.68    1.48 
   1  -6  -3    0.53    0.27 
  -1   6   3    1.36    0.32 
  -1   6   3    1.35    0.33 
   0  -6  -3    3.56    0.57 
   0   6   3    4.92    0.58 
   0   6   3    4.34    0.65 
  -1  -6  -3    2.49    0.49 
   1   6   3    1.83    0.42 
  -2  -6  -3    8.62    0.94 
   2   6   3    8.97    1.00 
   4  -7  -3   10.55    0.99 
  -4   7   3    8.77    0.91 
   3  -7  -3    1.41    0.41 
  -3   7   3    1.47    0.36 
   2  -7  -3   15.16    1.06 
   2  -7  -3   15.70    1.06 
  -2   7   3   17.70    1.09 
   1  -7  -3    0.22    0.23 
   1  -7  -3    0.38    0.22 
  -1   7   3    0.39    0.20 
  -1   7   3    0.23    0.23 
   0  -7  -3   23.28    1.39 
   0   7   3   23.56    1.23 
   0   7   3   19.98    1.31 
   2   8  -4   14.94    0.98 
  -2  -8   4   15.31    1.13 
   1   8  -4   43.77    1.81 
  -1  -8   4   40.33    1.94 
   0   8  -4    2.77    0.49 
   0  -8   4    3.35    0.58 
  -1   8  -4    3.62    0.56 
   1  -8   4    5.61    0.76 
  -2   8  -4    3.53    0.56 
   2  -8   4    3.97    0.64 
  -3   8  -4    5.31    0.69 
   3  -8   4    5.49    0.77 
   3   7  -4   19.94    1.16 
  -3  -7   4   19.41    1.22 
   2   7  -4    5.85    0.64 
  -2  -7   4    3.97    0.62 
   1   7  -4    1.85    0.36 
  -1  -7   4    1.54    0.39 
   0   7  -4   10.30    0.74 
   0  -7   4    9.74    0.80 
  -1   7  -4   19.27    1.07 
   1  -7   4   21.67    1.24 
  -2   7  -4    3.46    0.51 
   2  -7   4    4.32    0.65 
  -3   7  -4   40.84    1.68 
   3  -7   4   40.15    1.82 
  -4   7  -4    2.47    0.45 
   4  -7   4    2.14    0.47 
  -5   7  -4    6.37    0.70 
   5  -7   4    6.31    0.82 
   5   6  -4   11.32    0.93 
  -5  -6   4   11.78    0.91 
   4   6  -4   15.91    1.05 
  -4  -6   4   17.09    1.07 
   3   6  -4   14.04    0.92 
   3   6  -4   14.99    0.85 
  -3  -6   4   14.67    0.97 
   2   6  -4   37.37    1.50 
   2   6  -4   38.59    1.49 
  -2  -6   4   37.42    1.63 
   1   6  -4   82.83    2.53 
  -1  -6   4   81.76    2.68 
   0   6  -4    4.99    0.58 
   0  -6   4    4.87    0.60 
  -1   6  -4   48.00    1.72 
   1  -6   4   49.87    1.90 
  -2   6  -4   11.24    0.62 
  -2   6  -4   10.05    0.71 
   2  -6   4   10.60    0.79 
  -3   6  -4    3.23    0.41 
  -3   6  -4    3.73    0.50 
   3  -6   4    2.98    0.51 
  -4   6  -4    7.21    0.60 
  -4   6  -4    6.50    0.54 
   4  -6   4    7.19    0.79 
  -5   6  -4   34.44    1.49 
  -5   6  -4   36.83    1.50 
   5  -6   4   36.43    1.71 
   5   5  -4    6.69    0.79 
  -5  -5   4    7.20    0.62 
  -5  -5   4    8.26    0.71 
   4   5  -4   50.16    1.94 
  -4  -5   4   50.15    1.75 
  -4  -5   4   53.61    1.94 
   3   5  -4   46.43    1.59 
   3   5  -4   42.71    1.64 
  -3  -5   4   45.92    1.54 
  -3  -5   4   46.09    1.73 
   2   5  -4   16.16    0.86 
   2   5  -4   16.60    0.84 
  -2  -5   4   16.69    0.93 
  -2  -5   4   16.91    0.79 
   1   5  -4   16.66    0.77 
   1   5  -4   17.36    0.90 
  -1  -5   4   18.53    0.95 
  -1  -5   4   17.75    0.78 
   0   5  -4   68.82    2.09 
   0  -5   4   67.06    2.18 
   0  -5   4   66.31    1.88 
  -1   5  -4   20.51    0.98 
   1  -5   4   21.02    1.04 
   1  -5   4   21.07    0.88 
  -2   5  -4   22.91    1.05 
   2  -5   4   20.88    1.08 
  -3   5  -4   93.90    2.66 
  -3   5  -4   97.57    2.65 
   3  -5   4   95.67    2.95 
  -4   5  -4    8.25    0.61 
  -4   5  -4    7.95    0.58 
   4  -5   4    7.94    0.70 
  -5   5  -4   18.32    1.02 
   5  -5   4   16.70    1.10 
  -6   5  -4   -0.01    0.21 
   6  -5   4    0.05    0.17 
   6   4  -4   22.02    1.31 
  -6  -4   4   21.26    1.16 
   5   4  -4   12.89    0.90 
  -5  -4   4   12.47    0.79 
  -5  -4   4   14.17    0.84 
   4   4  -4    1.66    0.34 
   4   4  -4    2.54    0.35 
  -4  -4   4    1.13    0.26 
  -4  -4   4    0.36    0.17 
   3   4  -4    3.33    0.40 
   3   4  -4    3.58    0.45 
  -3  -4   4    2.52    0.35 
  -3  -4   4    2.87    0.39 
   2   4  -4   80.83    2.23 
   2   4  -4   85.42    2.32 
  -2  -4   4   79.86    2.23 
  -2  -4   4   79.11    2.36 
   1   4  -4  156.29    3.75 
   1   4  -4  152.91    3.50 
  -1  -4   4  149.48    3.87 
  -1  -4   4  152.50    3.64 
   0   4  -4   26.90    1.06 
   0   4  -4   26.17    0.76 
   0  -4   4   26.15    0.96 
   0  -4   4   24.36    1.07 
  -1   4  -4   54.21    1.67 
   1  -4   4   51.78    1.75 
   1  -4   4   51.57    1.59 
  -2   4  -4    0.27    0.12 
  -2   4  -4    0.19    0.14 
   2  -4   4    0.22    0.14 
  -3   4  -4    0.33    0.15 
  -3   4  -4    0.30    0.13 
   3  -4   4    0.36    0.17 
  -4   4  -4    0.52    0.17 
  -4   4  -4    0.34    0.17 
   4  -4   4    0.40    0.22 
  -5   4  -4   10.37    0.76 
   5  -4   4   11.37    0.84 
  -6   4  -4    0.76    0.29 
   6  -4   4    0.42    0.25 
   7   3  -4    5.25    0.76 
  -7  -3   4    5.33    0.68 
   6   3  -4    8.52    0.86 
  -6  -3   4    5.69    0.64 
   5   3  -4    6.87    0.71 
  -5  -3   4    5.97    0.59 
   4   3  -4   73.43    2.30 
   4   3  -4   74.29    2.09 
  -4  -3   4   75.34    2.21 
  -4  -3   4   74.09    2.16 
   3   3  -4   97.82    2.61 
   3   3  -4   93.73    2.48 
  -3  -3   4   92.49    2.52 
  -3  -3   4   95.19    2.56 
   2   3  -4  100.65    2.52 
   2   3  -4   96.74    2.55 
  -2  -3   4   99.14    2.58 
  -2  -3   4  100.10    2.60 
   1   3  -4   17.69    0.64 
   1   3  -4   19.13    0.83 
  -1  -3   4   17.24    0.77 
  -1  -3   4   19.05    0.78 
   0   3  -4   36.10    0.85 
   0   3  -4   35.85    1.23 
   0  -3   4   33.84    1.23 
   0  -3   4   36.25    1.18 
  -1   3  -4    2.92    0.37 
   1  -3   4    3.10    0.38 
   1  -3   4    3.42    0.36 
  -2   3  -4    5.26    0.42 
  -2   3  -4    4.72    0.40 
   2  -3   4    5.69    0.46 
   2  -3   4    5.70    0.44 
  -3   3  -4  118.12    2.94 
  -3   3  -4  120.45    3.12 
   3  -3   4  117.60    3.32 
  -4   3  -4    0.28    0.15 
  -4   3  -4    0.43    0.18 
   4  -3   4    0.56    0.21 
  -5   3  -4   29.51    1.34 
   5  -3   4   27.37    1.39 
  -6   3  -4    5.24    0.65 
   6  -3   4    3.70    0.60 
   7   2  -4   13.35    1.02 
  -7  -2   4   15.31    0.99 
   6   2  -4   21.37    1.20 
  -6  -2   4   19.26    1.05 
   5   2  -4    2.23    0.31 
   5   2  -4    2.61    0.44 
  -5  -2   4    1.83    0.34 
   4   2  -4   12.79    0.77 
   4   2  -4   12.28    0.63 
  -4  -2   4   13.85    0.74 
  -4  -2   4   12.42    0.59 
   3   2  -4    0.12    0.11 
   3   2  -4    0.18    0.17 
  -3  -2   4    0.02    0.09 
  -3  -2   4    0.26    0.12 
   2   2  -4    1.42    0.24 
   2   2  -4    2.13    0.28 
  -2  -2   4    1.63    0.26 
  -2  -2   4    1.69    0.21 
   1   2  -4  162.17    3.77 
   1   2  -4  169.21    3.63 
  -1  -2   4  166.29    3.85 
  -1  -2   4  164.70    3.86 
   0   2  -4    1.31    0.11 
   0   2  -4    1.79    0.26 
   0  -2   4    1.40    0.22 
   0  -2   4    1.54    0.24 
  -1   2  -4   86.56    2.19 
   1  -2   4   85.85    2.27 
   1  -2   4   84.67    2.33 
  -2   2  -4   59.48    1.78 
  -2   2  -4   61.26    1.69 
   2  -2   4   61.51    1.42 
   2  -2   4   60.44    1.87 
  -3   2  -4    4.70    0.36 
  -3   2  -4    4.29    0.46 
   3  -2   4    4.41    0.31 
   3  -2   4    4.66    0.52 
  -4   2  -4   11.05    0.71 
   4  -2   4   11.69    0.79 
  -5   2  -4   11.98    0.82 
   5  -2   4   12.78    0.90 
  -6   2  -4    5.76    0.68 
   6  -2   4    5.02    0.70 
   7   1  -4    1.07    0.37 
  -7  -1   4    0.43    0.21 
   6   1  -4   -0.03    0.16 
  -6  -1   4    0.13    0.15 
   5   1  -4    0.04    0.19 
   5   1  -4   -0.07    0.12 
  -5  -1   4    0.04    0.09 
   4   1  -4   35.82    1.37 
  -4  -1   4   33.10    0.98 
  -4  -1   4   35.37    1.28 
   3   1  -4  278.54    6.18 
   3   1  -4  275.16    5.96 
  -3  -1   4  274.18    5.95 
   2   1  -4   15.80    0.66 
   2   1  -4   14.43    0.65 
  -2  -1   4   16.12    0.50 
  -2  -1   4   15.25    0.68 
   1   1  -4   85.44    2.01 
   1   1  -4   85.55    2.14 
  -1  -1   4   83.06    2.17 
  -1  -1   4   85.01    2.05 
   0   1  -4  506.57   10.24 
   0   1  -4  511.55   10.33 
   0  -1   4  486.77   10.54 
  -1   1  -4   69.59    1.76 
   1  -1   4   62.26    1.86 
   1  -1   4   66.54    1.87 
   1  -1   4   69.63    1.61 
  -2   1  -4   71.09    2.02 
  -2   1  -4   72.23    1.85 
   2  -1   4   73.08    1.80 
   2  -1   4   70.76    2.12 
  -3   1  -4  123.40    2.86 
  -3   1  -4  122.73    3.21 
   3  -1   4  124.45    3.00 
   3  -1   4  125.07    3.39 
  -4   1  -4   15.95    0.87 
   4  -1   4   14.04    0.88 
   4  -1   4   16.73    0.80 
  -5   1  -4   75.11    2.44 
   5  -1   4   71.63    2.55 
  -6   1  -4    0.59    0.25 
   6  -1   4    1.21    0.37 
   8   0  -4    2.17    0.49 
  -8   0   4    1.79    0.43 
   7   0  -4    3.86    0.65 
  -7   0   4    4.16    0.60 
   6   0  -4   31.75    1.52 
  -6   0   4   33.64    1.42 
   5   0  -4   19.04    1.03 
  -5   0   4   15.94    0.85 
  -5   0   4   14.37    0.74 
   4   0  -4    2.08    0.37 
  -4   0   4    2.50    0.33 
  -4   0   4    2.29    0.33 
   3   0  -4   20.54    0.89 
  -3   0   4   20.78    0.87 
  -3   0   4   22.41    0.85 
   2   0  -4  119.63    2.87 
  -2   0   4  120.84    2.84 
  -2   0   4  114.58    2.86 
   1   0  -4  175.87    3.85 
  -1   0   4  169.71    3.87 
  -1   0   4  169.31    3.94 
  -1   0   4  174.96    3.85 
   0   0   4  166.79    3.87 
   0   0   4  173.15    3.78 
   0   0   4  168.81    3.92 
   0   0   4  168.76    3.79 
  -1   0  -4   88.74    2.14 
   1   0   4   88.39    2.18 
   1   0   4   86.78    2.33 
   1   0   4   84.16    2.26 
  -2   0  -4   42.70    1.22 
  -2   0  -4   43.04    1.40 
   2   0   4   42.06    1.47 
   2   0   4   42.82    1.32 
  -3   0  -4   27.00    1.11 
   3   0   4   26.97    1.19 
   3   0   4   26.29    1.06 
  -4   0  -4   18.10    0.94 
   4   0   4   17.17    0.90 
   4   0   4   18.80    1.04 
  -5   0  -4    6.99    0.70 
   5   0   4    7.75    0.70 
  -6   0  -4    0.89    0.30 
   6   0   4    1.04    0.33 
   8  -1  -4   11.20    1.12 
  -8   1   4   11.87    0.92 
   7  -1  -4    9.24    0.96 
  -7   1   4    9.90    0.77 
   6  -1  -4   17.23    1.08 
  -6   1   4   15.15    0.90 
  -6   1   4   16.64    0.83 
   5  -1  -4    1.84    0.38 
  -5   1   4    1.57    0.31 
  -5   1   4    1.89    0.31 
   4  -1  -4  112.48    3.03 
  -4   1   4  109.96    2.88 
  -4   1   4  108.55    2.82 
   3  -1  -4  150.38    3.68 
  -3   1   4  148.97    3.60 
  -3   1   4  151.17    3.57 
   2  -1  -4  193.78    4.29 
   2  -1  -4  202.82    4.53 
  -2   1   4  195.17    4.47 
  -2   1   4  200.94    4.47 
   1  -1  -4   52.16    1.48 
  -1   1   4   51.77    1.38 
  -1   1   4   50.51    1.48 
  -1   1   4   50.44    1.44 
   0   1   4   10.69    0.53 
   0   1   4   12.41    0.57 
   0   1   4   11.92    0.60 
   1   1   4    1.33    0.23 
   1   1   4    1.56    0.23 
   1   1   4    1.21    0.24 
   1   1   4    1.30    0.24 
  -2  -1  -4   68.43    1.72 
  -2  -1  -4   68.11    1.94 
   2   1   4   65.26    1.97 
   2   1   4   67.17    2.10 
  -3  -1  -4  111.77    3.02 
   3   1   4  116.19    3.10 
   3   1   4  115.09    3.27 
  -4  -1  -4    0.21    0.15 
   4   1   4    0.15    0.15 
   4   1   4    0.22    0.18 
  -5  -1  -4   23.80    1.23 
   5   1   4   25.89    1.30 
   5   1   4   24.13    1.34 
  -6  -1  -4    4.03    0.60 
   6   1   4    3.39    0.57 
   6   1   4    3.10    0.55 
   7  -2  -4    0.39    0.27 
  -7   2   4    0.12    0.18 
   6  -2  -4   79.80    2.72 
  -6   2   4   80.52    2.40 
  -6   2   4   81.51    2.51 
   5  -2  -4    0.46    0.21 
  -5   2   4    0.09    0.11 
  -5   2   4    0.01    0.12 
   4  -2  -4   51.17    1.80 
  -4   2   4   52.74    1.70 
  -4   2   4   54.95    1.67 
   3  -2  -4   34.52    1.26 
  -3   2   4   32.10    1.19 
   2  -2  -4    2.08    0.22 
   2  -2  -4    1.88    0.31 
  -2   2   4    1.58    0.23 
  -2   2   4    2.09    0.30 
   1  -2  -4   14.40    0.63 
   1  -2  -4   15.08    0.73 
  -1   2   4   13.28    0.59 
  -1   2   4   13.36    0.66 
   0  -2  -4  119.72    3.10 
   0   2   4  122.69    2.88 
   0   2   4  118.79    2.91 
   0   2   4  117.55    3.07 
  -1  -2  -4  127.55    3.08 
   1   2   4  124.94    3.02 
   1   2   4  126.96    3.35 
   1   2   4  128.83    3.31 
  -2  -2  -4   10.85    0.63 
   2   2   4   13.19    0.59 
   2   2   4   11.90    0.73 
   2   2   4   13.18    0.79 
  -3  -2  -4    2.00    0.35 
   3   2   4    1.68    0.34 
   3   2   4    2.06    0.38 
  -4  -2  -4    0.31    0.20 
   4   2   4    0.16    0.18 
   4   2   4    0.36    0.19 
  -5  -2  -4    1.41    0.36 
   5   2   4    2.08    0.45 
   5   2   4    2.09    0.45 
   7  -3  -4    0.28    0.29 
  -7   3   4    0.66    0.27 
   6  -3  -4    0.09    0.21 
  -6   3   4    0.27    0.18 
  -6   3   4   -0.16    0.13 
   5  -3  -4    0.57    0.23 
  -5   3   4    0.57    0.23 
  -5   3   4    0.67    0.21 
   4  -3  -4   19.14    0.99 
  -4   3   4   17.17    0.81 
  -4   3   4   18.64    0.92 
   3  -3  -4   50.48    1.72 
  -3   3   4   47.07    1.46 
  -3   3   4   50.32    1.64 
   2  -3  -4   59.13    1.89 
   2  -3  -4   61.53    1.73 
  -2   3   4   60.05    1.84 
  -2   3   4   59.49    1.62 
   1  -3  -4   30.72    1.14 
  -1   3   4   29.69    1.12 
  -1   3   4   29.85    0.95 
  -1   3   4   29.98    1.23 
   0  -3  -4    0.64    0.16 
   0  -3  -4    0.38    0.15 
   0   3   4    0.51    0.18 
   0   3   4    0.66    0.19 
  -1  -3  -4    9.42    0.52 
  -1  -3  -4    8.76    0.65 
   1   3   4    9.79    0.70 
   1   3   4    8.60    0.54 
  -2  -3  -4    2.50    0.44 
   2   3   4    2.47    0.42 
  -3  -3  -4   21.68    1.26 
   3   3   4   24.34    1.25 
  -4  -3  -4    3.22    0.59 
   4   3   4    2.67    0.50 
   7  -4  -4    0.27    0.28 
  -7   4   4    0.46    0.27 
   6  -4  -4   48.53    2.05 
  -6   4   4   50.08    1.86 
   5  -4  -4    1.54    0.37 
  -5   4   4    1.12    0.30 
   4  -4  -4   29.75    1.33 
  -4   4   4   28.26    1.27 
   3  -4  -4   12.12    0.79 
  -3   4   4   10.67    0.71 
   2  -4  -4    0.20    0.16 
   2  -4  -4    0.20    0.14 
  -2   4   4    0.30    0.16 
   1  -4  -4    4.13    0.46 
  -1   4   4    3.23    0.49 
  -1   4   4    4.07    0.47 
   0  -4  -4   26.22    1.22 
   0   4   4   26.73    1.28 
   0   4   4   30.12    1.16 
  -1  -4  -4   84.10    2.68 
   1   4   4   77.18    2.59 
   1   4   4   80.80    2.26 
  -2  -4  -4    7.85    0.80 
   2   4   4    7.82    0.80 
  -3  -4  -4   10.87    0.89 
   3   4   4   10.42    0.86 
  -4  -4  -4    9.21    1.00 
   4   4   4   12.12    0.96 
   6  -5  -4    2.46    0.50 
  -6   5   4    1.59    0.38 
   5  -5  -4    0.48    0.24 
  -5   5   4    0.25    0.20 
   4  -5  -4    2.67    0.49 
  -4   5   4    2.49    0.46 
   3  -5  -4    7.56    0.76 
  -3   5   4    9.21    0.70 
   2  -5  -4   35.20    1.52 
   2  -5  -4   34.32    1.41 
  -2   5   4   35.90    1.46 
   1  -5  -4   38.72    1.58 
  -1   5   4   41.82    1.57 
  -1   5   4   38.30    1.68 
   0  -5  -4    1.20    0.31 
   0   5   4    1.74    0.39 
   0   5   4    2.24    0.38 
  -1  -5  -4    0.38    0.20 
   1   5   4    0.40    0.24 
  -2  -5  -4   11.65    0.94 
   2   5   4   11.17    0.93 
   5  -6  -4    1.11    0.37 
  -5   6   4    0.28    0.23 
   4  -6  -4   28.47    1.49 
  -4   6   4   31.70    1.51 
   3  -6  -4   22.92    1.30 
  -3   6   4   24.21    1.27 
   2  -6  -4   12.33    0.91 
  -2   6   4   12.08    0.86 
   1  -6  -4    0.51    0.27 
   1  -6  -4    0.35    0.22 
  -1   6   4    0.27    0.19 
  -1   6   4    0.50    0.24 
   0  -6  -4   22.34    1.31 
   0   6   4   24.37    1.41 
   0   6   4   23.95    1.19 
  -1  -6  -4   16.71    1.15 
   1   6   4   17.74    1.18 
   1   8  -5   12.48    0.91 
  -1  -8   5   12.66    0.99 
   0   8  -5    0.16    0.20 
   0  -8   5    0.03    0.20 
  -1   8  -5    0.44    0.25 
   1  -8   5   -0.24    0.19 
  -2   8  -5    6.11    0.76 
   2  -8   5    4.99    0.73 
  -3   8  -5    7.39    0.81 
   3  -8   5    6.38    0.84 
   3   7  -5    2.46    0.43 
  -3  -7   5    1.76    0.42 
   2   7  -5    2.56    0.45 
  -2  -7   5    4.00    0.61 
   1   7  -5   14.54    0.93 
  -1  -7   5   14.13    0.99 
   0   7  -5   11.42    0.81 
   0  -7   5   11.54    0.88 
  -1   7  -5   17.49    1.03 
   1  -7   5   16.38    1.06 
  -2   7  -5    8.02    0.68 
   2  -7   5    8.43    0.75 
  -3   7  -5   11.36    0.82 
   3  -7   5   10.34    0.87 
  -4   7  -5    0.51    0.27 
   4  -7   5    0.07    0.19 
   4   6  -5   14.30    0.98 
  -4  -6   5   17.68    1.08 
   3   6  -5   15.15    0.91 
  -3  -6   5   16.56    1.02 
   2   6  -5   21.26    1.10 
  -2  -6   5   20.46    1.13 
   1   6  -5   32.79    1.43 
  -1  -6   5   35.13    1.51 
  -1  -6   5   33.00    1.25 
   0   6  -5   11.29    0.77 
   0  -6   5   11.55    0.66 
   0  -6   5   11.93    0.83 
  -1   6  -5    2.83    0.47 
   1  -6   5    3.50    0.54 
   1  -6   5    3.40    0.41 
  -2   6  -5    1.12    0.25 
  -2   6  -5    1.33    0.33 
   2  -6   5    1.35    0.33 
  -3   6  -5   24.90    1.21 
  -3   6  -5   26.67    1.17 
   3  -6   5   25.82    1.36 
  -4   6  -5    0.50    0.23 
  -4   6  -5    0.50    0.23 
   4  -6   5    1.08    0.34 
  -5   6  -5   19.26    1.11 
   5  -6   5   19.04    1.25 
   5   5  -5   13.05    0.95 
  -5  -5   5   13.24    0.86 
   4   5  -5    3.94    0.49 
   4   5  -5    3.17    0.51 
  -4  -5   5    3.54    0.48 
   3   5  -5    6.68    0.55 
   3   5  -5    5.54    0.57 
  -3  -5   5    4.97    0.53 
  -3  -5   5    6.09    0.54 
   2   5  -5    1.10    0.28 
   2   5  -5    0.93    0.25 
  -2  -5   5    0.96    0.23 
  -2  -5   5    1.11    0.28 
   1   5  -5   41.63    1.57 
  -1  -5   5   42.68    1.61 
  -1  -5   5   43.00    1.46 
   0   5  -5    0.66    0.22 
   0  -5   5    0.51    0.16 
   0  -5   5    0.40    0.19 
  -1   5  -5   68.88    2.18 
   1  -5   5   67.44    2.04 
   1  -5   5   67.43    2.24 
  -2   5  -5    0.26    0.15 
  -2   5  -5    0.12    0.14 
   2  -5   5    0.28    0.18 
  -3   5  -5    9.56    0.67 
  -3   5  -5    8.42    0.63 
   3  -5   5    9.05    0.73 
  -4   5  -5    0.30    0.19 
  -4   5  -5    0.25    0.19 
   4  -5   5    0.26    0.16 
  -5   5  -5    3.16    0.50 
   5  -5   5    1.93    0.45 
   6   4  -5    1.22    0.36 
  -6  -4   5    1.95    0.42 
   5   4  -5    0.45    0.23 
  -5  -4   5    0.43    0.20 
   4   4  -5   25.51    1.23 
  -4  -4   5   28.41    1.23 
  -4  -4   5   29.99    1.21 
   3   4  -5   94.13    2.67 
   3   4  -5   94.56    2.66 
  -3  -4   5   98.38    2.72 
  -3  -4   5   95.39    2.71 
   2   4  -5    1.07    0.24 
   2   4  -5    1.06    0.28 
  -2  -4   5    1.07    0.24 
   1   4  -5  149.55    3.67 
   1   4  -5  146.20    3.27 
  -1  -4   5  145.14    3.57 
  -1  -4   5  134.27    3.68 
   0   4  -5   11.01    0.71 
   0  -4   5   13.67    0.70 
   0  -4   5   12.64    0.73 
  -1   4  -5   10.14    0.65 
   1  -4   5   10.72    0.69 
   1  -4   5   10.78    0.64 
  -2   4  -5   10.67    0.66 
   2  -4   5   10.18    0.65 
   2  -4   5   10.77    0.73 
  -3   4  -5   23.31    1.07 
  -3   4  -5   21.50    1.00 
   3  -4   5   23.53    1.17 
  -4   4  -5   34.68    1.47 
  -4   4  -5   35.14    1.29 
   4  -4   5   34.27    1.58 
  -5   4  -5   66.78    2.33 
   5  -4   5   65.04    2.51 
  -6   4  -5    7.25    0.81 
   6  -4   5    5.79    0.79 
   7   3  -5   12.37    1.00 
  -7  -3   5   12.89    0.94 
   6   3  -5   23.22    1.31 
  -6  -3   5   24.26    1.24 
   5   3  -5   56.36    1.75 
   5   3  -5   51.39    1.95 
  -5  -3   5   50.64    1.87 
   4   3  -5    0.21    0.16 
   4   3  -5    0.25    0.14 
  -4  -3   5    0.24    0.15 
   3   3  -5   50.70    1.66 
   3   3  -5   52.63    1.66 
  -3  -3   5   51.59    1.70 
  -3  -3   5   51.46    1.58 
   2   3  -5   16.11    0.80 
   2   3  -5   16.67    0.72 
  -2  -3   5   16.14    0.79 
  -2  -3   5   16.02    0.73 
   1   3  -5    4.39    0.30 
   1   3  -5    4.55    0.45 
  -1  -3   5    4.59    0.44 
  -1  -3   5    3.74    0.39 
   0   3  -5   29.62    1.12 
   0  -3   5   25.79    1.05 
   0  -3   5   26.53    1.05 
  -1   3  -5   65.51    1.96 
   1  -3   5   68.24    2.07 
   1  -3   5   66.56    1.99 
  -2   3  -5   49.48    1.59 
   2  -3   5   49.73    1.73 
   2  -3   5   49.36    1.67 
  -3   3  -5   73.66    2.22 
  -3   3  -5   69.10    2.02 
   3  -3   5   68.62    2.32 
  -4   3  -5    3.18    0.48 
   4  -3   5    2.32    0.45 
  -5   3  -5    3.33    0.53 
   5  -3   5    2.97    0.53 
  -6   3  -5    2.03    0.43 
   6  -3   5    1.81    0.43 
   7   2  -5   43.03    1.94 
  -7  -2   5   39.81    1.78 
   6   2  -5    1.05    0.34 
  -6  -2   5    0.81    0.27 
   5   2  -5    6.97    0.70 
   5   2  -5    8.58    0.55 
  -5  -2   5    8.67    0.65 
   4   2  -5   94.32    2.72 
   4   2  -5   95.76    2.55 
  -4  -2   5   95.39    2.72 
   3   2  -5   52.34    1.63 
   3   2  -5   52.51    1.66 
  -3  -2   5   52.34    1.70 
  -3  -2   5   53.26    1.45 
   2   2  -5   70.69    2.01 
   2   2  -5   75.50    1.94 
  -2  -2   5   65.32    2.02 
  -2  -2   5   74.21    1.89 
   1   2  -5  194.37    4.20 
   1   2  -5  191.67    4.42 
  -1  -2   5  193.81    4.52 
  -1  -2   5  193.07    4.48 
   0   2  -5    7.69    0.50 
   0   2  -5    7.34    0.29 
   0  -2   5    6.61    0.47 
   0  -2   5    6.43    0.44 
  -1   2  -5   75.29    2.06 
   1  -2   5   70.58    2.12 
   1  -2   5   75.13    2.14 
  -2   2  -5    5.31    0.44 
   2  -2   5    5.41    0.46 
   2  -2   5    5.71    0.48 
  -3   2  -5   27.34    1.18 
  -3   2  -5   26.62    1.02 
   3  -2   5   29.89    1.30 
  -4   2  -5   25.78    1.23 
   4  -2   5   26.65    1.32 
  -5   2  -5   32.92    1.49 
   5  -2   5   31.52    1.58 
  -6   2  -5    1.17    0.32 
   6  -2   5    1.04    0.34 
   7   1  -5    0.44    0.28 
  -7  -1   5    0.06    0.14 
   6   1  -5   54.62    2.13 
  -6  -1   5   52.22    1.96 
   5   1  -5   22.92    1.16 
  -5  -1   5   20.46    1.04 
   4   1  -5   36.63    1.44 
  -4  -1   5   40.12    1.46 
   3   1  -5  106.26    2.74 
   3   1  -5  108.42    2.83 
  -3  -1   5  107.67    2.84 
   2   1  -5    8.05    0.51 
   2   1  -5    7.78    0.47 
  -2  -1   5    7.54    0.33 
  -2  -1   5    8.38    0.53 
   1   1  -5    1.63    0.22 
   1   1  -5    1.27    0.25 
  -1  -1   5    1.46    0.19 
  -1  -1   5    2.99    0.35 
   0   1  -5   12.84    0.51 
   0   1  -5   13.64    0.66 
   0  -1   5   14.27    0.69 
   0  -1   5   13.81    0.63 
  -1   1  -5   21.48    0.85 
   1  -1   5   19.20    0.88 
   1  -1   5   20.55    0.91 
   1  -1   5   21.14    0.71 
  -2   1  -5  107.69    2.65 
  -2   1  -5  109.15    2.87 
   2  -1   5  105.76    2.97 
   2  -1   5  104.99    2.57 
  -3   1  -5   57.90    1.91 
   3  -1   5   56.19    1.67 
   3  -1   5   59.67    2.04 
  -4   1  -5    5.67    0.61 
   4  -1   5    4.51    0.60 
  -5   1  -5   11.46    0.84 
   5  -1   5   11.35    0.89 
  -6   1  -5    2.53    0.46 
   6  -1   5    2.78    0.55 
   7   0  -5   35.72    1.79 
  -7   0   5   37.35    1.65 
   6   0  -5    7.75    0.54 
   6   0  -5    6.86    0.78 
  -6   0   5    7.39    0.63 
   5   0  -5    8.53    0.69 
  -5   0   5    8.51    0.63 
  -5   0   5    9.97    0.63 
   4   0  -5   60.00    1.98 
  -4   0   5   61.17    1.86 
  -4   0   5   62.25    1.95 
   3   0  -5   88.86    2.45 
  -3   0   5   88.28    2.43 
  -3   0   5   88.53    2.39 
   2   0  -5   38.65    1.26 
  -2   0   5   36.90    1.28 
  -2   0   5   39.18    0.98 
  -2   0   5   39.74    1.31 
   1   0  -5   21.02    0.81 
  -1   0   5   22.34    0.76 
  -1   0   5   21.48    0.89 
  -1   0   5   21.77    0.88 
   0   0  -5    6.57    0.41 
   0   0  -5    6.13    0.42 
   0   0   5    7.09    0.44 
   0   0   5    6.98    0.46 
   0   0   5    7.07    0.47 
  -1   0  -5   55.23    1.58 
   1   0   5   55.38    1.70 
   1   0   5   52.34    1.70 
   1   0   5   52.92    1.55 
  -2   0  -5    3.73    0.43 
  -2   0  -5    2.96    0.33 
   2   0   5    3.47    0.37 
   2   0   5    2.97    0.42 
  -3   0  -5   38.86    1.49 
   3   0   5   43.36    1.46 
   3   0   5   41.36    1.65 
  -4   0  -5    2.74    0.45 
   4   0   5    3.13    0.52 
   4   0   5    2.89    0.44 
  -5   0  -5   36.37    1.62 
   5   0   5   37.24    1.75 
   7  -1  -5    0.20    0.24 
  -7   1   5    0.11    0.20 
   6  -1  -5   55.96    2.15 
  -6   1   5   54.52    1.97 
  -6   1   5   52.14    1.80 
   5  -1  -5   19.54    1.09 
  -5   1   5   18.56    0.96 
  -5   1   5   20.36    0.96 
   4  -1  -5   43.59    1.60 
  -4   1   5   42.14    1.50 
  -4   1   5   42.73    1.48 
   3  -1  -5   22.96    1.01 
  -3   1   5   26.63    1.02 
  -3   1   5   22.56    0.97 
   2  -1  -5   11.89    0.44 
   2  -1  -5   11.04    0.63 
  -2   1   5   11.11    0.62 
  -2   1   5   10.82    0.60 
   1  -1  -5    1.41    0.25 
  -1   1   5    1.37    0.25 
  -1   1   5    1.48    0.26 
  -1   1   5    1.66    0.23 
   0   1   5   30.23    1.08 
   0   1   5   28.43    1.04 
   0   1   5   27.14    1.06 
   0   1   5   29.27    1.07 
   1   1   5  143.71    3.66 
   1   1   5  155.27    3.85 
   1   1   5  147.82    3.66 
   1   1   5  149.95    3.54 
  -2  -1  -5    5.30    0.40 
  -2  -1  -5    4.69    0.47 
   2   1   5    4.83    0.49 
   2   1   5    4.96    0.55 
  -3  -1  -5   71.18    2.21 
   3   1   5   70.17    2.23 
   3   1   5   70.74    2.40 
  -4  -1  -5    0.69    0.24 
   4   1   5    1.10    0.29 
   4   1   5    0.46    0.26 
  -5  -1  -5   34.01    1.52 
   5   1   5   31.22    1.66 
   7  -2  -5   16.12    1.15 
  -7   2   5   17.53    1.07 
   6  -2  -5   10.00    0.83 
  -6   2   5    9.44    0.72 
  -6   2   5    9.70    0.70 
   5  -2  -5    0.72    0.28 
  -5   2   5    0.83    0.25 
  -5   2   5    0.69    0.23 
   4  -2  -5    3.30    0.49 
  -4   2   5    3.14    0.43 
  -4   2   5    3.92    0.43 
   3  -2  -5   76.83    2.27 
  -3   2   5   73.54    2.19 
   2  -2  -5   64.08    1.98 
   2  -2  -5   62.80    1.70 
  -2   2   5   68.37    1.96 
  -2   2   5   63.83    1.84 
   1  -2  -5  162.49    3.94 
   1  -2  -5  166.68    4.03 
  -1   2   5  165.32    3.92 
  -1   2   5  156.75    3.81 
   0  -2  -5   24.24    1.05 
   0   2   5   24.00    0.94 
   0   2   5   23.83    0.97 
   0   2   5   23.29    1.06 
  -1  -2  -5   37.60    1.35 
   1   2   5   44.25    1.39 
   1   2   5   46.59    1.63 
   1   2   5   44.33    1.60 
  -2  -2  -5    3.05    0.40 
   2   2   5    3.30    0.50 
   2   2   5    3.75    0.50 
  -3  -2  -5    2.81    0.42 
   3   2   5    2.30    0.46 
   3   2   5    3.32    0.52 
  -4  -2  -5   20.92    1.12 
   4   2   5   25.55    1.32 
   4   2   5   22.66    1.33 
   7  -3  -5    0.09    0.25 
  -7   3   5   -0.15    0.20 
  -7   3   5    0.11    0.23 
   6  -3  -5   29.02    1.50 
  -6   3   5   30.23    1.37 
  -6   3   5   29.31    1.32 
   5  -3  -5   26.59    1.34 
  -5   3   5   28.35    1.29 
   4  -3  -5   54.98    2.00 
  -4   3   5   57.27    1.78 
  -4   3   5   58.28    1.96 
   3  -3  -5  160.60    4.16 
  -3   3   5  158.87    3.85 
  -3   3   5  160.42    4.05 
   2  -3  -5    7.66    0.58 
  -2   3   5    6.75    0.53 
  -2   3   5    6.78    0.44 
   1  -3  -5    7.85    0.56 
   1  -3  -5    9.12    0.66 
  -1   3   5    9.18    0.61 
  -1   3   5    9.39    0.53 
   0  -3  -5   18.33    0.93 
   0   3   5   15.80    0.81 
   0   3   5   19.21    1.02 
  -1  -3  -5    3.10    0.47 
   1   3   5    2.99    0.49 
   1   3   5    3.46    0.41 
  -2  -3  -5   50.76    2.06 
   2   3   5   54.66    2.06 
  -3  -3  -5   52.56    2.24 
   3   3   5   57.26    2.17 
  -4  -3  -5    0.35    0.22 
   4   3   5    0.98    0.33 
   6  -4  -5   15.41    1.09 
  -6   4   5   15.75    1.01 
   5  -4  -5   27.76    1.42 
  -5   4   5   26.01    1.29 
   4  -4  -5    1.01    0.31 
  -4   4   5    1.64    0.35 
   3  -4  -5    4.78    0.61 
  -3   4   5    5.46    0.60 
   2  -4  -5   33.25    1.44 
  -2   4   5   33.08    1.36 
   1  -4  -5    6.44    0.54 
   1  -4  -5    5.03    0.62 
  -1   4   5    6.55    0.54 
   0  -4  -5   18.71    1.03 
   0   4   5   18.37    1.09 
   0   4   5   19.66    0.97 
  -1  -4  -5   30.99    1.50 
   1   4   5   32.59    1.53 
  -2  -4  -5    0.57    0.25 
   2   4   5    0.68    0.28 
  -3  -4  -5    0.16    0.20 
   3   4   5    0.61    0.28 
   6  -5  -5   14.30    1.06 
  -6   5   5   14.84    1.01 
   5  -5  -5    2.24    0.50 
  -5   5   5    1.96    0.41 
   4  -5  -5   38.41    1.73 
  -4   5   5   38.34    1.66 
   3  -5  -5   33.45    1.58 
  -3   5   5   35.09    1.52 
   2  -5  -5    3.47    0.55 
  -2   5   5    4.20    0.57 
   1  -5  -5    3.26    0.50 
   1  -5  -5    2.33    0.46 
  -1   5   5    3.90    0.53 
   0  -5  -5    8.23    0.71 
   0   5   5    9.41    0.70 
   0   5   5    8.27    0.88 
  -1  -5  -5   13.06    0.99 
   1   5   5   14.22    1.04 
   4  -6  -5    0.78    0.32 
  -4   6   5    0.41    0.24 
   3  -6  -5    4.47    0.68 
  -3   6   5    3.75    0.58 
   2  -6  -5   13.18    0.98 
  -2   6   5   15.72    1.01 
   1  -6  -5    8.23    0.90 
  -1   6   5    7.70    0.77 
   1   8  -6    0.68    0.27 
  -1  -8   6    0.36    0.26 
   0   8  -6    0.02    0.20 
   0  -8   6    0.27    0.23 
  -1   8  -6    7.68    0.84 
   1  -8   6    8.11    0.93 
  -2   8  -6    1.20    0.32 
   2  -8   6    1.45    0.42 
   3   7  -6    6.09    0.74 
  -3  -7   6    6.89    0.80 
   2   7  -6    2.92    0.51 
  -2  -7   6    3.22    0.53 
   1   7  -6   25.87    1.35 
  -1  -7   6   24.88    1.37 
   0   7  -6    0.61    0.25 
   0  -7   6    0.70    0.27 
  -1   7  -6   29.15    1.48 
   1  -7   6   32.84    1.60 
  -2   7  -6    3.70    0.55 
   2  -7   6    3.14    0.54 
  -3   7  -6    1.36    0.34 
   3  -7   6    1.83    0.46 
   4   6  -6    3.45    0.54 
   3   6  -6   19.61    1.10 
  -3  -6   6   21.83    1.18 
  -3  -6   6   19.63    1.05 
   2   6  -6    3.26    0.51 
  -2  -6   6    3.67    0.48 
  -2  -6   6    4.16    0.58 
   1   6  -6    7.00    0.72 
  -1  -6   6    5.86    0.58 
  -1  -6   6    7.09    0.64 
   0   6  -6    6.33    0.70 
   0  -6   6    5.67    0.68 
   0  -6   6    5.76    0.50 
  -1   6  -6   11.44    0.81 
   1  -6   6   10.34    0.69 
   1  -6   6   10.36    0.80 
  -2   6  -6    0.13    0.17 
  -2   6  -6    0.21    0.16 
   2  -6   6    0.22    0.19 
  -3   6  -6   35.78    1.55 
  -3   6  -6   36.30    1.52 
   3  -6   6   38.17    1.76 
  -4   6  -6    0.33    0.22 
  -4   6  -6    0.48    0.25 
   4  -6   6    0.31    0.22 
   5   5  -6   18.08    1.12 
  -5  -5   6   18.68    1.07 
   4   5  -6    1.03    0.31 
   4   5  -6    1.01    0.28 
  -4  -5   6    0.83    0.27 
   3   5  -6    1.56    0.35 
  -3  -5   6    1.56    0.33 
  -3  -5   6    2.21    0.39 
   2   5  -6   23.28    1.15 
  -2  -5   6   22.51    1.07 
  -2  -5   6   24.08    1.13 
   1   5  -6   73.03    2.34 
  -1  -5   6   69.83    2.19 
  -1  -5   6   74.80    2.36 
   0   5  -6    0.74    0.24 
   0  -5   6    0.49    0.18 
   0  -5   6    1.31    0.30 
  -1   5  -6   64.55    2.15 
   1  -5   6   64.24    2.23 
   1  -5   6   64.37    2.08 
  -2   5  -6    0.77    0.26 
   2  -5   6    0.86    0.27 
   2  -5   6    0.61    0.22 
  -3   5  -6    6.10    0.64 
  -3   5  -6    7.02    0.60 
   3  -5   6    7.07    0.77 
  -4   5  -6    8.08    0.63 
  -4   5  -6    9.48    0.75 
   4  -5   6    8.28    0.89 
  -5   5  -6   23.45    1.29 
   5  -5   6   21.75    1.35 
   6   4  -6    2.07    0.45 
  -6  -4   6    2.43    0.46 
   5   4  -6   12.21    0.88 
  -5  -4   6   14.18    0.90 
   4   4  -6   10.24    0.72 
   4   4  -6   11.92    0.78 
  -4  -4   6   11.13    0.77 
   3   4  -6   73.71    2.19 
   3   4  -6   73.11    2.30 
  -3  -4   6   75.51    2.22 
  -3  -4   6   73.36    2.33 
   2   4  -6   20.54    1.03 
  -2  -4   6   21.31    0.97 
  -2  -4   6   20.87    1.01 
   1   4  -6   22.88    1.08 
  -1  -4   6   21.74    1.01 
  -1  -4   6   21.58    1.00 
   0   4  -6    0.89    0.27 
   0  -4   6    0.68    0.21 
   0  -4   6    1.03    0.26 
  -1   4  -6   24.73    1.15 
   1  -4   6   24.17    1.11 
   1  -4   6   25.48    1.16 
  -2   4  -6   29.59    1.25 
   2  -4   6   30.11    1.36 
   2  -4   6   30.02    1.29 
  -3   4  -6   46.46    1.68 
  -3   4  -6   48.09    1.78 
   3  -4   6   49.49    1.93 
  -4   4  -6    0.53    0.21 
   4  -4   6    0.38    0.23 
  -5   4  -6    7.46    0.79 
   5  -4   6    6.07    0.81 
   6   3  -6    5.83    0.73 
  -6  -3   6    5.95    0.71 
   5   3  -6   39.86    1.67 
  -5  -3   6   41.54    1.66 
   4   3  -6    0.33    0.17 
   4   3  -6    0.22    0.16 
  -4  -3   6    0.14    0.13 
   3   3  -6    0.44    0.20 
   3   3  -6    0.36    0.19 
  -3  -3   6    0.31    0.15 
   2   3  -6    6.98    0.53 
   2   3  -6    6.31    0.45 
  -2  -3   6    5.35    0.42 
  -2  -3   6    6.86    0.53 
   1   3  -6    1.26    0.28 
  -1  -3   6    1.84    0.31 
  -1  -3   6    1.64    0.28 
   0   3  -6   36.45    1.34 
   0  -3   6   37.49    1.35 
   0  -3   6   31.14    1.26 
  -1   3  -6   60.88    1.91 
   1  -3   6   58.99    1.93 
   1  -3   6   58.06    1.92 
  -2   3  -6    3.66    0.46 
   2  -3   6    3.82    0.49 
   2  -3   6    4.23    0.54 
  -3   3  -6    5.81    0.61 
  -3   3  -6    4.86    0.50 
   3  -3   6    5.29    0.65 
  -4   3  -6    1.65    0.36 
   4  -3   6    1.42    0.38 
  -5   3  -6   15.87    1.03 
   5  -3   6   13.48    1.04 
   7   2  -6    7.55    0.89 
  -7  -2   6    7.82    0.83 
   6   2  -6    3.89    0.62 
  -6  -2   6    3.26    0.53 
   5   2  -6    0.49    0.22 
   5   2  -6    0.16    0.16 
  -5  -2   6    0.31    0.18 
   4   2  -6    6.11    0.60 
   4   2  -6    6.33    0.51 
  -4  -2   6    6.29    0.54 
   3   2  -6   29.65    1.18 
   3   2  -6   29.34    1.18 
  -3  -2   6   30.71    1.26 
   2   2  -6   74.23    2.00 
   2   2  -6   76.37    2.18 
  -2  -2   6   72.52    2.20 
  -2  -2   6   71.70    1.93 
   1   2  -6   11.31    0.52 
   1   2  -6   10.99    0.66 
  -1  -2   6   11.42    0.58 
  -1  -2   6   12.23    0.69 
   0   2  -6   13.32    0.72 
   0  -2   6   12.36    0.71 
  -1   2  -6   15.15    0.78 
   1  -2   6   15.73    0.81 
   1  -2   6   13.14    0.78 
  -2   2  -6    5.84    0.47 
   2  -2   6    5.45    0.58 
   2  -2   6    5.20    0.56 
  -3   2  -6   54.80    1.94 
  -3   2  -6   56.54    1.75 
   3  -2   6   55.66    2.06 
  -4   2  -6    0.33    0.18 
   4  -2   6    0.16    0.18 
  -5   2  -6   61.84    2.33 
   5  -2   6   65.49    2.54 
   7   1  -6   21.84    1.38 
  -7  -1   6   21.75    1.25 
   6   1  -6    5.37    0.72 
  -6  -1   6    4.86    0.63 
   5   1  -6   19.14    0.95 
   5   1  -6   17.02    1.02 
  -5  -1   6   18.84    1.03 
   4   1  -6    0.84    0.22 
   4   1  -6    1.14    0.29 
  -4  -1   6    0.82    0.24 
   3   1  -6   12.87    0.72 
   3   1  -6   11.31    0.69 
  -3  -1   6   12.53    0.74 
   2   1  -6    8.96    0.57 
   2   1  -6    8.47    0.53 
  -2  -1   6    8.06    0.57 
   1   1  -6  106.24    2.59 
   1   1  -6  108.86    2.81 
  -1  -1   6  105.62    2.68 
  -1  -1   6  104.79    2.84 
   0   1  -6    8.77    0.56 
   0   1  -6    7.91    0.42 
   0  -1   6    7.21    0.49 
   0  -1   6    7.84    0.55 
  -1   1  -6  115.89    2.99 
   1  -1   6  117.61    3.15 
   1  -1   6  118.27    3.18 
  -2   1  -6    1.81    0.31 
  -2   1  -6    1.82    0.34 
   2  -1   6    1.85    0.37 
  -3   1  -6   26.41    1.23 
   3  -1   6   25.94    1.29 
  -4   1  -6   10.55    0.78 
   4  -1   6    9.98    0.83 
  -5   1  -6   10.19    0.82 
   5  -1   6   10.78    0.93 
   7   0  -6    5.93    0.82 
  -7   0   6    4.73    0.67 
   6   0  -6   20.07    1.00 
   6   0  -6   18.74    1.19 
  -6   0   6   21.28    1.17 
   5   0  -6    9.95    0.78 
  -5   0   6   10.77    0.75 
  -5   0   6   10.72    0.71 
   4   0  -6   15.62    0.89 
  -4   0   6   15.70    0.87 
  -4   0   6   15.96    0.86 
   3   0  -6  183.09    4.50 
  -3   0   6  184.55    4.54 
  -3   0   6  190.42    4.52 
   2   0  -6   77.78    2.19 
  -2   0   6   80.10    2.27 
  -2   0   6   78.53    2.29 
   1   0  -6  145.63    3.52 
  -1   0   6  151.05    3.64 
  -1   0   6  147.81    3.67 
  -1   0   6  144.91    3.52 
   0   0  -6    7.27    0.46 
   0   0  -6    7.73    0.52 
   0   0   6    7.73    0.51 
   0   0   6    7.82    0.55 
  -1   0  -6    7.66    0.52 
   1   0   6    6.64    0.53 
   1   0   6    8.08    0.52 
   1   0   6    8.05    0.58 
  -2   0  -6   49.74    1.61 
  -2   0  -6   58.27    1.86 
   2   0   6   51.48    1.89 
   2   0   6   53.14    1.69 
  -3   0  -6   47.29    1.78 
   3   0   6   51.38    1.95 
  -4   0  -6    0.08    0.16 
   4   0   6    0.24    0.21 
  -5   0  -6   48.07    2.01 
   5   0   6   52.14    2.24 
   7  -1  -6   37.47    1.90 
  -7   1   6   41.63    1.78 
   6  -1  -6   15.18    1.06 
  -6   1   6   14.99    0.91 
  -6   1   6   14.97    0.96 
   5  -1  -6   41.31    1.70 
  -5   1   6   42.42    1.61 
  -5   1   6   37.49    1.51 
   4  -1  -6   11.75    0.78 
  -4   1   6    9.61    0.67 
  -4   1   6   10.65    0.69 
   3  -1  -6   29.46    1.21 
  -3   1   6   29.03    1.17 
  -3   1   6   27.50    1.17 
   2  -1  -6   10.70    0.65 
  -2   1   6   11.75    0.69 
  -2   1   6   11.67    0.67 
   1  -1  -6   14.10    0.72 
  -1   1   6   11.95    0.68 
  -1   1   6   11.65    0.60 
  -1   1   6   12.46    0.70 
   0  -1  -6   25.10    1.04 
   0   1   6   24.18    1.04 
   0   1   6   22.85    1.01 
   0   1   6   26.55    1.06 
  -1  -1  -6   69.25    2.03 
   1   1   6   71.98    2.26 
   1   1   6   74.90    2.21 
  -2  -1  -6   13.18    0.77 
   2   1   6   13.73    0.80 
   2   1   6   12.27    0.83 
  -3  -1  -6   27.45    1.26 
   3   1   6   28.30    1.39 
   3   1   6   23.23    1.19 
  -4  -1  -6    6.16    0.69 
   4   1   6    6.06    0.79 
   7  -2  -6   11.30    1.09 
  -7   2   6   11.62    0.89 
  -7   2   6   11.61    0.85 
   6  -2  -6    3.04    0.57 
  -6   2   6    2.80    0.46 
  -6   2   6    2.76    0.48 
   5  -2  -6    5.67    0.69 
  -5   2   6    4.91    0.59 
  -5   2   6    6.43    0.55 
   4  -2  -6   34.44    1.50 
  -4   2   6   37.77    1.43 
  -4   2   6   36.02    1.46 
   3  -2  -6  108.36    3.03 
  -3   2   6  108.75    2.90 
  -3   2   6  103.35    2.96 
   2  -2  -6   22.53    1.07 
  -2   2   6   24.32    1.08 
  -2   2   6   23.06    0.99 
   1  -2  -6   50.45    1.63 
   1  -2  -6   50.71    1.73 
  -1   2   6   50.46    1.62 
  -1   2   6   51.94    1.70 
   0  -2  -6    4.41    0.50 
   0   2   6    5.08    0.44 
   0   2   6    5.44    0.57 
   0   2   6    5.42    0.51 
  -1  -2  -6   14.57    0.91 
  -1  -2  -6   14.71    0.78 
   1   2   6   15.35    0.89 
   1   2   6   14.77    0.78 
  -2  -2  -6   36.79    1.41 
   2   2   6   32.09    1.52 
   2   2   6   36.73    1.55 
  -3  -2  -6   17.98    1.00 
   3   2   6   18.37    1.17 
   3   2   6   19.20    1.12 
   4   2   6    0.25    0.25 
   4   2   6    0.47    0.27 
   6  -3  -6   27.07    1.50 
  -6   3   6   29.65    1.37 
  -6   3   6   29.92    1.44 
   5  -3  -6   39.63    1.74 
  -5   3   6   36.14    1.58 
   4  -3  -6    2.09    0.43 
  -4   3   6    2.17    0.42 
  -4   3   6    3.25    0.43 
   3  -3  -6    4.15    0.55 
  -3   3   6    2.68    0.38 
  -3   3   6    3.27    0.48 
   2  -3  -6    2.96    0.47 
  -2   3   6    3.05    0.45 
   1  -3  -6    7.23    0.61 
  -1   3   6    6.04    0.59 
   0  -3  -6   30.82    1.35 
   0   3   6   30.69    1.26 
   0   3   6   30.54    1.40 
  -1  -3  -6   46.58    1.89 
   1   3   6   46.65    1.62 
   1   3   6   46.19    1.85 
  -2  -3  -6   11.63    0.92 
   2   3   6    9.64    0.80 
  -3  -3  -6    9.96    1.02 
   3   3   6   10.95    0.92 
   6  -4  -6    8.73    0.95 
  -6   4   6    8.20    0.85 
   5  -4  -6    0.44    0.22 
  -5   4   6    0.21    0.19 
   4  -4  -6    2.61    0.48 
  -4   4   6    3.33    0.54 
   3  -4  -6   13.10    0.90 
  -3   4   6   11.77    0.83 
   2  -4  -6   25.43    1.29 
  -2   4   6   24.64    1.22 
   1  -4  -6   43.12    1.79 
  -1   4   6   42.16    1.65 
   0  -4  -6   -0.03    0.17 
   0   4   6    0.17    0.18 
   0   4   6    0.31    0.21 
  -1  -4  -6    0.77    0.31 
   1   4   6    0.81    0.29 
  -2  -4  -6    6.14    0.81 
   2   4   6    8.18    0.91 
   5  -5  -6    8.18    0.92 
  -5   5   6    9.35    0.94 
   4  -5  -6   12.46    0.95 
  -4   5   6   11.83    0.91 
   3  -5  -6    9.82    0.82 
  -3   5   6   10.23    0.82 
   2  -5  -6    5.18    0.70 
  -2   5   6    5.45    0.68 
   1  -5  -6    3.46    0.57 
  -1   5   6    3.45    0.53 
   0   5   6    9.56    0.74 
   0   5   6    8.33    0.93 
   2   7  -7    0.84    0.30 
  -2  -7   7    0.84    0.30 
   1   7  -7   28.59    1.46 
  -1  -7   7   26.30    1.40 
   0   7  -7    0.28    0.21 
   0  -7   7    0.48    0.25 
  -1   7  -7    4.26    0.64 
   1  -7   7    3.57    0.60 
  -2   7  -7    0.24    0.21 
   2  -7   7    0.49    0.24 
   4   6  -7    1.45    0.34 
  -4  -6   7    0.90    0.30 
   3   6  -7   22.82    1.25 
  -3  -6   7   25.30    1.26 
   2   6  -7    0.08    0.18 
  -2  -6   7    0.29    0.21 
  -2  -6   7    0.43    0.20 
   1   6  -7    3.96    0.57 
  -1  -6   7    3.29    0.49 
  -1  -6   7    4.27    0.59 
   0   6  -7    1.24    0.33 
   0  -6   7    1.35    0.34 
   0  -6   7    0.59    0.23 
  -1   6  -7   22.98    1.26 
   1  -6   7   23.64    1.28 
   1  -6   7   22.84    1.17 
  -2   6  -7    7.48    0.79 
  -2   6  -7    9.26    0.72 
   2  -6   7    8.23    0.88 
  -3   6  -7    0.54    0.26 
  -3   6  -7    0.80    0.27 
   3  -6   7    0.64    0.29 
  -5  -5   7    5.16    0.67 
   4   5  -7    0.69    0.30 
  -4  -5   7    0.33    0.21 
   3   5  -7    8.63    0.69 
  -3  -5   7    6.98    0.71 
   2   5  -7    0.40    0.21 
  -2  -5   7    0.10    0.16 
  -2  -5   7    0.21    0.18 
   1   5  -7   18.71    1.08 
  -1  -5   7   17.95    0.99 
  -1  -5   7   20.68    1.05 
   0   5  -7   -0.01    0.16 
   0  -5   7    0.38    0.18 
   0  -5   7    0.48    0.20 
  -1   5  -7    0.41    0.20 
   1  -5   7    0.32    0.20 
   1  -5   7    0.03    0.14 
  -2   5  -7    0.17    0.18 
   2  -5   7    0.35    0.19 
   2  -5   7    0.19    0.19 
  -3   5  -7   22.75    1.18 
  -3   5  -7   23.66    1.23 
   3  -5   7   23.63    1.35 
  -4   5  -7    1.89    0.43 
   4  -5   7    2.16    0.48 
   5   4  -7   15.20    0.98 
   5   4  -7   17.24    0.99 
  -5  -4   7   14.09    0.97 
   4   4  -7    3.13    0.48 
  -4  -4   7    3.11    0.51 
   3   4  -7    5.51    0.62 
  -3  -4   7    3.88    0.55 
   2   4  -7    0.45    0.19 
  -2  -4   7    0.36    0.18 
  -2  -4   7    0.28    0.15 
   1   4  -7    7.36    0.63 
  -1  -4   7    8.89    0.62 
  -1  -4   7    7.15    0.59 
   0   4  -7    0.45    0.21 
   0  -4   7    0.22    0.15 
   0  -4   7    0.14    0.14 
  -1   4  -7  102.75    2.95 
   1  -4   7   98.60    3.01 
   1  -4   7   99.18    2.96 
  -2   4  -7    7.17    0.62 
   2  -4   7    7.91    0.66 
   2  -4   7   10.09    0.78 
  -3   4  -7    1.74    0.38 
  -3   4  -7    2.16    0.41 
   3  -4   7    2.36    0.48 
  -4   4  -7    2.53    0.47 
   4  -4   7    2.26    0.48 
   6   3  -7    0.42    0.24 
  -6  -3   7   -0.06    0.14 
   5   3  -7    0.11    0.19 
   5   3  -7    0.44    0.23 
  -5  -3   7    0.33    0.18 
   4   3  -7    5.42    0.58 
   4   3  -7    6.07    0.62 
  -4  -3   7    5.03    0.62 
   3   3  -7   11.34    0.74 
  -3  -3   7   12.39    0.81 
   2   3  -7   37.35    1.48 
  -2  -3   7   39.58    1.53 
   1   3  -7  159.22    4.10 
  -1  -3   7  157.41    4.04 
  -1  -3   7  166.27    4.17 
   0   3  -7   19.13    0.99 
   0  -3   7   19.46    0.95 
   0  -3   7   19.25    0.99 
  -1   3  -7    4.75    0.56 
   1  -3   7    6.58    0.56 
   1  -3   7    5.39    0.60 
  -2   3  -7    1.11    0.28 
   2  -3   7    0.66    0.25 
   2  -3   7    1.16    0.28 
  -3   3  -7   20.95    1.04 
  -3   3  -7   21.84    1.17 
   3  -3   7   23.91    1.29 
  -4   3  -7    0.19    0.19 
   4  -3   7    0.33    0.22 
   6   2  -7    9.94    0.71 
   6   2  -7    8.03    0.86 
  -6  -2   7    8.39    0.83 
   5   2  -7   13.73    0.84 
   5   2  -7   13.64    0.93 
  -5  -2   7   13.35    0.90 
   4   2  -7   19.10    0.98 
   4   2  -7   17.05    0.96 
  -4  -2   7   16.72    0.99 
   3   2  -7   72.04    2.24 
   3   2  -7   71.04    2.14 
  -3  -2   7   71.94    2.31 
   2   2  -7   15.86    0.86 
   2   2  -7   14.41    0.72 
  -2  -2   7   14.73    0.85 
   1   2  -7    2.46    0.40 
  -1  -2   7    2.50    0.40 
  -1  -2   7    2.56    0.33 
   0   2  -7    0.70    0.22 
   0  -2   7    1.44    0.30 
   0  -2   7    1.00    0.24 
  -1   2  -7   53.75    1.79 
   1  -2   7   52.14    1.87 
   1  -2   7   52.31    1.85 
  -2   2  -7    5.27    0.55 
   2  -2   7    7.10    0.70 
   2  -2   7    6.57    0.68 
  -3   2  -7   31.12    1.45 
   3  -2   7   34.46    1.60 
  -4   2  -7    2.91    0.49 
   4  -2   7    3.15    0.58 
   7   1  -7   22.07    1.38 
  -7  -1   7   19.80    1.24 
   6   1  -7    9.33    0.72 
   6   1  -7    9.25    0.91 
  -6  -1   7    8.92    0.77 
   5   1  -7   26.18    1.33 
   5   1  -7   24.92    1.19 
  -5  -1   7   25.73    1.27 
   4   1  -7   20.12    1.05 
   4   1  -7   20.40    1.03 
  -4  -1   7   20.63    1.09 
   3   1  -7   28.39    1.21 
   3   1  -7   30.58    1.28 
  -3  -1   7   31.83    1.33 
   2   1  -7   34.23    1.22 
   2   1  -7   30.19    1.28 
  -2  -1   7   31.41    1.31 
   1   1  -7   78.48    2.11 
   1   1  -7   78.23    2.35 
  -1  -1   7   78.97    2.19 
  -1  -1   7   80.34    2.40 
   0   1  -7    4.22    0.49 
   0  -1   7    4.02    0.45 
   0  -1   7    3.97    0.50 
  -1   1  -7   92.76    2.62 
   1  -1   7   98.52    2.80 
   1  -1   7   90.14    2.77 
  -2   1  -7    2.38    0.42 
  -2   1  -7    3.01    0.43 
   2  -1   7    2.71    0.46 
  -3   1  -7   14.37    0.93 
   3  -1   7   13.54    0.96 
  -4   1  -7    3.37    0.54 
   4  -1   7    4.38    0.68 
   7   0  -7    1.46    0.44 
  -7   0   7    3.09    0.55 
   6   0  -7   12.27    0.83 
   6   0  -7   13.24    1.00 
  -6   0   7   12.27    0.89 
   5   0  -7   20.95    1.06 
   5   0  -7   18.82    1.14 
  -5   0   7   19.92    1.09 
   4   0  -7   30.47    1.33 
  -4   0   7   28.52    1.29 
  -4   0   7   29.82    1.34 
   3   0  -7   39.46    1.48 
  -3   0   7   38.17    1.51 
  -3   0   7   38.31    1.49 
   2   0  -7   14.79    0.78 
  -2   0   7   13.68    0.81 
  -2   0   7   14.71    0.84 
   1   0  -7   47.58    1.57 
   1   0  -7   49.88    1.68 
  -1   0   7   49.86    1.71 
   0   0  -7    0.30    0.16 
   0   0  -7    0.28    0.16 
   0   0   7    0.37    0.17 
   0   0   7    0.10    0.16 
  -1   0  -7   35.35    1.36 
   1   0   7   34.84    1.43 
   1   0   7   36.24    1.45 
  -2   0  -7    0.91    0.26 
   2   0   7    1.38    0.34 
  -3   0  -7    7.85    0.75 
   3   0   7    8.10    0.83 
  -4   0  -7    1.71    0.40 
   4   0   7    1.01    0.36 
   6  -1  -7   11.53    0.94 
  -6   1   7    8.56    0.73 
  -6   1   7   10.17    0.79 
   5  -1  -7   27.30    1.38 
  -5   1   7   27.10    1.30 
  -5   1   7   26.03    1.29 
   4  -1  -7    0.40    0.23 
  -4   1   7    0.04    0.15 
  -4   1   7    0.11    0.17 
   3  -1  -7    6.06    0.60 
  -3   1   7    5.91    0.59 
  -3   1   7    5.73    0.60 
   2  -1  -7   15.78    0.86 
  -2   1   7   16.81    0.91 
  -2   1   7   17.30    0.90 
   1  -1  -7   47.35    1.63 
  -1   1   7   47.55    1.66 
  -1   1   7   44.36    1.65 
   0  -1  -7   11.51    0.71 
   0   1   7   13.83    0.78 
   0   1   7   12.92    0.79 
   0   1   7   13.40    0.78 
  -1  -1  -7   15.56    0.84 
   1   1   7   15.81    0.94 
   1   1   7   14.27    0.87 
   1   1   7   16.03    0.88 
  -2  -1  -7    3.46    0.50 
   2   1   7    4.43    0.61 
  -3  -1  -7   10.91    0.81 
   3   1   7   12.06    0.94 
   6  -2  -7    5.20    0.75 
  -6   2   7    6.15    0.70 
  -6   2   7    5.03    0.67 
   5  -2  -7   10.95    0.88 
  -5   2   7   11.01    0.81 
  -5   2   7   12.80    0.85 
   4  -2  -7   11.89    0.87 
  -4   2   7   12.78    0.81 
  -4   2   7   11.83    0.81 
   3  -2  -7   23.82    1.18 
  -3   2   7   24.43    1.18 
  -3   2   7   24.80    1.13 
   2  -2  -7    0.37    0.17 
  -2   2   7    0.04    0.12 
  -2   2   7    0.33    0.17 
   1  -2  -7   15.37    0.88 
  -1   2   7   13.53    0.82 
  -1   2   7   13.96    0.80 
   0  -2  -7   12.25    0.80 
   0  -2  -7   11.09    0.77 
   0   2   7   13.00    0.77 
   0   2   7   12.27    0.77 
  -1  -2  -7   31.77    1.32 
  -1  -2  -7   29.77    1.45 
   1   2   7   31.76    1.42 
   1   2   7   30.68    1.28 
  -2  -2  -7    8.22    0.87 
   2   2   7    9.69    0.76 
  -3  -2  -7   36.04    1.84 
   6  -3  -7    0.22    0.24 
  -6   3   7   -0.17    0.15 
   5  -3  -7   10.09    0.86 
  -5   3   7   11.25    0.84 
   4  -3  -7    0.43    0.23 
  -4   3   7    0.13    0.18 
   3  -3  -7    2.91    0.49 
  -3   3   7    3.92    0.57 
   2  -3  -7   51.51    1.96 
  -2   3   7   50.85    1.88 
   1  -3  -7   47.74    1.85 
  -1   3   7   49.48    1.80 
   0  -3  -7    1.40    0.37 
   0   3   7    1.85    0.36 
  -1  -3  -7   35.75    1.67 
   1   3   7   34.34    1.62 
  -2  -3  -7    1.07    0.34 
   2   3   7    0.46    0.28 
   5  -4  -7    2.11    0.47 
  -5   4   7    1.81    0.41 
   4  -4  -7   58.06    2.30 
  -4   4   7   58.85    2.24 
   3  -4  -7   55.41    2.20 
  -3   4   7   57.57    2.16 
   2  -4  -7    3.40    0.57 
  -2   4   7    3.45    0.56 
   1  -4  -7   21.87    1.24 
  -1   4   7   21.92    1.17 
   0  -4  -7    3.38    0.59 
   0   4   7    3.24    0.49 
   1   7  -8    0.26    0.21 
  -1  -7   8    0.13    0.21 
   0   7  -8    0.37    0.20 
   0  -7   8    0.97    0.30 
  -1   7  -8   18.48    1.20 
   1  -7   8   19.15    1.23 
   1  -7   8   19.22    1.11 
   3   6  -8    4.02    0.61 
  -3  -6   8    3.44    0.53 
   2   6  -8    1.26    0.34 
  -2  -6   8    0.83    0.28 
   1   6  -8   33.75    1.59 
  -1  -6   8   30.83    1.45 
  -1  -6   8   33.20    1.53 
   0   6  -8   24.61    1.35 
   0  -6   8   23.41    1.25 
   0  -6   8   25.64    1.33 
  -1   6  -8    4.47    0.65 
   1  -6   8    4.71    0.67 
   1  -6   8    3.96    0.57 
  -2   6  -8    3.40    0.55 
  -2   6  -8    2.86    0.53 
   2  -6   8    2.17    0.48 
   4   5  -8    0.83    0.31 
  -4  -5   8    1.68    0.41 
   3   5  -8   32.12    1.54 
  -3  -5   8   33.68    1.54 
   2   5  -8   10.77    0.84 
  -2  -5   8   10.87    0.80 
   1   5  -8    2.09    0.42 
  -1  -5   8    2.00    0.39 
   0   5  -8    0.43    0.23 
   0  -5   8    0.93    0.30 
   0  -5   8    1.57    0.37 
  -1   5  -8    5.40    0.68 
   1  -5   8    6.15    0.70 
   1  -5   8    7.20    0.78 
  -2   5  -8    0.52    0.25 
   2  -5   8    0.86    0.29 
   2  -5   8    0.74    0.31 
  -3   5  -8   22.25    1.21 
  -3   5  -8   20.93    1.22 
   3  -5   8   20.20    1.28 
   5   4  -8   27.32    1.37 
  -5  -4   8   27.12    1.44 
   4   4  -8    3.30    0.53 
  -4  -4   8    3.49    0.56 
   3   4  -8    3.40    0.53 
  -3  -4   8    3.09    0.50 
   2   4  -8   13.48    0.88 
  -2  -4   8   11.11    0.81 
   1   4  -8   38.70    1.66 
  -1  -4   8   40.91    1.67 
  -1  -4   8   42.38    1.57 
   0   4  -8    0.89    0.30 
   0  -4   8    1.40    0.32 
   0  -4   8    0.93    0.30 
  -1   4  -8   28.13    1.38 
   1  -4   8   31.86    1.44 
   1  -4   8   27.96    1.37 
  -2   4  -8    2.51    0.44 
   2  -4   8    1.94    0.41 
   2  -4   8    1.84    0.42 
  -3   4  -8    0.24    0.23 
   3  -4   8   -0.05    0.18 
   5   3  -8    2.57    0.46 
  -5  -3   8    2.24    0.44 
   4   3  -8    6.96    0.70 
  -4  -3   8    5.26    0.67 
   3   3  -8   57.25    2.04 
  -3  -3   8   59.75    2.16 
   2   3  -8    1.87    0.38 
  -2  -3   8    1.31    0.32 
   1   3  -8    0.69    0.27 
  -1  -3   8    0.75    0.24 
   0   3  -8    6.49    0.68 
   0  -3   8    4.59    0.59 
  -1   3  -8    2.26    0.42 
   1  -3   8    2.60    0.46 
   1  -3   8    1.71    0.37 
  -2   3  -8   10.29    0.76 
   2  -3   8    9.89    0.78 
   2  -3   8    9.98    0.81 
  -3   3  -8    6.98    0.77 
   3  -3   8    5.95    0.79 
   6   2  -8   13.64    0.91 
   6   2  -8   12.39    0.97 
  -6  -2   8   11.98    0.94 
   5   2  -8   61.92    2.19 
   5   2  -8   59.91    2.23 
  -5  -2   8   60.73    2.29 
   4   2  -8    0.31    0.18 
   4   2  -8    0.65    0.26 
  -4  -2   8    0.49    0.23 
   3   2  -8   10.89    0.76 
  -3  -2   8   10.11    0.77 
   2   2  -8    4.55    0.58 
  -2  -2   8    4.59    0.58 
   1   2  -8   28.92    1.28 
  -1  -2   8   27.57    1.29 
   0   2  -8   19.60    1.04 
   0  -2   8   19.02    1.07 
   0  -2   8   21.95    1.04 
  -1   2  -8   20.25    1.07 
   1  -2   8   20.62    1.14 
   1  -2   8   21.51    1.13 
  -2   2  -8   18.57    1.00 
  -2   2  -8   18.57    1.08 
   2  -2   8   18.25    1.09 
   2  -2   8   18.65    1.12 
  -3   2  -8    0.18    0.16 
   3  -2   8    0.42    0.25 
   6   1  -8    1.49    0.41 
   6   1  -8    1.57    0.36 
  -6  -1   8    1.04    0.35 
   5   1  -8    6.57    0.77 
   5   1  -8    7.87    0.76 
  -5  -1   8    8.16    0.81 
   4   1  -8    9.35    0.72 
   4   1  -8    8.62    0.71 
  -4  -1   8    9.82    0.77 
   3   1  -8   39.62    1.61 
   3   1  -8   38.90    1.52 
  -3  -1   8   41.77    1.68 
  -2  -1   8    1.06    0.28 
   1   1  -8   20.33    1.05 
  -1  -1   8   19.71    1.06 
   0   1  -8    8.91    0.67 
   0  -1   8    8.36    0.68 
   0  -1   8    8.68    0.64 
  -1   1  -8    9.90    0.70 
   1  -1   8   11.67    0.82 
   1  -1   8   10.51    0.77 
  -2   1  -8    0.35    0.19 
   2  -1   8    0.06    0.19 
  -3   1  -8   12.49    0.92 
   3  -1   8   13.98    1.03 
   6   0  -8    1.11    0.32 
   6   0  -8    1.00    0.35 
  -6   0   8    0.79    0.28 
   5   0  -8   43.13    1.86 
   5   0  -8   41.67    1.72 
  -5   0   8   42.23    1.79 
   4   0  -8    0.61    0.26 
   4   0  -8    0.31    0.16 
  -4   0   8    0.57    0.22 
   3   0  -8    3.00    0.47 
   3   0  -8    2.20    0.40 
  -3   0   8    3.13    0.50 
   2   0  -8   17.71    0.91 
   2   0  -8   15.75    0.93 
  -2   0   8   17.58    0.98 
   1   0  -8   60.19    2.07 
  -1   0   8   60.58    2.08 
   0   0  -8    8.56    0.66 
   0   0   8    8.80    0.69 
  -1   0  -8   23.96    1.15 
   1   0   8   23.36    1.20 
   1   0   8   23.53    1.21 
  -2   0  -8    4.97    0.64 
   2   0   8    4.96    0.68 
  -3   0  -8    0.69    0.25 
   3   0   8    1.54    0.41 
   6  -1  -8    0.77    0.34 
  -6   1   8    1.90    0.44 
  -6   1   8    1.07    0.31 
   5  -1  -8    4.73    0.68 
  -5   1   8    4.75    0.65 
  -5   1   8    4.61    0.64 
   4  -1  -8   13.63    0.94 
  -4   1   8   16.28    0.98 
  -4   1   8   14.04    0.94 
   3  -1  -8   80.62    2.55 
  -3   1   8   77.74    2.57 
  -3   1   8   78.79    2.52 
   2  -1  -8    0.37    0.18 
  -2   1   8   -0.04    0.14 
  -2   1   8    0.31    0.18 
   1  -1  -8   28.63    1.25 
  -1   1   8   28.62    1.30 
  -1   1   8   27.95    1.30 
   0  -1  -8    0.51    0.22 
   0   1   8    0.44    0.25 
  -1  -1  -8    1.08    0.29 
   1   1   8    1.02    0.32 
  -2  -1  -8    4.77    0.62 
   2   1   8    5.55    0.72 
   5  -2  -8   42.46    1.92 
  -5   2   8   44.21    1.81 
  -5   2   8   43.26    1.83 
   4  -2  -8    0.40    0.25 
  -4   2   8    0.34    0.20 
  -4   2   8   -0.09    0.13 
   3  -2  -8    2.19    0.44 
  -3   2   8    2.91    0.46 
  -3   2   8    2.01    0.40 
   2  -2  -8    2.14    0.41 
  -2   2   8    2.52    0.45 
   1  -2  -8   10.73    0.79 
  -1   2   8    9.75    0.75 
   0  -2  -8    0.00    0.17 
   0   2   8    0.49    0.22 
   4  -3  -8   12.40    0.95 
  -4   3   8   12.62    0.91 
   3  -3  -8   27.99    1.44 
  -3   3   8   26.10    1.34 
   2  -3  -8    5.08    0.68 
  -2   3   8    5.33    0.67 
   1  -3  -8   35.97    1.63 
  -1   3   8   36.56    1.58 
   0  -3  -8    0.86    0.28 
   0   3   8    0.48    0.28 
   2   6  -9    6.00    0.76 
  -2  -6   9    5.61    0.72 
   1   6  -9    2.35    0.47 
  -1  -6   9    1.87    0.39 
   0   6  -9    0.93    0.30 
   0  -6   9    1.47    0.40 
   0  -6   9    0.62    0.28 
   3   5  -9   -0.02    0.20 
  -3  -5   9    0.58    0.20 
   2   5  -9    1.88    0.41 
  -2  -5   9    1.66    0.38 
   1   5  -9    3.75    0.60 
  -1  -5   9    2.84    0.50 
   0   5  -9    3.50    0.58 
   0  -5   9    3.45    0.55 
   0  -5   9    3.27    0.55 
  -1   5  -9   36.75    1.72 
   1  -5   9   38.98    1.78 
   1  -5   9   38.97    1.76 
  -2   5  -9   15.94    1.08 
  -2   5  -9   15.38    1.04 
   2  -5   9   16.30    1.09 
   2  -5   9   15.09    1.09 
   4   4  -9    5.35    0.70 
  -4  -4   9    4.77    0.70 
   3   4  -9   11.30    0.86 
  -3  -4   9   12.41    0.91 
   2   4  -9    7.11    0.78 
  -2  -4   9    6.69    0.77 
   1   4  -9   23.29    1.28 
  -1  -4   9   26.36    1.34 
   0   4  -9    8.80    0.87 
   0  -4   9    8.77    0.75 
  -1   4  -9    0.53    0.27 
   1  -4   9    0.69    0.28 
   1  -4   9    0.39    0.19 
  -2   4  -9    1.56    0.39 
   2  -4   9    1.29    0.33 
   2  -4   9    1.18    0.40 
   5   3  -9   36.12    1.65 
  -5  -3   9   32.94    1.66 
   4   3  -9   13.14    0.91 
  -4  -3   9   12.25    0.94 
   3   3  -9    5.87    0.70 
  -3  -3   9    4.97    0.66 
   2   3  -9    8.55    0.83 
  -2  -3   9    9.94    0.79 
   1   3  -9    7.48    0.78 
  -1  -3   9    7.57    0.77 
   0   3  -9    8.79    0.74 
   0  -3   9    9.17    0.76 
  -1   3  -9   42.91    1.80 
   1  -3   9   46.14    1.90 
   1  -3   9   45.84    1.92 
  -2   3  -9   10.36    0.84 
  -2   3  -9   11.00    0.84 
   2  -3   9   10.96    0.89 
   2  -3   9   11.09    0.90 
   5   2  -9    0.07    0.20 
  -5  -2   9    0.45    0.27 
   4   2  -9    0.35    0.22 
  -4  -2   9    0.21    0.20 
   3   2  -9   18.68    1.11 
  -3  -2   9   19.10    1.14 
   2   2  -9    3.30    0.53 
  -2  -2   9    4.49    0.62 
   1   2  -9   39.89    1.66 
  -1  -2   9   39.71    1.71 
   0   2  -9   10.23    0.77 
   0  -2   9   10.35    0.82 
  -1   2  -9   17.78    1.07 
   1  -2   9   19.31    1.15 
   1  -2   9   20.29    1.14 
  -2   2  -9   12.41    0.93 
   2  -2   9   13.86    1.01 
   5   1  -9   32.75    1.58 
  -5  -1   9   31.48    1.59 
   4   1  -9    3.76    0.58 
  -4  -1   9    3.52    0.58 
   3   1  -9   15.15    0.99 
  -3  -1   9   15.64    1.01 
   2   1  -9   12.86    0.89 
  -2  -1   9   14.58    0.95 
   1   1  -9    1.33    0.32 
  -1  -1   9    1.40    0.35 
   0   1  -9    0.89    0.28 
   0  -1   9    0.42    0.24 
  -1   1  -9   20.63    1.13 
   1  -1   9   21.69    1.22 
   1  -1   9   19.78    1.15 
  -2   1  -9    1.15    0.32 
   2  -1   9    1.41    0.42 
   5   0  -9   19.50    1.22 
   5   0  -9   18.45    1.15 
  -5   0   9   18.73    1.18 
   4   0  -9    6.30    0.73 
   4   0  -9    6.08    0.71 
  -4   0   9    7.56    0.80 
   3   0  -9    8.64    0.73 
  -3   0   9    9.51    0.77 
   2   0  -9   -0.13    0.13 
  -2   0   9    0.39    0.22 
   1   0  -9   17.89    1.07 
  -1   0   9   19.22    1.11 
   0   0  -9    1.76    0.39 
   0   0   9    2.45    0.46 
   1   0   9    7.82    0.82 
   5  -1  -9   27.62    1.41 
  -5   1   9   23.51    1.35 
   4  -1  -9    0.22    0.27 
  -4   1   9    0.67    0.27 
  -4   1   9    0.64    0.31 
   3  -1  -9    0.36    0.24 
  -3   1   9    0.66    0.27 
  -3   1   9    0.54    0.25 
   2  -1  -9    0.21    0.18 
  -2   1   9    0.41    0.23 
   1  -1  -9    0.10    0.15 
  -1   1   9    0.36    0.21 
   0  -1  -9    7.37    0.75 
   0   1   9    6.73    0.73 
   3  -2  -9   19.23    1.18 
  -3   2   9   19.22    1.18 
   2  -2  -9    0.59    0.26 
  -2   2   9    1.14    0.34 
  -1   2   9   32.15    1.52 
   2   4 -10   14.05    1.00 
  -2  -4  10   13.45    1.00 
   1   4 -10    6.73    0.81 
  -1  -4  10    8.87    0.91 
   0   4 -10    9.69    0.96 
   0  -4  10    9.36    0.95 
   3   3 -10    0.67    0.26 
  -3  -3  10    0.75    0.27 
   2   3 -10    2.88    0.52 
  -2  -3  10    3.03    0.53 
   1   3 -10   10.46    0.87 
  -1  -3  10   11.47    0.90 
   0   3 -10    3.74    0.59 
   0  -3  10    4.31    0.66 
   3   2 -10    8.88    0.90 
  -3  -2  10   11.92    0.92 
   2   2 -10    4.80    0.66 
  -2  -2  10    5.54    0.74 
   1   2 -10    3.61    0.58 
  -1  -2  10    3.82    0.61 
   0   2 -10    4.77    0.67 
   0  -2  10    4.71    0.69 
   3   1 -10    0.62    0.22 
  -3  -1  10    0.80    0.33 
   2   1 -10    4.79    0.66 
  -2  -1  10    3.90    0.63 
   1   1 -10   33.06    1.61 
  -1  -1  10   37.49    1.73 
   0   1 -10    4.13    0.60 
   0  -1  10    4.64    0.68 
   3   0 -10   27.99    1.48 
  -3   0  10   29.19    1.50 
   2   0 -10    6.80    0.79 
  -2   0  10    6.03    0.75 
   1   0 -10   18.09    1.14 
  -1   0  10   18.76    1.18 
   0   0   0    0.00    0.00 
;
_shelx_hkl_checksum              4991
loop_
_space_group_symop_operation_xyz
'x, y, z'
'-x, -y, -z'
loop_
_atom_site_label
_atom_site_type_symbol
_atom_site_fract_x
_atom_site_fract_y
_atom_site_fract_z
_atom_site_U_iso_or_equiv
_atom_site_adp_type
_atom_site_occupancy
_atom_site_site_symmetry_order
_atom_site_calc_flag
_atom_site_refinement_flags_posn
_atom_site_refinement_flags_adp
V1 V 0.16495(6) 0.27063(6) 0.34919(5) 0.01333(13) Uani 1 1 d . .
Na1 Na 0.2102(2) 0.44332(19) 0.84588(15) 0.0374(3) Uani 1 1 d . .
P1 P 0.31466(9) 0.74174(9) 0.58455(8) 0.01494(15) Uani 1 1 d . .
H1 H 0.336(5) 0.933(4) 0.571(4) 0.018 Uiso 1 1 d . U
O1 O 0.2630(3) 0.5790(3) 0.4026(2) 0.0206(4) Uani 1 1 d . .
O2 O 0.1504(3) 0.6970(3) 0.6922(2) 0.0177(3) Uani 1 1 d . .
O3 O 0.5460(3) 0.7707(3) 0.6972(2) 0.0330(5) Uani 1 1 d . .
O4 O 0.1950(3) 0.2447(3) 0.5428(2) 0.0225(4) Uani 1 1 d . .
O5 O 0.4330(4) 0.6894(4) 1.1230(3) 0.0398(5) Uani 1 1 d D .
H5A H 0.388(6) 0.652(6) 1.205(4) 0.048 Uiso 1 1 d D U
H5B H 0.450(7) 0.811(3) 1.117(5) 0.048 Uiso 1 1 d D U
O6 O 0.0923(3) 0.2716(2) 0.0626(2) 0.0189(4) Uani 1 1 d . .
O7 O -0.0420(3) 0.0417(3) -0.2072(2) 0.0187(3) Uani 1 1 d . .
C1 C 0.0144(4) 0.0902(3) -0.0412(3) 0.0146(4) Uani 1 1 d . .
loop_
_atom_site_aniso_label
_atom_site_aniso_U_11
_atom_site_aniso_U_22
_atom_site_aniso_U_33
_atom_site_aniso_U_23
_atom_site_aniso_U_13
_atom_site_aniso_U_12
V1 0.00981(19) 0.0167(2) 0.0104(2) -0.00006(14) 0.00211(14) 0.00203(14)
Na1 0.0534(8) 0.0373(6) 0.0250(6) 0.0143(5) 0.0124(5) 0.0087(6)
P1 0.0115(3) 0.0146(3) 0.0159(3) 0.0003(2) 0.0042(2) 0.0010(2)
O1 0.0234(9) 0.0195(8) 0.0139(8) 0.0004(6) 0.0060(7) -0.0033(7)
O2 0.0111(7) 0.0241(8) 0.0182(8) 0.0051(7) 0.0054(6) 0.0044(6)
O3 0.0117(8) 0.0548(13) 0.0217(9) -0.0058(9) 0.0035(7) 0.0063(8)
O4 0.0260(9) 0.0242(9) 0.0162(8) 0.0039(7) 0.0040(7) 0.0080(7)
O5 0.0385(12) 0.0470(13) 0.0323(11) 0.0145(10) 0.0071(10) 0.0029(11)
O6 0.0225(9) 0.0151(8) 0.0153(8) 0.0015(6) 0.0045(7) -0.0008(7)
O7 0.0247(9) 0.0178(8) 0.0124(7) 0.0035(6) 0.0044(6) 0.0038(7)
C1 0.0113(10) 0.0181(11) 0.0147(10) 0.0034(9) 0.0048(8) 0.0042(8)
loop_
_atom_type_symbol
_atom_type_description
_atom_type_scat_dispersion_real
_atom_type_scat_dispersion_imag
_atom_type_scat_source
C C 0.0033 0.0016 'International Tables Vol C Tables 4.2.6.8 and 6.1.1.4'
H H 0.0000 0.0000 'International Tables Vol C Tables 4.2.6.8 and 6.1.1.4'
O O 0.0106 0.0060 'International Tables Vol C Tables 4.2.6.8 and 6.1.1.4'
Na Na 0.0362 0.0249 'International Tables Vol C Tables 4.2.6.8 and 6.1.1.4'
P P 0.1023 0.0942 'International Tables Vol C Tables 4.2.6.8 and 6.1.1.4'
V V 0.3005 0.5294 'International Tables Vol C Tables 4.2.6.8 and 6.1.1.4'
loop_
_geom_angle_atom_site_label_1
_geom_angle_atom_site_label_2
_geom_angle_atom_site_label_3
_geom_angle
_geom_angle_site_symmetry_1
_geom_angle_site_symmetry_3
O4 V1 O3 100.87(9) . 2_666
O4 V1 O1 101.99(8) . .
O3 V1 O1 91.02(8) 2_666 .
O4 V1 O2 98.27(8) . 2_566
O3 V1 O2 160.48(8) 2_666 2_566
O1 V1 O2 88.74(7) . 2_566
O4 V1 O7 97.54(8) . 2
O3 V1 O7 86.42(8) 2_666 2
O1 V1 O7 160.43(7) . 2
O2 V1 O7 87.31(7) 2_566 2
O4 V1 O6 173.30(8) . .
O3 V1 O6 81.63(7) 2_666 .
O1 V1 O6 84.10(6) . .
O2 V1 O6 78.94(6) 2_566 .
O7 V1 O6 76.33(6) 2 .
O4 V1 Na1 125.90(7) . 2_566
O3 V1 Na1 128.06(7) 2_666 2_566
O1 V1 Na1 60.94(6) . 2_566
O2 V1 Na1 37.50(5) 2_566 2_566
O7 V1 Na1 106.09(5) 2 2_566
O6 V1 Na1 54.69(5) . 2_566
O2 Na1 O5 96.58(8) . .
O2 Na1 O4 78.67(7) . .
O5 Na1 O4 147.17(9) . .
O2 Na1 O6 145.59(8) . 1_556
O5 Na1 O6 79.14(7) . 1_556
O4 Na1 O6 122.46(7) . 1_556
O2 Na1 O5 121.49(8) . 2_667
O5 Na1 O5 79.08(10) . 2_667
O4 Na1 O5 76.19(7) . 2_667
O6 Na1 O5 91.50(8) 1_556 2_667
O2 Na1 O7 130.64(7) . 1_556
O5 Na1 O7 127.37(8) . 1_556
O4 Na1 O7 74.68(6) . 1_556
O6 Na1 O7 49.23(5) 1_556 1_556
O5 Na1 O7 91.28(8) 2_667 1_556
O2 Na1 C1 147.72(8) . 1_556
O5 Na1 C1 102.47(8) . 1_556
O4 Na1 C1 97.86(7) . 1_556
O6 Na1 C1 24.76(6) 1_556 1_556
O5 Na1 C1 87.88(8) 2_667 1_556
O7 Na1 C1 24.98(6) 1_556 1_556
O2 Na1 O6 59.61(6) . 2_566
O5 Na1 O6 78.23(8) . 2_566
O4 Na1 O6 123.72(7) . 2_566
O6 Na1 O6 86.27(6) 1_556 2_566
O5 Na1 O6 157.21(8) 2_667 2_566
O7 Na1 O6 104.14(6) 1_556 2_566
C1 Na1 O6 99.00(6) 1_556 2_566
O2 Na1 V1 30.67(4) . 2_566
O5 Na1 V1 105.51(7) . 2_566
O4 Na1 V1 86.97(5) . 2_566
O6 Na1 V1 117.24(6) 1_556 2_566
O5 Na1 V1 151.26(7) 2_667 2_566
O7 Na1 V1 106.72(5) 1_556 2_566
C1 Na1 V1 117.78(6) 1_556 2_566
O6 Na1 V1 38.25(4) 2_566 2_566
O2 Na1 Na1 114.84(7) . 2_667
O5 Na1 Na1 40.83(6) . 2_667
O4 Na1 Na1 111.77(7) . 2_667
O6 Na1 Na1 84.18(6) 1_556 2_667
O5 Na1 Na1 38.25(6) 2_667 2_667
O7 Na1 Na1 113.43(6) 1_556 2_667
C1 Na1 Na1 96.40(6) 1_556 2_667
O6 Na1 Na1 119.03(6) 2_566 2_667
V1 Na1 Na1 138.80(5) 2_566 2_667
O2 Na1 Na1 97.91(6) . 2_567
O5 Na1 Na1 74.40(7) . 2_567
O4 Na1 Na1 138.30(8) . 2_567
O6 Na1 Na1 47.86(5) 1_556 2_567
O5 Na1 Na1 134.54(7) 2_667 2_567
O7 Na1 Na1 76.99(5) 1_556 2_567
C1 Na1 Na1 63.31(5) 1_556 2_567
O6 Na1 Na1 38.41(4) 2_566 2_567
V1 Na1 Na1 72.63(4) 2_566 2_567
Na1 Na1 Na1 107.31(5) 2_667 2_567
O3 P1 O2 108.35(10) . .
O3 P1 O1 113.89(10) . .
O2 P1 O1 113.23(10) . .
P1 O1 V1 126.19(10) . .
P1 O2 V1 127.34(10) . 2_566
P1 O2 Na1 116.25(9) . .
V1 O2 Na1 111.83(8) 2_566 .
P1 O3 V1 135.65(12) . 2_666
V1 O4 Na1 140.65(10) . .
Na1 O5 Na1 100.92(10) . 2_667
C1 O6 V1 111.19(14) . .
C1 O6 Na1 98.21(14) . 1_554
V1 O6 Na1 145.50(8) . 1_554
C1 O6 Na1 120.01(14) . 2_566
V1 O6 Na1 87.06(6) . 2_566
Na1 O6 Na1 93.73(6) 1_554 2_566
C1 O7 V1 118.20(15) . 2
C1 O7 Na1 84.19(13) . 1_554
V1 O7 Na1 152.58(8) 2 1_554
O6 C1 O7 125.7(2) . .
O6 C1 C1 117.4(2) . 2
O7 C1 C1 116.9(2) . 2
O6 C1 Na1 57.03(12) . 1_554
O7 C1 Na1 70.83(12) . 1_554
C1 C1 Na1 162.9(2) 2 1_554
loop_
_geom_bond_atom_site_label_1
_geom_bond_atom_site_label_2
_geom_bond_distance
_geom_bond_site_symmetry_2
V1 O4 1.5947(17) .
V1 O3 1.9865(18) 2_666
V1 O1 1.9877(17) .
V1 O2 2.0112(16) 2_566
V1 O7 2.0642(17) 2
V1 O6 2.2689(17) .
V1 Na1 3.6599(13) 2_566
Na1 O2 2.400(2) .
Na1 O5 2.413(3) .
Na1 O4 2.444(2) .
Na1 O6 2.506(2) 1_556
Na1 O5 2.548(3) 2_667
Na1 O7 2.806(2) 1_556
Na1 C1 2.956(3) 1_556
Na1 O6 2.991(2) 2_566
Na1 V1 3.6600(13) 2_566
Na1 Na1 3.827(3) 2_667
Na1 Na1 4.025(3) 2_567
P1 O3 1.5118(19) .
P1 O2 1.5260(16) .
P1 O1 1.5282(17) .
O2 V1 2.0112(16) 2_566
O3 V1 1.9865(18) 2_666
O5 Na1 2.548(3) 2_667
O6 C1 1.251(3) .
O6 Na1 2.506(2) 1_554
O6 Na1 2.991(2) 2_566
O7 C1 1.255(3) .
O7 V1 2.0642(17) 2
O7 Na1 2.806(2) 1_554
C1 C1 1.539(4) 2
C1 Na1 2.956(2) 1_554
loop_
_geom_hbond_atom_site_label_D
_geom_hbond_atom_site_label_H
_geom_hbond_atom_site_label_A
_geom_hbond_distance_DH
_geom_hbond_distance_HA
_geom_hbond_distance_DA
_geom_hbond_angle_DHA
_geom_hbond_site_symmetry_A
O5 H5A O1 0.854(19) 2.049(19) 2.901(3) 175(4) 1_556
