#------------------------------------------------------------------------------
#$Date: 2018-10-05 15:19:55 +0300 (Fri, 05 Oct 2018) $
#$Revision: 211332 $
#$URL: file:///home/coder/svn-repositories/cod/cif/7/22/22/7222287.cif $
#------------------------------------------------------------------------------
#
# This file is available in the Crystallography Open Database (COD),
# http://www.crystallography.net/
#
# All data on this site have been placed in the public domain by the
# contributors.
#
data_7222287
loop_
_publ_author_name
'Korsching, Kai R.'
'Sch\"afer, Hannes'
'Sch\"onborn, Josefine'
'Nimthong-Rold\'an, Arunpatcha'
'Zeller, Matthias'
'Azov, Vladimir A.'
_publ_section_title
;
 Enhancement of Electron-donating Character in Alkylated
 Monopyrrolo-tetrathiafultvalene Derivatives
;
_journal_name_full               'RSC Adv.'
_journal_paper_doi               10.1039/C5RA19012F
_journal_year                    2015
_chemical_formula_moiety         'C17 H15 N O2 S5'
_chemical_formula_sum            'C17 H15 N O2 S5'
_chemical_formula_weight         425.60
_chemical_melting_point          513
_chemical_name_systematic
11,12-Dimethyl-5-(4-methylbenzenesulfonyl)-2,8,10,13-tetrathia-5-azatricyclo[7.4.0.03,7]trideca-1(9),3,6,11-tetraen
_space_group_crystal_system      triclinic
_space_group_IT_number           2
_space_group_name_Hall           '-P 1'
_space_group_name_H-M_alt        'P -1'
_symmetry_space_group_name_Hall  '-P 1'
_symmetry_space_group_name_H-M   'P -1'
_atom_sites_solution_hydrogens   geom
_atom_sites_solution_primary     patt
_atom_sites_solution_secondary   difmap
_audit_creation_method           SHELXL-2014/7
_audit_update_record
;
2015-07-24 deposited with the CCDC.
2015-09-23 downloaded from the CCDC.
;
_cell_angle_alpha                107.566(2)
_cell_angle_beta                 103.414(2)
_cell_angle_gamma                92.688(2)
_cell_formula_units_Z            2
_cell_length_a                   8.9673(14)
_cell_length_b                   9.3214(15)
_cell_length_c                   11.9354(19)
_cell_measurement_reflns_used    8553
_cell_measurement_temperature    100(2)
_cell_measurement_theta_max      31.3245
_cell_measurement_theta_min      2.3099
_cell_volume                     917.8(3)
_computing_cell_refinement       'SAINT (Bruker, 2003)'
_computing_data_collection       'SMART (Bruker, 1998)'
_computing_data_reduction        SAINT
_computing_molecular_graphics    'Mercury (Macrea, 2008)'
_computing_publication_material
;
        SHELXL97 (Sheldrick, 2008)
;
_computing_structure_refinement
;  
SHELXL-2012 (Sheldrick, 2012), 
SHELXLE Rev609 (H\"ubschle et al., 2011)
;
_computing_structure_solution    'SHELXS-97 (Sheldrick, 2008)'
_diffrn_ambient_temperature      100(2)
_diffrn_measured_fraction_theta_full 0.992
_diffrn_measured_fraction_theta_max 0.899
_diffrn_measurement_device_type  'Bruker AXS Smart Apex CCD Diffractometer'
_diffrn_measurement_method       'Phi and Omega scans'
_diffrn_radiation_type           MoK\a
_diffrn_radiation_wavelength     0.71073
_diffrn_reflns_av_R_equivalents  0.0264
_diffrn_reflns_av_unetI/netI     0.0317
_diffrn_reflns_Laue_measured_fraction_full 0.992
_diffrn_reflns_Laue_measured_fraction_max 0.899
_diffrn_reflns_limit_h_max       12
_diffrn_reflns_limit_h_min       -13
_diffrn_reflns_limit_k_max       13
_diffrn_reflns_limit_k_min       -13
_diffrn_reflns_limit_l_max       17
_diffrn_reflns_limit_l_min       -17
_diffrn_reflns_number            10464
_diffrn_reflns_point_group_measured_fraction_full 0.992
_diffrn_reflns_point_group_measured_fraction_max 0.899
_diffrn_reflns_theta_full        25.242
_diffrn_reflns_theta_max         31.331
_diffrn_reflns_theta_min         2.354
_diffrn_source                   'sealed tube'
_exptl_absorpt_coefficient_mu    0.643
_exptl_absorpt_correction_T_max  0.7462
_exptl_absorpt_correction_T_min  0.6529
_exptl_absorpt_correction_type   multi-scan
_exptl_absorpt_process_details   'SADABS V 2.10 (Sheldrick, 2003)'
_exptl_crystal_colour            yellow
_exptl_crystal_density_diffrn    1.540
_exptl_crystal_description       block
_exptl_crystal_F_000             440
_exptl_crystal_recrystallization_method
'Re-crystallisation from solvent: dichloromethane/cyclohexane'
_exptl_crystal_size_max          0.550
_exptl_crystal_size_mid          0.520
_exptl_crystal_size_min          0.390
_refine_diff_density_max         0.534
_refine_diff_density_min         -0.330
_refine_diff_density_rms         0.075
_refine_ls_extinction_method     none
_refine_ls_goodness_of_fit_ref   1.025
_refine_ls_hydrogen_treatment    constr
_refine_ls_matrix_type           full
_refine_ls_number_parameters     230
_refine_ls_number_reflns         5416
_refine_ls_number_restraints     0
_refine_ls_restrained_S_all      1.025
_refine_ls_R_factor_all          0.0303
_refine_ls_R_factor_gt           0.0290
_refine_ls_shift/su_max          0.001
_refine_ls_shift/su_mean         0.000
_refine_ls_structure_factor_coef Fsqd
_refine_ls_weighting_details
'w=1/[\s^2^(Fo^2^)+(0.0459P)^2^+0.4251P] where P=(Fo^2^+2Fc^2^)/3'
_refine_ls_weighting_scheme      calc
_refine_ls_wR_factor_gt          0.0816
_refine_ls_wR_factor_ref         0.0828
_reflns_Friedel_coverage         0.000
_reflns_number_gt                5133
_reflns_number_total             5416
_reflns_threshold_expression     'I > 2\s(I)'
_cod_data_source_file            c5ra19012f2.cif
_cod_data_source_block           13RN078_0m
_cod_database_code               7222287
_shelx_shelxl_version_number     2014/7
_shelx_space_group_comment
;
The symmetry employed for this shelxl refinement is uniquely defined
by the following loop, which should always be used as a source of
symmetry information in preference to the above space-group names.
They are only intended as comments.
;
_shelx_estimated_absorpt_t_min   0.719
_shelx_estimated_absorpt_t_max   0.788
_shelx_res_file
;

    13RN078_0m.res created by SHELXL-2014/7


TITL 13RN078_0m in P-1
CELL 0.71073   8.9673   9.3214  11.9354 107.566 103.414  92.688
ZERR    2.00   0.0014   0.0015   0.0019   0.002   0.002   0.002
LATT  1
SFAC C H N O S
UNIT 34 30 2 4 10
LIST 4 ! automatically inserted. Change 6 to 4 for CHECKCIF!!
TEMP -173.500
SIZE 0.39 0.52 0.55

L.S. 14
ACTA
CONF
BOND $H
HTAB
FMAP 2
PLAN 20
OMIT 0   0   1
WGHT    0.045900    0.425100
FVAR       0.92757   0.66830
S1    5   -0.415680    0.299163    0.158477    11.00000    0.01109    0.01380 =
         0.01524    0.00724    0.00272    0.00278
O1    4   -0.460483    0.399709    0.258156    11.00000    0.01849    0.02427 =
         0.01903    0.01071    0.00947    0.00903
S2    5    0.159088    0.278769    0.438104    11.00000    0.01163    0.01146 =
         0.01539    0.00356    0.00078   -0.00031
O2    4   -0.516344    0.167604    0.075944    11.00000    0.01491    0.01686 =
         0.02572    0.00963   -0.00196   -0.00131
S3    5    0.238367    0.096082    0.605583    11.00000    0.01294    0.01698 =
         0.01055    0.00342    0.00333    0.00366
S4    5    0.137803   -0.209921    0.385193    11.00000    0.01217    0.01191 =
         0.01474    0.00408    0.00337    0.00204
S5    5    0.065678   -0.040264    0.208330    11.00000    0.01441    0.01542 =
         0.01076    0.00284    0.00309    0.00519
N1    3   -0.258083    0.231336    0.221185    11.00000    0.01265    0.01250 =
         0.01384    0.00529    0.00085    0.00306
C1    1   -0.213735    0.566027   -0.042829    11.00000    0.01440    0.02821 =
         0.01941    0.01440    0.00334    0.00217
C2    1   -0.248542    0.639891    0.066324    11.00000    0.02373    0.01633 =
         0.02018    0.00792    0.00309   -0.00206
AFIX  43
H2    2   -0.228033    0.747312    0.099196    11.00000   -1.20000
AFIX   0
C3    1   -0.312944    0.559052    0.128239    11.00000    0.02110    0.01282 =
         0.01392    0.00347    0.00466    0.00182
AFIX  43
H3    2   -0.335479    0.610233    0.203111    11.00000   -1.20000
AFIX   0
C4    1   -0.343474    0.402656    0.078534    11.00000    0.01284    0.01279 =
         0.01150    0.00536    0.00252    0.00251
C5    1   -0.311193    0.325239   -0.031207    11.00000    0.03035    0.01646 =
         0.01488    0.00299    0.00849    0.00558
AFIX  43
H5    2   -0.333237    0.217939   -0.064529    11.00000   -1.20000
AFIX   0
C6    1   -0.246286    0.408233   -0.090546    11.00000    0.03014    0.02840 =
         0.01675    0.00849    0.01262    0.00978
AFIX  43
H6    2   -0.223447    0.356754   -0.165230    11.00000   -1.20000
AFIX   0
C7    1   -0.143223    0.653248   -0.109614    11.00000    0.02396    0.04692 =
         0.03199    0.02593    0.00828   -0.00107
AFIX 127
H7A   2   -0.135092    0.762259   -0.067005    21.00000   -1.50000
H7B   2   -0.208706    0.629358   -0.192612    21.00000   -1.50000
H7C   2   -0.040038    0.624823   -0.112638    21.00000   -1.50000
H7D   2   -0.120798    0.582034   -0.181165   -21.00000   -1.50000
H7E   2   -0.047185    0.714935   -0.055558   -21.00000   -1.50000
H7F   2   -0.215853    0.719470   -0.135532   -21.00000   -1.50000
AFIX   0

C8    1   -0.142842    0.317691    0.322711    11.00000    0.01396    0.01263 =
         0.01259    0.00451    0.00192    0.00160
AFIX  43
H8    2   -0.148843    0.414109    0.377300    11.00000   -1.20000
AFIX   0
C9    1   -0.019094    0.237007    0.328839    11.00000    0.01180    0.01225 =
         0.01214    0.00452    0.00243    0.00067
C10   1    0.171293    0.097294    0.455747    11.00000    0.00979    0.01357 =
         0.01261    0.00479    0.00299    0.00238
C11   1    0.360458   -0.050431    0.588542    11.00000    0.00979    0.01881 =
         0.01443    0.00831    0.00433    0.00298
C12   1    0.318119   -0.180401    0.495537    11.00000    0.01133    0.01688 =
         0.01563    0.00874    0.00527    0.00388
C13   1    0.130623   -0.032879    0.361874    11.00000    0.01039    0.01368 =
         0.01260    0.00501    0.00328    0.00328
C14   1   -0.059226    0.098840    0.228526    11.00000    0.01314    0.01199 =
         0.01235    0.00471    0.00338    0.00237
C15   1   -0.207000    0.097200    0.162606    11.00000    0.01464    0.01148 =
         0.01379    0.00524    0.00238    0.00220
AFIX  43
H15   2   -0.263457    0.019607    0.090930    11.00000   -1.20000
AFIX   0
C16   1    0.507921   -0.010315    0.688573    11.00000    0.01166    0.02415 =
         0.01702    0.00992    0.00130    0.00099
AFIX 137
H16A  2    0.483508    0.021575    0.767682    11.00000   -1.50000
H16B  2    0.572408    0.072709    0.681514    11.00000   -1.50000
H16C  2    0.563859   -0.099109    0.681651    11.00000   -1.50000
AFIX   0
C17   1    0.409210   -0.313405    0.470462    11.00000    0.01770    0.01888 =
         0.02344    0.00969    0.00678    0.00825
AFIX 137
H17A  2    0.490512   -0.304812    0.543809    11.00000   -1.50000
H17B  2    0.456219   -0.313771    0.404010    11.00000   -1.50000
H17C  2    0.340040   -0.407985    0.447286    11.00000   -1.50000
REM #####
AFIX   0
HKLF 4

REM  13RN078_0m in P-1
REM R1 =  0.0290 for    5133 Fo > 4sig(Fo)  and  0.0303 for all    5416 data
REM    230 parameters refined using      0 restraints

END

WGHT      0.0451      0.3707

REM Instructions for potential hydrogen bonds
EQIV $1 -x, -y+1, -z+1
HTAB C3 S3_$1
EQIV $2 -x-1, -y, -z
HTAB C15 O2_$2

REM Highest difference peak  0.534,  deepest hole -0.330,  1-sigma level  0.075
Q1    1  -0.4409  0.3606  0.2101  11.00000  0.05    0.53
Q2    1   0.4342 -0.0394  0.6353  11.00000  0.05    0.53
Q3    1  -0.3295  0.3655  0.0225  11.00000  0.05    0.53
Q4    1  -0.0071  0.0245  0.2137  11.00000  0.05    0.51
Q5    1  -0.2230  0.5970  0.0170  11.00000  0.05    0.50
Q6    1  -0.0768  0.2780  0.3256  11.00000  0.05    0.50
Q7    1  -0.3919  0.3440  0.1114  11.00000  0.05    0.50
Q8    1  -0.1330  0.0935  0.1926  11.00000  0.05    0.49
Q9    1  -0.2789  0.5973  0.0956  11.00000  0.05    0.47
Q10   1  -0.0355  0.1731  0.2758  11.00000  0.05    0.46
Q11   1   0.3501 -0.1222  0.5442  11.00000  0.05    0.45
Q12   1  -0.4948  0.2448  0.1166  11.00000  0.05    0.44
Q13   1  -0.2002  0.2814  0.2689  11.00000  0.05    0.44
Q14   1  -0.2637  0.3688 -0.0508  11.00000  0.05    0.43
Q15   1  -0.3233  0.4791  0.0971  11.00000  0.05    0.43
Q16   1   0.1154  0.0348  0.4068  11.00000  0.05    0.42
Q17   1  -0.1875  0.6070 -0.0781  11.00000  0.05    0.42
Q18   1   0.3715 -0.2369  0.4945  11.00000  0.05    0.41
Q19   1   0.0742  0.2539  0.3879  11.00000  0.05    0.40
Q20   1   0.3034  0.0213  0.5950  11.00000  0.05    0.38
;
_shelx_res_checksum              22633
_shelx_hkl_file
;
  -1   0   0 74.4997 2.37854   2
   1   0   0 53.9520 2.43867   1
  -2   0   0 1411.05 51.2570   3
  -2   0   0 1353.27 46.9186   2
   2   0   0 1323.36 47.9720   1
  -3   0   0 3197.26 123.343   3
  -3   0   0 3657.46 113.262   2
   3   0   0 2993.46 116.655   1
  -4   0   0 22.4037 1.25195   2
  -4   0   0 29.8544 1.31289   3
   4   0   0 23.3239 1.37848   1
  -5   0   0 0.37538 0.35585   2
  -5   0   0 0.82192 0.34214   3
   5   0   0 0.53160 0.43837   1
  -6   0   0 1.31065 0.44830   2
  -6   0   0 0.48100 0.31414   3
   6   0   0 0.11233 0.38408   1
  -7   0   0 127.880 5.17554   3
  -7   0   0 118.013 4.92931   2
   7   0   0 116.726 5.28241   1
  -8   0   0 40.0430 2.21383   2
   8   0   0 35.9842 2.44911   1
  -9   0   0 95.7397 4.31901   2
   9   0   0 92.8773 4.72932   1
 -10   0   0 638.861 22.9140   2
  10   0   0 633.948 24.0878   1
 -11   0   0 969.460 33.7419   2
  11   0   0 930.336 35.3000   1
  12   0   0 289.502 12.5371   1
  12  -1   0 0.88013 1.05109   1
  11  -1   0 73.3088 4.39386   1
  10  -1   0 789.545 29.3929   1
 -10   1   0 786.437 27.9804   2
   9  -1   0 3.33138 0.93014   1
  -9   1   0 1.45514 0.63754   2
   8  -1   0 35.1727 2.34851   1
   7  -1   0 265.917 10.6445   1
  -7   1   0 287.975 10.1501   2
  -7   1   0 265.299 10.7778   3
   5  -1   0 408.777 15.5955   1
  -5   1   0 415.796 14.9749   2
  -5   1   0 449.130 16.2821   3
   4  -1   0 34.5947 1.79313   1
  -4   1   0 36.6098 1.72285   3
  -4   1   0 37.2341 1.68263   2
   3  -1   0 4262.27 153.190   1
  -3   1   0 4163.35 148.044   2
  -3   1   0 4512.63 162.010   3
   2  -1   0 4492.53 169.924   1
   2  -1   0 5288.40 180.412   3
  -2   1   0 4649.75 164.311   2
   1  -1   0 61.1514 2.45157   3
   1  -1   0 51.9759 2.28015   1
  -1   1   0 60.0975 2.23500   2
  -1  -1   0 5499.05 187.768   2
  -2  -1   0 263.381 10.4756   3
  -2  -1   0 272.988 9.63724   2
   2   1   0 276.829 9.96098   1
  -3  -1   0 1464.28 51.3137   2
   3   1   0 1542.10 53.0756   1
  -4  -1   0 613.171 21.8359   2
  -4  -1   0 632.187 23.7451   3
   4   1   0 643.525 22.6589   1
  -5  -1   0 16.8763 0.99726   3
  -5  -1   0 15.7869 1.08141   2
   5   1   0 17.4777 1.23025   1
  -6  -1   0 295.540 10.8772   2
  -6  -1   0 295.285 11.5716   3
   6   1   0 306.262 11.4210   1
  -7  -1   0 1102.89 38.3957   2
   7   1   0 1109.85 39.8652   1
  -8  -1   0 224.671 8.68693   2
   8   1   0 226.636 9.22292   1
  -9  -1   0 327.363 12.1699   2
   9   1   0 318.692 12.8339   1
 -10  -1   0 127.613 5.63508   2
  10   1   0 123.368 6.09144   1
 -11  -1   0 0.99155 0.87125   2
  11   1   0 1.63330 1.05011   1
  12   1   0 2.05556 1.37891   1
  12  -2   0 51.6006 3.87829   1
  11  -2   0 76.3725 4.54257   1
  10  -2   0 56.0910 3.53867   1
 -10   2   0 54.4505 3.08397   2
   9  -2   0 49.3982 3.09976   1
  -9   2   0 52.3318 2.76647   2
   8  -2   0 248.379 10.0490   1
  -8   2   0 252.476 9.45314   2
   7  -2   0 3582.87 133.784   1
  -7   2   0 3983.52 141.743   3
  -7   2   0 3807.55 129.301   2
   6  -2   0 422.235 16.1850   1
  -6   2   0 454.691 16.8634   3
  -6   2   0 432.330 15.5047   2
  -5   2   0 71.1113 3.13794   3
  -5   2   0 71.2354 2.97310   2
   4  -2   0 25.7155 1.37955   3
  -4   2   0 27.4367 1.34832   2
   3  -2   0 410.973 14.8697   1
   3  -2   0 420.335 15.7093   3
  -3   2   0 404.915 14.3487   2
   2  -2   0 2206.18 90.1954   3
   2  -2   0 2720.97 86.3468   1
  -2   2   0 2322.85 83.0461   2
   1  -2   0 -2.2978 0.22509   1
  -1   2   0 -2.1192 0.28273   2
   0  -2   0 1227.56 45.7775   3
   0  -2   0 1218.56 43.0552   1
  -1  -2   0 25.9912 1.19609   2
  -1  -2   0 27.0000 1.28545   3
   1   2   0 26.8378 1.09881   1
   2   2   0 3587.78 127.086   1
  -3  -2   0 903.499 32.7232   3
  -3  -2   0 852.090 29.9347   2
   3   2   0 849.340 30.8757   1
  -4  -2   0 3401.35 116.152   2
  -4  -2   0 3355.34 126.740   3
   4   2   0 3332.99 119.272   1
  -5  -2   0 1501.61 53.1611   3
  -5  -2   0 1369.07 48.6670   2
   5   2   0 1375.89 50.3129   1
  -6  -2   0 136.994 5.84440   2
  -6  -2   0 163.304 6.14413   3
   6   2   0 148.070 6.16595   1
  -7  -2   0 1440.89 51.9064   2
   7   2   0 1566.82 53.8311   1
  -8  -2   0 10.2650 1.23134   2
   8   2   0 7.53566 1.15953   1
  -9  -2   0 19.0377 1.70859   2
   9   2   0 19.8021 1.97413   1
 -10  -2   0 5.76196 1.17134   2
  10   2   0 5.15090 1.25270   1
 -11  -2   0 119.918 5.71272   2
  11   2   0 125.419 6.28246   1
  12  -3   0 84.7002 5.08937   1
  11  -3   0 4.48077 1.28044   1
  10  -3   0 613.034 22.6744   1
 -10   3   0 575.137 21.3485   2
   9  -3   0 89.9540 4.64494   1
  -9   3   0 96.4812 4.27725   2
   8  -3   0 7.07588 1.09634   1
  -8   3   0 5.94846 0.87929   2
   7  -3   0 391.595 14.5565   1
  -7   3   0 378.223 15.0016   3
  -7   3   0 379.623 13.8278   2
   6  -3   0 511.552 19.1003   1
  -6   3   0 535.002 18.3508   2
  -6   3   0 511.129 19.9754   3
   5  -3   0 432.824 16.7018   3
   5  -3   0 429.900 15.9150   1
  -5   3   0 433.978 15.3146   2
   4  -3   0 1508.19 54.2515   1
   4  -3   0 1540.72 57.5603   3
  -4   3   0 1550.00 52.4854   2
   3  -3   0 1272.61 48.6002   3
   3  -3   0 1283.69 45.7202   1
  -3   3   0 1323.55 44.3023   2
   2  -3   0 26.4419 1.26965   1
   2  -3   0 28.7301 1.48436   3
  -2   3   0 25.1911 1.31326   2
   1  -3   0 259.751 10.1142   3
   1  -3   0 262.306 9.25818   1
  -1   3   0 255.316 9.18277   2
   0  -3   0 3075.44 109.684   1
   0  -3   0 2869.83 117.689   3
   0   3   0 3419.39 108.019   2
  -1  -3   0 754.554 28.8574   3
  -1  -3   0 728.076 26.3230   2
   1   3   0 791.748 26.9358   1
  -2  -3   0 748.780 29.4683   3
   2   3   0 811.062 27.6299   1
  -3  -3   0 603.809 23.7763   3
   3   3   0 648.148 22.3888   1
  -4  -3   0 45.9691 2.12639   3
   4   3   0 37.8683 1.99711   1
  -5  -3   0 3.06021 0.54070   3
  -5  -3   0 0.41497 0.40573   2
   5   3   0 1.05861 0.42576   1
  -6  -3   0 41.6753 2.24172   3
  -6  -3   0 49.2742 2.41180   2
   6   3   0 41.7360 2.37154   1
  -7  -3   0 817.285 29.2197   2
   7   3   0 843.568 30.2448   1
  -8  -3   0 297.494 11.5947   2
   8   3   0 315.469 12.1183   1
  -9  -3   0 259.693 10.3153   2
   9   3   0 266.153 10.7736   1
 -10  -3   0 703.060 25.3790   2
  10   3   0 697.118 26.3642   1
 -11  -3   0 65.1695 3.84754   2
  11   3   0 62.8610 4.13374   1
  12  -4   0 12.5589 2.03353   1
  11  -4   0 87.3388 4.95014   1
  10  -4   0 6.54425 1.35185   1
   9  -4   0 324.411 12.6339   1
  -9   4   0 306.054 11.7703   2
   8  -4   0 0.26001 0.56682   1
  -8   4   0 0.74458 0.50520   2
   7  -4   0 382.758 14.6764   1
  -7   4   0 387.060 15.2644   3
  -7   4   0 393.391 14.0418   2
   6  -4   0 63.9023 3.06162   1
   6  -4   0 63.5664 3.08476   3
  -6   4   0 59.1906 2.83479   2
   5  -4   0 802.502 28.4905   1
   5  -4   0 795.150 30.1643   3
  -5   4   0 776.927 27.5178   2
   4  -4   0 1689.70 65.0462   3
   4  -4   0 1723.79 61.2096   1
  -4   4   0 1776.51 59.2946   2
   3  -4   0 2069.76 79.0450   3
   3  -4   0 2059.37 74.4332   1
  -3   4   0 2195.58 72.0233   2
   2  -4   0 2774.61 112.981   3
   2  -4   0 3165.05 106.455   1
  -2   4   0 3069.83 102.295   2
   1  -4   0 1100.43 36.8577   1
   1  -4   0 1020.02 39.5737   3
  -1   4   0 1020.21 36.0058   2
   0  -4   0 3.26611 0.58217   3
   0   4   0 3.97713 0.57574   2
  -1  -4   0 183.904 7.66108   3
   1   4   0 197.687 6.87289   1
   1   4   0 186.583 7.04309   2
  -2  -4   0 56.5459 2.65053   2
  -2  -4   0 57.6651 2.82801   3
   2   4   0 65.3588 2.48174   1
  -3  -4   0 1054.47 36.7676   2
  -3  -4   0 1022.72 40.1480   3
   3   4   0 1109.55 37.6933   1
  -4  -4   0 169.190 6.58772   2
  -4  -4   0 162.552 6.96498   3
   4   4   0 177.615 6.59257   1
  -5  -4   0 319.666 12.0122   2
  -5  -4   0 330.110 12.8675   3
   5   4   0 329.898 12.2338   1
  -6  -4   0 661.956 24.1396   2
  -6  -4   0 691.073 26.0801   3
   6   4   0 687.885 24.8120   1
  -7  -4   0 302.883 11.4782   2
   7   4   0 300.639 11.7205   1
  -8  -4   0 11.0182 1.42480   2
   8   4   0 7.95526 1.24251   1
  -9  -4   0 1815.57 63.5263   2
   9   4   0 1839.19 65.6114   1
 -10  -4   0 3.29415 1.07582   2
  10   4   0 2.54591 1.12077   1
 -11  -4   0 14.1949 1.93836   2
  11   4   0 15.1779 2.07668   1
  11  -5   0 99.5435 5.38423   1
  10  -5   0 9.22918 1.54115   1
   9  -5   0 10.7129 1.51978   1
  -9   5   0 10.1899 1.33266   2
   8  -5   0 275.986 10.8967   1
  -8   5   0 269.329 10.2692   2
  -8   5   0 272.754 11.1931   3
   7  -5   0 1.15639 0.63068   1
  -7   5   0 2.14630 0.61983   2
   6  -5   0 247.351 9.76407   1
   6  -5   0 249.840 10.2723   3
  -6   5   0 260.450 9.46812   2
   5  -5   0 3332.22 118.486   1
   5  -5   0 3458.83 125.977   3
  -5   5   0 3298.00 114.725   2
   4  -5   0 107.525 4.82720   3
   4  -5   0 110.029 4.40102   1
  -4   5   0 107.158 4.38667   2
   3  -5   0 173.548 6.41667   1
   3  -5   0 158.133 7.06711   3
  -3   5   0 178.639 6.48911   2
   2  -5   0 3.89056 0.64031   3
  -2   5   0 3.76324 0.56863   2
   1  -5   0 26.1600 1.74958   3
   1  -5   0 28.3047 1.22249   1
  -1   5   0 30.7443 1.62863   2
   0  -5   0 62.0757 3.04190   3
   0   5   0 62.3023 2.81165   2
  -1  -5   0 17.2183 1.26737   3
   1   5   0 17.1690 1.22042   2
   1   5   0 17.7837 0.83097   1
  -2  -5   0 613.555 24.2165   3
   2   5   0 646.399 22.4024   1
  -3  -5   0 540.049 21.2642   3
  -3  -5   0 548.690 19.5543   2
   3   5   0 562.789 19.7590   1
  -4  -5   0 348.359 14.0712   3
  -4  -5   0 358.172 13.1227   2
   4   5   0 364.106 13.1389   1
  -5  -5   0 326.877 12.2004   2
  -5  -5   0 318.994 12.9668   3
   5   5   0 332.258 12.2340   1
  -6  -5   0 525.228 19.5633   2
  -6  -5   0 553.873 21.0342   3
   6   5   0 542.771 19.9225   1
  -7  -5   0 217.460 8.80906   2
   7   5   0 221.484 8.86937   1
  -8  -5   0 67.8241 3.68719   2
   8   5   0 65.4473 3.60408   1
  -9  -5   0 267.722 10.9880   2
   9   5   0 279.892 11.2179   1
 -10  -5   0 31.6930 2.67406   2
  11  -6   0 24.4338 2.51489   1
  10  -6   0 584.102 22.2693   1
   9  -6   0 933.816 34.2707   1
   8  -6   0 1.08832 0.64664   1
  -8   6   0 1.06776 0.69159   3
  -8   6   0 0.73045 0.58537   2
   7  -6   0 6.46592 1.02026   3
   7  -6   0 6.28566 0.94757   1
   6  -6   0 154.978 6.42077   1
   6  -6   0 164.145 6.94506   3
  -6   6   0 152.998 6.27333   2
   5  -6   0 1.90819 0.49263   1
   5  -6   0 2.38517 0.65298   3
  -5   6   0 2.11769 0.57299   2
   4  -6   0 741.227 27.0992   1
   4  -6   0 756.201 29.1705   3
  -4   6   0 774.656 26.5630   2
   3  -6   0 2.94696 0.43251   1
   3  -6   0 1.97606 0.58200   3
  -3   6   0 4.01101 0.66542   2
   2  -6   0 208.951 7.06846   1
   2  -6   0 180.885 8.04894   3
  -2   6   0 185.114 7.30333   2
   1  -6   0 2930.30 110.574   3
  -1   6   0 2963.97 100.672   2
   0  -6   0 530.273 20.5660   3
   0   6   0 523.874 18.7332   2
  -1  -6   0 257.142 10.2152   3
   1   6   0 241.074 9.33041   2
  -2  -6   0 3826.62 143.262   3
   2   6   0 3826.70 130.636   2
  -3  -6   0 5.00647 0.84915   3
  -4  -6   0 0.13465 0.59266   2
  -4  -6   0 1.36482 0.59378   3
  -5  -6   0 861.028 33.2950   3
  -5  -6   0 873.763 30.7080   2
  -6  -6   0 7.53152 1.28796   2
  -7  -6   0 283.690 11.2125   2
  -8  -6   0 8.55949 1.49401   2
  -9  -6   0 241.039 10.1062   2
 -10  -6   0 39.9108 3.23467   2
  10  -7   0 40.3850 2.95736   1
   9  -7   0 0.25005 0.65894   1
   8  -7   0 791.787 30.0027   3
   8  -7   0 743.273 28.1896   1
  -8   7   0 770.441 27.3283   2
   7  -7   0 257.852 10.6150   3
   7  -7   0 241.061 9.81888   1
  -7   7   0 252.373 9.68734   2
   6  -7   0 8.80440 1.21477   3
   6  -7   0 5.40933 0.86895   1
  -6   7   0 7.65955 1.08536   2
   5  -7   0 113.922 5.35738   3
  -5   7   0 110.704 4.84355   2
   4  -7   0 17.1617 1.65303   3
  -4   7   0 17.6259 1.45007   2
   3  -7   0 316.514 13.0266   3
  -3   7   0 321.858 11.8177   2
  -2   7   0 3.94593 0.77096   2
   1  -7   0 2230.90 84.5763   3
  -1   7   0 2255.60 77.0002   2
   0  -7   0 2.89409 0.70645   3
   0   7   0 1.93248 0.71174   2
  -1  -7   0 9.80936 1.24354   3
   1   7   0 5.79045 0.92655   2
  -2  -7   0 437.506 17.4233   3
   2   7   0 439.414 16.0321   2
  -3  -7   0 35.6875 2.33063   3
   3   7   0 33.5315 2.22789   2
  -4  -7   0 35.5698 2.34109   3
   4   7   0 33.5896 2.45040   2
  -5  -7   0 28.7943 2.09686   3
  -6  -7   0 53.6196 3.27994   2
  -7  -7   0 22.7641 2.17465   2
  -8  -7   0 15.6477 1.98471   2
  -9  -7   0 108.701 5.65201   2
   8  -8   0 639.011 25.4730   3
  -8   8   0 648.267 23.3127   2
   7  -8   0 30.8526 2.51890   3
  -7   8   0 31.2489 2.34590   2
   6  -8   0 95.1635 4.96921   3
  -6   8   0 98.8525 4.55412   2
   5  -8   0 835.420 33.7033   3
  -5   8   0 902.163 30.7393   2
   4  -8   0 122.486 5.86329   3
  -4   8   0 121.050 5.25899   2
   3  -8   0 13.8821 1.56610   3
  -3   8   0 14.6891 1.46469   2
   2  -8   0 236.594 10.3198   3
  -2   8   0 248.978 9.38143   2
   1  -8   0 1.09480 0.65509   3
  -1   8   0 2.37885 0.74203   2
   0  -8   0 460.444 18.6093   3
   0   8   0 468.754 16.9376   2
  -1  -8   0 120.334 5.81470   3
   1   8   0 121.493 5.33219   2
  -2  -8   0 497.725 19.5962   3
   2   8   0 481.905 17.9592   2
  -3  -8   0 3.67552 0.96277   3
   3   8   0 2.82183 0.93877   2
  -4  -8   0 629.008 24.4879   3
   4   8   0 614.330 22.6292   2
  -5  -8   0 545.102 21.6519   3
   5   8   0 544.858 20.1576   2
   6   8   0 232.177 9.65926   2
   8  -9   0 566.886 22.8604   3
   7  -9   0 13.9659 1.88140   3
  -7   9   0 17.3393 1.90233   2
   6  -9   0 269.552 11.8736   3
  -6   9   0 279.252 10.7879   2
   5  -9   0 99.0242 5.27005   3
  -5   9   0 101.461 4.72670   2
   4  -9   0 17.7734 2.03015   3
  -4   9   0 20.8431 1.85301   2
   3  -9   0 133.059 6.44554   3
  -3   9   0 133.373 5.81151   2
   2  -9   0 806.467 31.9871   3
  -2   9   0 830.309 29.0901   2
   1  -9   0 152.759 7.15619   3
  -1   9   0 151.588 6.46312   2
   0  -9   0 1.04007 0.76279   3
   0   9   0 2.33891 0.82311   2
  -1  -9   0 3.37235 1.00474   3
   1   9   0 2.33023 0.85316   2
  -2  -9   0 4.86550 1.22704   3
   2   9   0 5.54166 1.12493   2
  -3  -9   0 143.678 6.86380   3
   3   9   0 141.207 6.42868   2
  -4  -9   0 438.790 18.1357   3
   4   9   0 451.362 16.9175   2
  -5  -9   0 58.3668 3.66765   3
   5   9   0 60.5888 3.74243   2
   6   9   0 19.7646 2.33550   2
   7   9   0 16.5549 2.18906   2
   8 -10   0 52.3783 3.75222   3
   7 -10   0 194.791 9.32133   3
  -7  10   0 205.444 8.75188   2
   6 -10   0 4.94735 1.35080   3
  -6  10   0 6.03059 1.25666   2
   5 -10   0 313.874 13.3034   3
  -5  10   0 298.565 11.9168   2
   4 -10   0 -1.1110 0.73269   3
  -4  10   0 0.29784 0.83319   2
   3 -10   0 659.771 26.2042   3
  -3  10   0 652.181 23.7539   2
   2 -10   0 810.374 31.3868   3
  -2  10   0 778.047 28.4371   2
   1 -10   0 875.722 34.5747   3
  -1  10   0 887.164 31.4496   2
   0 -10   0 560.233 22.2612   3
   0  10   0 539.345 20.2085   2
  -1 -10   0 147.370 7.18404   3
   1  10   0 148.713 6.65670   2
  -2 -10   0 120.927 6.14524   3
   2  10   0 116.169 5.66824   2
  -3 -10   0 70.7998 4.28127   3
   3  10   0 71.1348 4.18433   2
  -4 -10   0 112.547 6.00274   3
   4  10   0 117.647 5.85008   2
   5  10   0 33.3209 2.89637   2
   7 -11   0 0.67010 1.06940   3
   6 -11   0 216.418 10.0958   3
  -6  11   0 211.890 9.06821   2
   5 -11   0 21.7872 2.57925   3
  -5  11   0 22.4368 2.27003   2
   4 -11   0 236.812 10.7720   3
  -4  11   0 232.821 9.65251   2
   3 -11   0 934.957 35.3260   3
  -3  11   0 849.406 31.8675   2
   2 -11   0 245.950 10.9518   3
  -2  11   0 233.789 9.77335   2
   1 -11   0 100.107 5.63875   3
  -1  11   0 103.345 5.13020   2
   0 -11   0 1.09857 1.01667   3
   0  11   0 2.26408 1.08585   2
  -1 -11   0 83.9790 4.91880   3
   1  11   0 77.7296 4.47750   2
  -2 -11   0 166.647 8.49170   3
   2  11   0 189.164 8.02529   2
  -3 -11   0 5.34581 1.42550   3
   3  11   0 7.15344 1.54310   2
  -4 -11   0 22.8055 2.65548   3
   4  11   0 26.3569 2.73975   2
  -5  12   0 -0.0552 0.86395   2
   4 -12   0 87.2052 5.26663   3
  -4  12   0 82.0799 4.55681   2
   3 -12   0 7.49254 1.65434   3
  -3  12   0 7.02293 1.42612   2
   2 -12   0 64.3385 4.44728   3
  -2  12   0 66.2207 3.97168   2
   1 -12   0 161.455 8.09046   3
  -1  12   0 154.643 7.20197   2
   0 -12   0 130.544 6.98937   3
   0  12   0 126.724 6.29771   2
  -1 -12   0 808.533 32.7332   3
   1  12   0 828.518 29.9449   2
  -2 -12   0 26.1062 2.95904   3
  -3 -12   1 213.830 10.0924   3
   2  12  -1 50.5914 3.60384   2
  -2 -12   1 49.4976 3.81797   3
   1  12  -1 25.1352 2.48154   2
  -1 -12   1 25.1351 2.86342   3
   0  12  -1 5.97545 1.33527   2
   0 -12   1 8.05534 1.71509   3
  -1  12  -1 156.823 7.21559   2
   1 -12   1 167.834 8.18100   3
  -2  12  -1 37.5536 2.85717   2
   2 -12   1 42.5207 3.44164   3
  -3  12  -1 108.856 5.50369   2
   3 -12   1 117.245 6.32935   3
  -4  12  -1 32.0725 2.66880   2
   4 -12   1 30.3878 3.08089   3
   5 -12   1 11.8147 1.99892   3
   4  11  -1 177.157 8.00968   2
  -4 -11   1 165.977 8.21797   3
   3  11  -1 18.7255 2.28054   2
  -3 -11   1 24.6742 2.52294   3
   2  11  -1 -0.7634 0.93777   2
  -2 -11   1 0.95756 1.03435   3
   1  11  -1 173.562 7.70656   2
  -1 -11   1 179.459 8.50165   3
   0  11  -1 122.402 6.00560   2
   0 -11   1 137.252 6.82089   3
  -1  11  -1 312.266 12.4373   2
   1 -11   1 325.627 13.8281   3
  -2  11  -1 766.345 27.8895   2
   2 -11   1 783.488 30.8467   3
  -3  11  -1 47.5357 3.04016   2
   3 -11   1 42.1496 3.42663   3
  -4  11  -1 158.869 6.87114   2
   4 -11   1 150.953 7.70449   3
  -5  11  -1 112.900 5.31559   2
   5 -11   1 102.472 5.91143   3
   6 -11   1 20.0391 2.47782   3
   7 -11   1 19.2182 2.49872   3
   8 -11   1 74.1079 5.26385   3
   6  10  -1 103.544 5.56071   2
   5  10  -1 27.2003 2.64864   2
   4  10  -1 400.699 15.5681   2
  -4 -10   1 403.549 16.6797   3
   3  10  -1 8.33200 1.57410   2
  -3 -10   1 8.05217 1.41955   3
   2  10  -1 36.8841 2.87740   2
  -2 -10   1 43.9198 3.07411   3
   1  10  -1 1057.54 38.0285   2
  -1 -10   1 1095.83 41.8305   3
   0  10  -1 485.622 18.2143   2
   0 -10   1 502.442 20.1250   3
  -1  10  -1 6.14612 1.14864   2
   1 -10   1 5.47949 1.26621   3
  -2  10  -1 370.898 13.9236   2
   2 -10   1 365.465 15.3995   3
  -3  10  -1 1213.99 42.1398   2
   3 -10   1 1186.77 46.4262   3
  -4  10  -1 88.4744 4.33304   2
   4 -10   1 84.9108 4.88516   3
  -5  10  -1 292.193 11.4569   2
   5 -10   1 297.908 12.8310   3
  -6  10  -1 9.57694 1.53187   2
   6 -10   1 7.52107 1.51049   3
   7 -10   1 24.2063 2.56108   3
   8 -10   1 68.6299 4.38538   3
   7   9  -1 51.7774 3.67162   2
   6   9  -1 31.7668 2.74604   2
   5   9  -1 361.693 14.2674   2
  -5  -9   1 373.574 15.5031   3
   4   9  -1 3.80294 1.07971   2
  -4  -9   1 2.91895 0.99985   3
   3   9  -1 179.521 7.71271   2
  -3  -9   1 184.453 8.26973   3
   2   9  -1 612.477 22.5082   2
  -2  -9   1 627.472 24.5833   3
   1   9  -1 172.014 7.02544   2
  -1  -9   1 161.221 7.58778   3
   0   9  -1 188.015 7.47815   2
   0  -9   1 176.402 8.19441   3
  -1   9  -1 418.577 15.3864   2
   1  -9   1 414.064 16.9700   3
  -2   9  -1 252.923 9.56130   2
   2  -9   1 237.451 10.5595   3
  -3   9  -1 137.941 5.69390   2
   3  -9   1 123.900 6.28368   3
  -4   9  -1 50.8942 2.93926   2
   4  -9   1 56.7883 3.47594   3
  -5   9  -1 311.131 12.0372   2
   5  -9   1 323.334 13.4399   3
  -6   9  -1 1368.96 47.6289   2
   6  -9   1 1361.03 52.4702   3
   7  -9   1 1.27083 0.86943   3
   8  -9   1 30.0215 2.73118   3
  -8  -8   1 1136.09 40.7030   2
  -7  -8   1 220.009 9.40981   2
  -5  -8   1 369.749 15.0873   3
   4   8  -1 557.968 20.5722   2
  -4  -8   1 566.426 22.2583   3
   3   8  -1 55.4881 3.11048   2
  -3  -8   1 54.6966 3.23829   3
   2   8  -1 88.1080 4.18630   2
  -2  -8   1 87.6302 4.48874   3
   1   8  -1 131.879 5.57855   2
  -1  -8   1 127.258 6.02768   3
   0   8  -1 36.8897 2.24491   2
   0  -8   1 39.0250 2.54968   3
  -1   8  -1 471.861 16.6200   2
   1  -8   1 443.068 18.2694   3
  -2   8  -1 128.058 5.44335   2
   2  -8   1 133.066 6.12982   3
  -3   8  -1 1267.13 43.8385   2
   3  -8   1 1255.64 48.2715   3
  -4   8  -1 5.05798 0.90508   2
   4  -8   1 6.12387 1.07911   3
  -5   8  -1 771.305 27.1394   2
   5  -8   1 761.746 29.9445   3
  -6   8  -1 451.013 15.9769   2
   6  -8   1 419.767 17.6199   3
  -7   8  -1 219.742 8.84148   2
   7  -8   1 216.780 9.58922   3
  -9  -7   1 119.464 6.00132   2
  -8  -7   1 157.107 7.16245   2
  -7  -7   1 37.8602 2.76901   2
  -5  -7   1 562.945 21.6741   3
  -5  -7   1 542.091 20.1561   2
  -4  -7   1 192.808 8.25913   3
  -4  -7   1 194.088 7.88547   2
   3   7  -1 145.192 6.04431   2
  -3  -7   1 140.299 6.35418   3
   2   7  -1 140.270 5.81243   2
  -2  -7   1 139.367 6.28271   3
   1   7  -1 2602.44 90.5866   2
  -1  -7   1 2684.94 99.4493   3
   0   7  -1 16.3839 1.36976   2
   0  -7   1 13.7629 1.41131   3
  -1   7  -1 5.76725 0.82920   2
   1  -7   1 3.22742 0.75170   3
  -2   7  -1 92.4691 3.95819   2
   2  -7   1 89.7466 4.43660   3
  -3   7  -1 118.794 5.04020   2
   3  -7   1 130.459 4.88581   1
   3  -7   1 119.564 5.66084   3
  -4   7  -1 109.866 4.62903   2
   4  -7   1 112.647 4.53069   1
   4  -7   1 106.643 5.18675   3
  -5   7  -1 3.36104 0.70537   2
   5  -7   1 2.54508 0.74426   3
   5  -7   1 3.34936 0.65935   1
  -6   7  -1 433.280 15.1789   2
   6  -7   1 415.555 16.7581   3
   6  -7   1 401.269 15.5381   1
  -7   7  -1 22.7102 1.71665   2
   7  -7   1 21.9383 1.73940   1
   7  -7   1 23.1555 2.00089   3
  -8   7  -1 593.350 23.8395   3
   8  -7   1 616.888 22.5767   1
   9  -7   1 445.196 17.1660   1
  10  -7   1 341.575 13.7607   1
  11  -7   1 348.663 14.2587   1
 -10  -6   1 48.9933 3.47795   2
  -9  -6   1 1.03758 0.88419   2
  -8  -6   1 69.2417 3.90313   2
  -7  -6   1 0.28082 0.66447   2
   6   6  -1 543.186 19.2929   1
  -6  -6   1 498.400 19.0317   2
   5   6  -1 937.097 32.9245   1
  -5  -6   1 896.712 32.3111   2
  -5  -6   1 913.835 34.9983   3
   4   6  -1 2950.08 99.6382   1
  -4  -6   1 2756.76 106.022   3
  -4  -6   1 2772.47 96.8926   2
   3   6  -1 152.409 5.66602   1
  -3  -6   1 139.706 6.28587   3
   2   6  -1 917.271 33.5553   2
   2   6  -1 1038.53 34.1456   1
  -2  -6   1 931.755 36.6929   3
   1   6  -1 1128.14 40.4589   2
   1   6  -1 1246.16 41.2501   1
  -1  -6   1 1131.26 44.3790   3
   0   6  -1 282.066 10.4886   2
   0  -6   1 280.024 11.5057   3
   0  -6   1 294.410 10.2801   1
  -1   6  -1 8.91594 0.88022   2
   1  -6   1 10.3467 0.64258   1
   1  -6   1 8.67333 1.03987   3
  -2   6  -1 38.7632 2.03485   2
   2  -6   1 42.0062 1.84168   1
   2  -6   1 38.0946 2.31089   3
  -3   6  -1 154.259 6.03994   2
   3  -6   1 163.366 6.03401   1
   3  -6   1 150.753 6.72030   3
  -4   6  -1 33.7004 1.88433   2
   4  -6   1 30.8393 2.13200   3
   4  -6   1 42.5253 1.95727   1
  -5   6  -1 959.823 32.6348   2
   5  -6   1 948.488 35.9461   3
   5  -6   1 905.037 33.6223   1
  -6   6  -1 1.98340 0.58335   2
   6  -6   1 1.35765 0.54168   1
   6  -6   1 1.42058 0.63038   3
  -7   6  -1 67.5648 3.20815   2
   7  -6   1 67.9619 3.47898   1
  -8   6  -1 1862.41 72.5125   3
   8  -6   1 1973.22 68.6006   1
   9  -6   1 123.025 5.86215   1
  10  -6   1 12.8314 1.76966   1
  11  -6   1 25.6194 2.62855   1
  11   5  -1 2.52873 1.24372   1
 -11  -5   1 2.27390 1.10094   2
  10   5  -1 14.3125 1.87653   1
 -10  -5   1 10.7429 1.63449   2
   9   5  -1 0.14783 0.75056   1
  -9  -5   1 0.06130 0.69922   2
   8   5  -1 397.009 15.0220   1
  -8  -5   1 380.312 14.6782   2
   7   5  -1 327.631 12.3770   1
  -7  -5   1 309.847 12.1329   2
   6   5  -1 53.1452 2.73162   1
  -6  -5   1 47.1413 2.74904   2
   5   5  -1 1163.45 40.4278   1
  -5  -5   1 1084.66 39.3602   2
  -5  -5   1 1142.84 42.8428   3
   4   5  -1 113.556 4.45743   1
  -4  -5   1 108.437 4.74467   3
  -4  -5   1 101.483 4.53840   2
   3   5  -1 58.0082 2.46009   1
  -3  -5   1 52.8853 2.70305   3
  -3  -5   1 55.0020 2.67153   2
   2   5  -1 71.1556 2.78526   1
  -2  -5   1 63.4995 3.17297   3
   1   5  -1 384.386 13.6344   2
   1   5  -1 385.590 13.6470   1
  -1  -5   1 373.730 14.9078   3
   0   5  -1 57.0441 2.48361   2
   0  -5   1 55.7200 2.16405   1
   0  -5   1 50.5904 2.67102   3
  -1   5  -1 1617.37 59.9963   2
   1  -5   1 1856.19 61.7197   1
   1  -5   1 1788.40 66.0194   3
  -2   5  -1 3750.98 126.214   2
   2  -5   1 3632.37 129.931   1
   2  -5   1 3663.80 138.933   3
  -3   5  -1 402.328 14.6725   2
   3  -5   1 414.681 16.2308   3
   3  -5   1 427.380 15.0729   1
  -4   5  -1 1878.53 65.3330   2
   4  -5   1 2028.99 71.9084   3
   4  -5   1 1820.13 67.4697   1
  -5   5  -1 85.7789 3.70483   2
   5  -5   1 93.6263 3.98171   1
   5  -5   1 89.5991 4.19604   3
  -6   5  -1 4.36091 0.69246   2
   6  -5   1 6.20628 0.90535   3
  -7   5  -1 60.8314 3.22137   3
  -7   5  -1 61.2965 2.90477   2
   7  -5   1 61.6658 3.24193   1
  -8   5  -1 11.7474 1.23125   2
  -8   5  -1 13.1301 1.38056   3
   8  -5   1 11.0581 1.41824   1
   9  -5   1 0.31730 0.64505   1
  10  -5   1 203.229 8.92024   1
  11  -5   1 883.907 33.1292   1
  11   4  -1 288.335 12.0487   1
 -11  -4   1 283.703 11.6166   2
  10   4  -1 140.839 6.60368   1
 -10  -4   1 134.525 6.28612   2
   9   4  -1 44.4624 2.97014   1
  -9  -4   1 40.6804 2.81614   2
   8   4  -1 25.6760 2.09066   1
  -8  -4   1 27.8802 2.11163   2
   7   4  -1 793.307 28.2598   1
  -7  -4   1 752.737 27.3912   2
   6   4  -1 311.345 12.0474   1
  -6  -4   1 315.043 12.4292   3
  -6  -4   1 323.625 11.8103   2
   5   4  -1 331.080 12.5482   1
  -5  -4   1 324.884 12.2964   2
  -5  -4   1 351.885 13.1386   3
   4   4  -1 734.406 26.2742   1
  -4  -4   1 729.855 27.8209   3
  -4  -4   1 732.410 25.6361   2
   3   4  -1 162.239 6.29633   1
  -3  -4   1 165.478 6.31875   2
  -3  -4   1 170.409 6.76083   3
   2   4  -1 1026.18 35.2811   1
  -2  -4   1 940.808 34.3697   2
  -2  -4   1 1023.16 37.6396   3
   1   4  -1 1997.58 66.0661   1
  -1  -4   1 1745.00 70.2654   3
  -1  -4   1 1882.73 64.0789   2
   0   4  -1 367.705 12.5884   2
   0  -4   1 345.786 12.6848   1
   0  -4   1 351.696 13.8163   3
  -1   4  -1 5966.89 209.643   2
   1  -4   1 6528.75 215.490   1
   1  -4   1 5815.37 230.301   3
  -2   4  -1 3269.32 103.340   2
   2  -4   1 2740.67 112.935   3
   2  -4   1 3001.28 106.691   1
  -3   4  -1 19.6804 1.10871   2
   3  -4   1 19.4086 1.14502   1
   3  -4   1 18.2662 1.29061   3
  -4   4  -1 45.8155 2.09721   2
   4  -4   1 44.6792 2.23551   1
   4  -4   1 48.0238 2.41582   3
  -5   4  -1 344.565 12.0562   2
   5  -4   1 332.802 13.2711   3
   5  -4   1 332.346 12.6066   1
  -6   4  -1 11.4465 1.12579   3
  -6   4  -1 11.3604 0.96815   2
   6  -4   1 9.87792 1.12040   1
  -7   4  -1 3.26129 0.63653   2
  -7   4  -1 4.36519 0.76380   3
   7  -4   1 4.65935 0.89595   1
  -8   4  -1 9.57946 1.16072   3
  -8   4  -1 9.01850 1.04635   2
   8  -4   1 7.47521 1.16963   1
   9  -4   1 1.42356 0.80275   1
  10  -4   1 45.0950 3.19907   1
  11  -4   1 10.9829 1.81408   1
 -12  -3   1 342.422 13.6131   2
  11   3  -1 26.3013 2.61189   1
 -11  -3   1 25.2166 2.40322   2
  10   3  -1 8.71399 1.54313   1
 -10  -3   1 8.83974 1.35595   2
   9   3  -1 371.025 14.5641   1
  -9  -3   1 372.463 14.0168   2
   8   3  -1 367.953 14.0390   1
  -8  -3   1 356.334 13.5135   2
   7   3  -1 7.34809 1.05641   1
  -7  -3   1 6.50953 1.00411   2
   6   3  -1 594.983 20.8790   1
  -6  -3   1 590.073 21.6594   3
  -6  -3   1 518.131 20.1132   2
   5   3  -1 302.529 11.5394   1
  -5  -3   1 325.517 11.9573   3
  -5  -3   1 294.469 11.2147   2
   4   3  -1 161.708 6.25582   1
  -4  -3   1 165.408 6.45188   3
  -4  -3   1 155.254 6.12273   2
   3   3  -1 241.144 8.93897   1
  -3  -3   1 235.307 8.75017   2
  -3  -3   1 247.204 9.40837   3
   2   3  -1 755.696 26.1241   1
  -2  -3   1 740.058 27.7794   3
  -2  -3   1 708.188 25.4054   2
  -1  -3   1 210.518 8.35337   3
  -1  -3   1 217.831 7.66776   2
   0   3  -1 242.573 8.81921   2
   0  -3   1 254.411 8.95224   1
   0  -3   1 253.214 9.71856   3
  -1   3  -1 196.516 6.87937   2
   1  -3   1 187.689 7.60802   3
   1  -3   1 194.552 7.02474   1
  -2   3  -1 2102.91 69.2206   2
   2  -3   1 2015.05 70.9045   1
   2  -3   1 1927.24 75.7936   3
  -3   3  -1 595.045 20.9642   2
   3  -3   1 614.616 23.1239   3
   3  -3   1 603.425 21.7767   1
  -4   3  -1 2741.80 90.2726   2
   4  -3   1 2516.47 93.4067   1
   4  -3   1 2692.29 100.099   3
  -5   3  -1 1062.66 36.2077   2
  -5   3  -1 1077.14 39.8141   3
   5  -3   1 1015.37 37.6309   1
  -6   3  -1 42.8940 2.06885   2
  -6   3  -1 41.0587 2.26506   3
   6  -3   1 42.6091 2.38268   1
  -7   3  -1 82.4874 3.84630   3
  -7   3  -1 79.9455 3.50224   2
   7  -3   1 80.6811 3.95065   1
  -8   3  -1 172.954 6.76213   2
   8  -3   1 170.850 7.37804   1
  -9   3  -1 19.2952 1.56812   2
   9  -3   1 19.7966 1.96833   1
  10  -3   1 13.3704 1.84102   1
  11  -3   1 10.6227 1.73071   1
  12   2  -1 16.0737 2.39257   1
 -12  -2   1 20.8849 2.18804   2
  11   2  -1 0.91886 0.92293   1
 -11  -2   1 0.92714 0.82593   2
  10   2  -1 0.98958 0.81810   1
 -10  -2   1 0.19206 0.63021   2
   9   2  -1 439.242 16.9103   1
  -9  -2   1 438.978 16.2020   2
   8   2  -1 64.0261 3.48234   1
  -8  -2   1 62.0982 3.16037   2
   7   2  -1 263.850 10.2381   1
  -7  -2   1 257.253 9.79369   2
   6   2  -1 3044.23 107.703   1
  -6  -2   1 2972.39 104.156   2
  -6  -2   1 3132.63 113.848   3
   5   2  -1 2511.94 81.1716   1
  -5  -2   1 2126.46 85.7069   3
  -5  -2   1 2249.06 78.4616   2
   4   2  -1 2.71458 0.54847   1
  -4  -2   1 1.93290 0.47552   2
  -3  -2   1 11.3582 0.68628   3
   2   2  -1 1.28367 0.26878   1
  -1  -2   1 2478.41 82.6057   2
  -1  -2   1 2304.85 89.8614   3
   0  -2   1 98.2693 4.01657   3
   0  -2   1 101.290 3.69976   1
  -1   2  -1 538.203 17.7361   2
   1  -2   1 504.907 18.3444   1
   1  -2   1 498.361 19.5421   3
  -2   2  -1 2141.54 74.8179   2
   2  -2   1 2041.59 81.4451   3
   2  -2   1 2363.46 78.0450   1
  -3   2  -1 206.406 7.12591   2
   3  -2   1 190.563 7.48803   1
  -4   2  -1 2.39381 0.42426   3
  -4   2  -1 4.11971 0.48406   2
   4  -2   1 4.06288 0.59261   1
  -5   2  -1 3195.03 110.279   2
  -5   2  -1 3123.42 121.070   3
   5  -2   1 3400.22 114.644   1
  -6   2  -1 0.36891 0.38677   3
  -6   2  -1 1.93717 0.45932   2
   6  -2   1 -0.0111 0.35778   1
  -7   2  -1 378.037 13.8546   2
  -7   2  -1 405.129 15.1976   3
   7  -2   1 374.410 14.6486   1
  -8   2  -1 30.4198 1.85073   2
  -9   2  -1 24.6274 1.76525   2
   9  -2   1 24.5156 2.13634   1
  10  -2   1 6.94342 1.37713   1
  11  -2   1 122.442 6.29297   1
  12   1  -1 0.29798 1.03797   1
 -12  -1   1 -0.1051 0.83055   2
  11   1  -1 53.6005 3.69683   1
 -11  -1   1 56.0584 3.31738   2
  10   1  -1 3.16559 1.04838   1
 -10  -1   1 4.48209 1.00634   2
   9   1  -1 1001.40 37.0412   1
  -9  -1   1 1028.33 35.6439   2
   8   1  -1 101.899 4.53174   1
  -8  -1   1 82.0582 4.02221   2
   7   1  -1 519.077 19.3756   1
  -7  -1   1 525.353 18.6133   2
   6   1  -1 2.50439 0.59200   1
  -6  -1   1 2.14230 0.53872   2
  -6  -1   1 3.87405 0.48580   3
   5   1  -1 379.346 14.1355   1
  -5  -1   1 378.792 14.4927   3
  -5  -1   1 389.967 13.6479   2
   4   1  -1 6.72702 0.85218   1
  -4  -1   1 7.58429 0.81917   2
  -4  -1   1 9.56148 0.66621   3
   3   1  -1 303.955 11.1032   1
  -3  -1   1 301.960 11.4840   3
  -3  -1   1 305.516 10.7390   2
   2   1  -1 5202.67 188.912   1
  -2  -1   1 4852.28 182.607   2
  -2  -1   1 5979.76 199.658   3
  -1   1  -1 841.091 29.7511   3
  -1   1  -1 765.813 26.9458   2
   1  -1   1 742.869 27.9013   1
  -2   1  -1 5976.30 225.742   3
   2  -1   1 6052.68 213.119   1
  -3   1  -1 2005.30 66.6351   2
  -3   1  -1 2060.44 73.7073   3
   3  -1   1 1801.15 68.8868   1
  -4   1  -1 9.30541 0.71359   2
  -4   1  -1 12.0930 0.84809   3
  -5   1  -1 27.5559 1.53495   3
  -5   1  -1 25.4111 1.40456   2
  -6   1  -1 23.2621 1.51437   3
  -6   1  -1 29.2370 1.50898   2
   6  -1   1 22.5140 1.62102   1
  -7   1  -1 8.00258 0.95151   2
  -7   1  -1 6.42291 0.84727   3
  -8   1  -1 778.400 27.0095   2
   8  -1   1 759.854 28.2993   1
  -9   1  -1 4.80212 0.87156   2
   9  -1   1 4.76128 1.07337   1
  10  -1   1 496.496 19.2883   1
  11  -1   1 716.466 27.2864   1
  12   0  -1 182.426 8.76063   1
 -12   0   1 197.528 8.48982   2
  11   0  -1 6.20359 1.43083   1
 -11   0   1 4.56734 1.09930   2
  10   0  -1 11.6956 1.67062   1
 -10   0   1 14.4960 1.60369   2
   9   0  -1 78.1077 4.15890   1
  -9   0   1 82.0454 3.82895   2
   8   0  -1 167.917 7.18571   1
  -8   0   1 172.192 6.81603   2
   7   0  -1 108.104 4.83134   1
  -7   0   1 108.918 4.52949   2
   6   0  -1 1121.93 40.3036   1
  -6   0   1 1121.83 42.1960   3
  -6   0   1 1131.83 38.9024   2
   5   0  -1 1418.41 49.6632   1
  -5   0   1 1469.27 48.0102   2
  -5   0   1 1305.56 52.2393   3
   4   0  -1 2323.14 79.6008   1
  -4   0   1 2204.52 76.9663   2
  -4   0   1 2242.72 84.6641   3
  -3   0   1 3907.85 127.878   2
  -3   0   1 3526.39 139.172   3
   2   0  -1 5522.28 186.392   1
  -2   0   1 5012.67 180.140   2
   1   0  -1 2568.42 95.0058   1
  -1   0   1 2787.52 91.9458   2
   0   0   1 -0.1769 0.01970   2
  -1   0  -1 278.129 10.6646   3
  -1   0  -1 267.903 9.63406   2
   1   0   1 275.775 10.0460   1
  -2   0  -1 3432.88 117.531   2
  -3   0  -1 142.205 5.14029   2
  -3   0  -1 144.444 5.65966   3
   3   0   1 139.822 5.43914   1
  -4   0  -1 427.019 16.1529   3
  -4   0  -1 417.029 14.7391   2
   4   0   1 416.264 15.4042   1
  -5   0  -1 455.798 16.0382   2
  -5   0  -1 465.605 17.5382   3
   5   0   1 448.627 16.7746   1
  -6   0  -1 139.522 5.31284   2
  -6   0  -1 129.528 5.64501   3
   6   0   1 140.207 5.72077   1
  -7   0  -1 919.222 32.3488   2
  -7   0  -1 974.515 35.2896   3
   7   0   1 896.107 33.6919   1
  -8   0  -1 397.539 14.5263   2
   8   0   1 401.803 15.3780   1
  -9   0  -1 5.00082 0.91783   2
   9   0   1 4.66504 1.12098   1
 -10   0  -1 990.874 34.7238   2
  10   0   1 978.424 36.3516   1
  11   0   1 25.9167 2.69537   1
  12  -1  -1 379.623 15.5294   1
  11  -1  -1 265.261 11.1299   1
 -11   1   1 256.973 10.2598   2
  10  -1  -1 5.58107 1.24320   1
 -10   1   1 4.32097 1.00223   2
   9  -1  -1 4.47916 1.02589   1
  -9   1   1 5.69391 0.94752   2
   8  -1  -1 43.5286 2.68282   1
  -8   1   1 44.0624 2.40357   2
   7  -1  -1 0.85426 0.51725   1
  -7   1   1 1.49801 0.53829   2
   6  -1  -1 794.092 29.4924   1
  -6   1   1 835.995 30.8552   3
  -6   1   1 821.112 28.4561   2
   5  -1  -1 603.185 23.8517   1
  -5   1   1 711.656 25.0200   3
  -5   1   1 669.836 23.0739   2
   4  -1  -1 230.415 8.67482   1
  -4   1   1 238.620 8.92159   3
  -4   1   1 226.389 8.34622   2
   3  -1  -1 5287.39 191.205   1
   3  -1  -1 5203.32 201.751   3
  -3   1   1 5678.08 184.908   2
   2  -1  -1 1091.32 38.9406   1
   2  -1  -1 1129.32 41.7169   3
  -2   1   1 1092.86 37.7292   2
   1  -1  -1 233.986 8.35646   1
   1  -1  -1 228.646 8.92523   3
  -1   1   1 235.801 8.17995   2
  -1  -1  -1 1140.12 42.1219   3
  -1  -1  -1 1136.88 38.6236   2
   1   1   1 1090.21 39.6329   1
  -2  -1  -1 401.202 15.4397   3
  -2  -1  -1 408.488 14.0812   2
   2   1   1 409.424 14.5559   1
  -3  -1  -1 3386.10 116.048   3
  -3  -1  -1 2772.42 105.456   2
   3   1   1 3058.29 109.650   1
  -4  -1  -1 556.617 21.6303   3
  -4  -1  -1 570.497 19.8243   2
   4   1   1 581.446 20.5903   1
  -5  -1  -1 266.453 9.87795   2
  -5  -1  -1 276.652 10.6786   3
   5   1   1 275.621 10.3655   1
  -6  -1  -1 611.777 22.9721   3
  -6  -1  -1 590.593 21.1379   2
   6   1   1 602.240 22.0398   1
  -7  -1  -1 308.563 11.2941   2
  -7  -1  -1 314.383 12.0772   3
   7   1   1 295.587 11.8488   1
   8   1   1 2.85051 0.84866   1
  -9  -1  -1 71.7753 3.50396   2
   9   1   1 65.5177 3.81141   1
 -10  -1  -1 0.69184 0.83841   2
  10   1   1 2.20270 1.01192   1
  11   1   1 48.5479 3.63550   1
  12  -2  -1 40.5512 3.31764   1
  11  -2  -1 226.278 9.88513   1
 -11   2   1 227.789 9.17790   2
  10  -2  -1 436.852 16.9987   1
 -10   2   1 435.388 16.1078   2
   9  -2  -1 243.923 10.0202   1
  -9   2   1 245.595 9.43507   2
   8  -2  -1 75.4284 3.87549   1
  -8   2   1 79.6034 3.60575   2
   7  -2  -1 650.886 24.8540   1
  -7   2   1 655.542 23.9200   2
  -7   2   1 733.576 25.9502   3
   6  -2  -1 19.0504 1.46961   1
  -6   2   1 22.2609 1.27197   3
  -6   2   1 22.3362 1.38907   2
   5  -2  -1 118.657 4.79291   1
   5  -2  -1 117.916 4.78157   3
  -5   2   1 109.955 4.54919   2
   4  -2  -1 133.524 5.27888   3
   4  -2  -1 127.607 5.13298   1
  -4   2   1 133.344 5.00678   2
   3  -2  -1 79.8283 3.50029   3
   3  -2  -1 77.2187 3.35657   1
  -3   2   1 77.8752 3.30393   2
   2  -2  -1 825.486 30.5070   3
   2  -2  -1 810.536 28.6300   1
  -2   2   1 795.606 27.8279   2
   1  -2  -1 1027.21 37.4781   3
   1  -2  -1 999.657 35.1645   1
  -1   2   1 965.362 34.1377   2
   0  -2  -1 4483.57 157.802   3
   0   2   1 3875.22 143.485   2
  -1  -2  -1 2637.79 102.431   3
   1   2   1 2828.95 96.6471   1
  -2  -2  -1 455.844 17.5918   3
  -2  -2  -1 446.006 16.0521   2
   2   2   1 469.947 16.4733   1
  -3  -2  -1 5872.15 199.392   3
  -3  -2  -1 4849.84 180.787   2
   3   2   1 5130.15 186.837   1
  -4  -2  -1 2437.04 95.8884   3
  -4  -2  -1 2620.48 87.7894   2
   4   2   1 2635.91 90.3969   1
  -5  -2  -1 34.7748 1.83664   3
  -5  -2  -1 33.3050 1.79314   2
   5   2   1 33.8318 1.90401   1
  -6  -2  -1 135.482 5.63287   3
  -6  -2  -1 131.400 5.33683   2
   6   2   1 133.006 5.61577   1
  -7  -2  -1 296.791 10.9282   2
   7   2   1 289.168 11.4053   1
  -8  -2  -1 134.626 5.72367   2
   8   2   1 138.699 6.12660   1
  -9  -2  -1 64.8828 3.40121   2
   9   2   1 64.9611 3.74635   1
 -10  -2  -1 277.693 10.8709   2
  10   2   1 274.453 11.5026   1
  11   2   1 103.118 5.69233   1
  12  -3  -1 292.405 12.5175   1
  11  -3  -1 251.743 10.6054   1
 -11   3   1 242.958 9.80843   2
  10  -3  -1 526.420 19.7338   1
 -10   3   1 499.378 18.6667   2
   9  -3  -1 92.2913 4.55318   1
  -9   3   1 88.0772 4.16067   2
   8  -3  -1 1.27887 0.61060   1
  -8   3   1 2.85911 0.75180   2
   7  -3  -1 651.619 23.8007   1
  -7   3   1 646.666 22.8838   2
  -7   3   1 648.106 24.8064   3
   6  -3  -1 910.161 33.9854   1
   6  -3  -1 976.496 35.8260   3
  -6   3   1 951.518 32.8591   2
   4  -3  -1 966.317 34.1507   1
   4  -3  -1 982.010 36.2315   3
  -4   3   1 928.847 33.1077   2
   3  -3  -1 1616.23 59.5269   3
   3  -3  -1 1545.95 55.9245   1
  -3   3   1 1588.44 54.2922   2
   2  -3  -1 556.079 20.1013   1
   2  -3  -1 580.910 21.6208   3
  -2   3   1 552.249 19.6915   2
   1  -3  -1 357.684 14.6044   3
   1  -3  -1 400.724 13.4232   1
  -1   3   1 379.032 13.3579   2
   0  -3  -1 1440.90 54.6286   3
   0   3   1 1470.21 49.8034   2
  -1  -3  -1 829.957 34.9468   3
   1   3   1 957.066 31.9317   2
   1   3   1 992.448 32.6177   1
  -2  -3  -1 1680.20 57.2025   2
  -2  -3  -1 1674.87 62.7499   3
   2   3   1 1660.37 58.9284   1
  -3  -3  -1 830.266 28.4080   2
  -3  -3  -1 814.211 31.0705   3
   3   3   1 808.789 29.1160   1
  -5  -3  -1 68.4851 3.11615   2
  -5  -3  -1 65.5276 3.18827   3
   5   3   1 70.5809 3.15331   1
  -6  -3  -1 1323.08 45.6953   2
  -6  -3  -1 1309.10 49.8216   3
   6   3   1 1325.32 47.1723   1
  -7  -3  -1 17.8981 1.56080   2
   7   3   1 19.5859 1.67946   1
  -8  -3  -1 32.3276 2.27468   2
   8   3   1 38.8438 2.54050   1
  -9  -3  -1 137.244 5.99626   2
   9   3   1 131.725 6.28007   1
 -10  -3  -1 108.219 5.27577   2
  10   3   1 111.299 5.67217   1
  11   3   1 80.0664 4.83120   1
  12  -4  -1 3.17364 1.28468   1
  11  -4  -1 84.3993 4.79160   1
  10  -4  -1 86.7694 4.54428   1
 -10   4   1 79.8990 4.05894   2
   9  -4  -1 227.798 9.46349   1
  -9   4   1 228.745 8.94119   2
   8  -4  -1 598.665 22.4315   1
  -8   4   1 609.601 21.5466   2
   7  -4  -1 1701.23 61.1848   1
  -7   4   1 1732.88 59.1387   2
   6  -4  -1 674.983 26.0211   1
   6  -4  -1 754.668 27.5403   3
  -6   4   1 728.718 25.2863   2
   5  -4  -1 12.8584 1.02879   3
   5  -4  -1 10.0452 0.92566   1
  -5   4   1 10.0445 0.97130   2
   4  -4  -1 2737.80 102.038   1
   4  -4  -1 2932.50 109.071   3
  -4   4   1 3029.33 99.0056   2
   3  -4  -1 1661.87 55.7296   1
   3  -4  -1 1638.11 59.4676   3
  -3   4   1 1438.77 54.1257   2
   2  -4  -1 235.661 7.96635   1
   2  -4  -1 204.122 8.79590   3
  -2   4   1 217.710 8.04845   2
   1  -4  -1 533.027 20.4274   3
  -1   4   1 530.832 18.6368   2
   0  -4  -1 1224.72 46.9122   3
   0   4   1 1262.02 42.7807   2
  -1  -4  -1 321.263 12.3101   3
   1   4   1 317.810 11.0905   1
   1   4   1 297.283 11.2305   2
  -2  -4  -1 3.00586 0.55500   3
   2   4   1 3.56382 0.37940   1
  -3  -4  -1 214.103 8.97451   3
  -3  -4  -1 228.286 8.32401   2
   3   4   1 224.110 8.23442   1
  -4  -4  -1 771.819 29.0253   3
  -4  -4  -1 748.300 26.6100   2
   4   4   1 756.035 27.1825   1
  -5  -4  -1 51.2434 2.71788   2
  -5  -4  -1 54.8166 2.80928   3
   5   4   1 55.3241 2.65327   1
  -6  -4  -1 1300.75 44.4560   2
  -6  -4  -1 1239.57 48.3796   3
   6   4   1 1292.74 45.7157   1
  -7  -4  -1 649.666 23.6218   2
   7   4   1 669.490 24.2912   1
  -8  -4  -1 35.5037 2.42359   2
   8   4   1 33.8129 2.44038   1
  -9  -4  -1 1.98001 0.91270   2
   9   4   1 2.48320 1.03871   1
 -10  -4  -1 92.1749 4.82661   2
  10   4   1 93.4538 5.08156   1
  11   4   1 128.324 6.58703   1
  12  -5  -1 0.86036 1.06726   1
  11  -5  -1 9.58792 1.67380   1
  10  -5  -1 17.1937 2.05331   1
 -10   5   1 20.1887 1.88407   2
   9  -5  -1 171.125 7.36495   1
  -9   5   1 162.689 6.84696   2
   8  -5  -1 15.7269 1.54912   1
  -8   5   1 16.5623 1.51894   2
   7  -5  -1 1525.91 54.9993   1
   7  -5  -1 1567.93 58.2235   3
  -7   5   1 1526.71 53.2485   2
   6  -5  -1 -0.0776 0.41731   1
   6  -5  -1 3.46500 0.72004   3
  -6   5   1 0.80968 0.49840   2
   5  -5  -1 7.59681 0.83600   1
   5  -5  -1 4.90559 0.78546   3
  -5   5   1 6.00976 0.83841   2
   4  -5  -1 58.9183 3.07716   3
   4  -5  -1 64.9709 2.74043   1
  -4   5   1 61.1682 2.87853   2
   3  -5  -1 25.0038 1.64045   3
   3  -5  -1 25.7269 1.25153   1
  -3   5   1 22.6087 1.47664   2
   2  -5  -1 7.33310 0.92759   3
   2  -5  -1 6.88718 0.49411   1
  -2   5   1 3.91662 0.68099   2
   1  -5  -1 994.476 37.6240   3
  -1   5   1 985.354 34.2879   2
   0  -5  -1 829.917 31.3539   3
   0   5   1 812.186 28.5749   2
  -2  -5  -1 124.597 5.48640   3
   2   5   1 126.150 4.67783   1
   2   5   1 125.476 5.09804   2
  -3  -5  -1 543.023 21.3101   3
   3   5   1 555.451 19.6846   1
  -4  -5  -1 28.0405 1.89124   3
  -4  -5  -1 29.7498 1.88584   2
   4   5   1 30.1988 1.61760   1
  -5  -5  -1 83.3653 3.90974   2
  -5  -5  -1 80.5815 3.99023   3
   5   5   1 84.5697 3.67863   1
  -6  -5  -1 86.7377 4.33094   3
  -6  -5  -1 92.4188 4.34625   2
   6   5   1 94.7189 4.15392   1
  -7  -5  -1 0.60601 0.67703   2
   7   5   1 -0.2387 0.55723   1
  -8  -5  -1 3.76919 1.11799   2
  -9  -5  -1 25.4281 2.40912   2
 -10  -5  -1 932.537 33.6617   2
  11  -6  -1 360.528 14.6326   1
  10  -6  -1 26.4676 2.36717   1
   9  -6  -1 7.05625 1.25957   1
  -9   6   1 6.65501 1.15725   2
   8  -6  -1 2.51845 0.75817   1
  -8   6   1 3.64675 0.87600   2
   7  -6  -1 150.319 6.56792   3
   7  -6  -1 142.269 6.15526   1
  -7   6   1 148.300 6.13929   2
   6  -6  -1 291.614 11.8784   3
   6  -6  -1 286.808 11.0428   1
  -6   6   1 293.454 10.9402   2
   5  -6  -1 7.63026 1.04332   3
   5  -6  -1 8.23595 0.87215   1
  -5   6   1 7.76180 0.99685   2
   4  -6  -1 1160.56 46.3798   3
   4  -6  -1 1269.29 43.2749   1
  -4   6   1 1230.29 42.3286   2
   3  -6  -1 605.801 24.8499   3
   3  -6  -1 689.453 22.9252   1
  -3   6   1 630.462 22.6779   2
   2  -6  -1 552.961 22.2193   3
  -2   6   1 588.588 20.2771   2
   1  -6  -1 4385.38 158.926   3
  -1   6   1 4038.97 143.532   2
   0  -6  -1 2023.68 76.1956   3
   0   6   1 2020.58 69.4183   2
  -1  -6  -1 246.528 10.0515   3
   1   6   1 240.784 9.24489   2
  -2  -6  -1 39.0075 2.37136   3
   2   6   1 37.2262 2.20984   2
  -3  -6  -1 534.908 21.4808   3
   3   6   1 565.757 19.8065   2
  -4  -6  -1 19.1878 1.60459   3
  -5  -6  -1 56.6173 3.08918   3
  -5  -6  -1 54.2350 3.09511   2
  -6  -6  -1 2.33125 0.71770   3
  -6  -6  -1 0.74905 0.66448   2
  -7  -6  -1 127.054 5.84489   2
  -8  -6  -1 65.9745 3.84944   2
  -9  -6  -1 902.179 32.5693   2
  -9   7   1 570.342 20.7756   2
   8  -7  -1 448.881 18.5759   3
  -8   7   1 471.333 17.0385   2
   7  -7  -1 96.5338 4.99423   3
  -7   7   1 107.431 4.76480   2
   6  -7  -1 6.07405 1.07234   3
  -6   7   1 4.68568 0.94577   2
   5  -7  -1 79.7069 4.20491   3
  -5   7   1 84.9172 3.93668   2
   4  -7  -1 93.1517 4.58427   3
  -4   7   1 89.8556 4.12860   2
   3  -7  -1 381.328 15.7846   3
  -3   7   1 404.777 14.4216   2
   2  -7  -1 458.540 18.0882   3
  -2   7   1 449.372 16.4409   2
   1  -7  -1 1315.58 49.0098   3
  -1   7   1 1252.51 44.5623   2
   0  -7  -1 524.336 20.4401   3
   0   7   1 511.943 18.6258   2
  -1  -7  -1 73.6629 3.69493   3
   1   7   1 62.8939 3.33044   2
  -2  -7  -1 2.59806 0.74609   3
   2   7   1 2.14240 0.69243   2
  -3  -7  -1 1207.15 46.9354   3
   3   7   1 1251.60 43.0334   2
  -4  -7  -1 13.7908 1.54089   3
   4   7   1 13.1108 1.57367   2
  -5  -7  -1 44.0768 2.84092   3
   5   7   1 46.0317 2.88559   2
   6   7   1 114.707 5.45886   2
  -9   8   1 279.005 11.1290   2
   8  -8  -1 304.164 12.8888   3
  -8   8   1 306.953 11.9234   2
   7  -8  -1 311.798 13.0964   3
  -7   8   1 311.801 12.0196   2
   6  -8  -1 0.67260 0.72131   3
  -6   8   1 0.68024 0.72030   2
   5  -8  -1 -0.1520 0.62083   3
  -5   8   1 0.91942 0.67927   2
   4  -8  -1 58.9764 3.42593   3
  -4   8   1 55.0677 3.06397   2
   3  -8  -1 0.99557 0.72918   3
  -3   8   1 1.73828 0.68691   2
   2  -8  -1 423.536 17.1018   3
  -2   8   1 422.116 15.5636   2
   1  -8  -1 198.369 8.73665   3
  -1   8   1 196.703 7.91178   2
   0  -8  -1 111.377 5.48605   3
   0   8   1 111.299 4.98033   2
  -1  -8  -1 793.533 30.7843   3
   1   8   1 787.251 28.1023   2
  -2  -8  -1 595.013 23.4245   3
   2   8   1 588.282 21.5211   2
  -3  -8  -1 542.228 21.7761   3
   3   8   1 553.342 20.1248   2
  -4  -8  -1 0.59779 0.68168   3
   4   8   1 -0.0657 0.78501   2
  -5  -8  -1 225.736 9.89967   3
   5   8   1 230.300 9.42910   2
   6   8   1 72.9456 4.16280   2
   7   8   1 15.2306 1.95122   2
   8   8   1 38.3412 3.01648   2
   8  -9  -1 816.205 32.9152   3
  -8   9   1 859.185 30.1761   2
   7  -9  -1 51.3459 3.51510   3
  -7   9   1 53.6281 3.28321   2
   6  -9  -1 5.13685 1.24345   3
  -6   9   1 0.88761 0.83940   2
   5  -9  -1 1.51187 0.90278   3
  -5   9   1 1.83950 0.90718   2
   4  -9  -1 924.293 35.3167   3
  -4   9   1 884.473 32.0817   2
   3  -9  -1 6.92908 1.31785   3
  -3   9   1 6.28877 1.12896   2
   2  -9  -1 119.717 5.91212   3
  -2   9   1 115.623 5.34173   2
   1  -9  -1 3.10183 0.95573   3
  -1   9   1 2.49311 0.86363   2
   0  -9  -1 37.0013 2.87697   3
   0   9   1 45.1429 2.76050   2
  -1  -9  -1 2.20684 0.96911   3
   1   9   1 1.82912 0.80385   2
  -2  -9  -1 309.829 13.2564   3
   2   9   1 316.356 12.2462   2
  -3  -9  -1 17.2282 1.96873   3
   3   9   1 17.0764 2.08922   2
  -4  -9  -1 1.63511 0.87896   3
   4   9   1 0.48387 0.83385   2
  -5  -9  -1 43.0898 2.96913   3
   5   9   1 35.6528 2.91136   2
   6   9   1 2.94108 1.18903   2
   8 -10  -1 11.1634 1.85817   3
   7 -10  -1 0.32198 0.97604   3
  -7  10   1 0.93141 0.97663   2
   6 -10  -1 139.751 7.11152   3
  -6  10   1 144.707 6.58378   2
   5 -10  -1 841.239 32.9911   3
  -5  10   1 828.492 29.9959   2
   4 -10  -1 661.594 25.9651   3
  -4  10   1 631.955 23.5423   2
   3 -10  -1 6.44961 1.32241   3
  -3  10   1 1.20050 0.98623   2
   2 -10  -1 841.703 33.7977   3
  -2  10   1 876.896 30.7810   2
   1 -10  -1 -0.6747 0.72307   3
  -1  10   1 -0.6360 0.71903   2
   0 -10  -1 25.9478 2.52150   3
   0  10   1 24.5487 2.32172   2
  -1 -10  -1 32.4144 2.75653   3
   1  10   1 32.8309 2.60916   2
  -2 -10  -1 19.5531 2.28279   3
   2  10   1 20.2419 2.27238   2
  -3 -10  -1 140.413 7.11472   3
   3  10   1 141.811 6.64512   2
  -4 -10  -1 1.78215 1.09023   3
   4  10   1 3.35592 1.25026   2
   5  10   1 662.894 24.7147   2
   7 -11  -1 1.12923 1.16625   3
  -7  11   1 1.28251 1.05377   2
   6 -11  -1 180.895 8.84182   3
  -6  11   1 180.162 8.04273   2
   5 -11  -1 566.065 23.0996   3
  -5  11   1 559.903 20.9569   2
   4 -11  -1 73.2275 4.73848   3
  -4  11   1 77.8102 4.24304   2
   3 -11  -1 0.07573 0.86308   3
  -3  11   1 -0.6087 0.72341   2
   2 -11  -1 20.1555 2.44395   3
  -2  11   1 16.1356 1.96066   2
   1 -11  -1 1.43043 1.10201   3
  -1  11   1 0.60812 0.83084   2
   0 -11  -1 93.6982 5.51036   3
   0  11   1 99.1611 5.10398   2
  -1 -11  -1 324.853 14.3834   3
   1  11   1 339.928 13.2854   2
  -2 -11  -1 57.5697 4.12802   3
   2  11   1 61.3201 3.91517   2
  -3 -11  -1 1.27798 1.18181   3
   3  11   1 2.90503 1.26425   2
  -4 -11  -1 9.33111 1.83847   3
  -5  12   1 8.77314 1.63857   2
  -4  12   1 8.43019 1.59213   2
   3 -12  -1 53.2770 4.05472   3
  -3  12   1 52.0318 3.61474   2
   2 -12  -1 1012.47 39.8886   3
  -2  12   1 1002.15 36.2114   2
   1 -12  -1 133.582 7.39557   3
  -1  12   1 145.340 6.80854   2
   0 -12  -1 163.516 8.32074   3
   0  12   1 154.873 7.51269   2
   0  13  -2 2.37262 1.19039   2
  -1  13  -2 2.43193 1.09191   2
  -2  13  -2 43.2827 3.19885   2
   3  12  -2 93.1901 5.18100   2
  -3 -12   2 96.9622 5.57056   3
   2  12  -2 1.19459 0.97580   2
  -2 -12   2 -0.2989 1.00164   3
   1  12  -2 109.338 5.57306   2
  -1 -12   2 117.567 6.24654   3
   0  12  -2 13.1055 1.76861   2
   0 -12   2 12.2747 1.97495   3
  -1  12  -2 6.04546 1.30002   2
   1 -12   2 5.93749 1.53767   3
  -2  12  -2 1.60774 0.90279   2
   2 -12   2 2.57579 1.23853   3
  -3  12  -2 5.72533 1.38549   2
   3 -12   2 7.38954 1.60715   3
   4 -12   2 422.782 18.0205   3
   5 -12   2 2.21379 1.22446   3
   5  11  -2 46.7085 3.61320   2
   4  11  -2 86.0105 5.13302   2
  -4 -11   2 99.7080 5.34886   3
   3  11  -2 215.351 9.39646   2
  -3 -11   2 223.291 10.0558   3
   2  11  -2 141.319 6.54241   2
  -2 -11   2 139.859 7.06620   3
   1  11  -2 4.04508 1.16908   2
  -1 -11   2 3.93293 1.22891   3
   0  11  -2 1058.46 37.6285   2
   0 -11   2 1067.38 41.4510   3
  -1  11  -2 192.842 8.21285   2
   1 -11   2 203.623 9.30668   3
  -2  11  -2 15.8233 1.80318   2
   2 -11   2 11.1656 1.78766   3
  -3  11  -2 14.1862 1.70464   2
   3 -11   2 13.4647 1.97376   3
  -4  11  -2 32.6020 2.41693   2
   4 -11   2 28.7127 2.81658   3
   5 -11   2 -1.0403 0.87528   3
   6 -11   2 3.16395 1.33945   3
   7 -11   2 928.687 36.7731   3
   6  10  -2 6.09556 1.52183   2
   5  10  -2 6.72287 1.49537   2
   4  10  -2 307.492 12.4860   2
  -4 -10   2 319.927 13.3790   3
   3  10  -2 1094.56 39.4068   2
  -3 -10   2 1127.40 43.0430   3
   2  10  -2 179.714 7.63241   2
  -2 -10   2 172.267 8.13389   3
   1  10  -2 221.439 8.89527   2
  -1 -10   2 216.435 9.76854   3
   0  10  -2 57.8571 3.25857   2
   0 -10   2 58.5052 3.73580   3
  -1  10  -2 532.632 19.1674   2
   1 -10   2 515.909 21.1557   3
  -2  10  -2 99.8447 4.71270   2
   2 -10   2 103.961 5.42690   3
  -3  10  -2 409.574 15.2086   2
   3 -10   2 408.324 16.9833   3
  -4  10  -2 150.596 6.33146   2
   4 -10   2 144.176 7.19413   3
   5 -10   2 5.58586 1.34362   3
   6 -10   2 105.787 5.70650   3
   7 -10   2 202.112 9.46092   3
   5   9  -2 87.1997 4.63071   2
   4   9  -2 472.449 18.0707   2
  -4  -9   2 498.165 19.5307   3
   3   9  -2 3.49977 1.00167   2
  -3  -9   2 2.43647 0.88265   3
   2   9  -2 7.07204 1.16530   2
   1   9  -2 14.6570 1.62267   2
   0   9  -2 898.003 30.9583   2
   0  -9   2 855.353 34.0550   3
  -1   9  -2 1.56869 0.76858   2
   1  -9   2 2.82153 0.88630   3
  -2   9  -2 46.0349 2.59580   2
   2  -9   2 44.5896 3.00891   3
  -3   9  -2 152.681 6.24612   2
   3  -9   2 147.671 7.05612   3
  -4   9  -2 582.931 21.0654   2
   4  -9   2 591.338 23.4410   3
  -5   9  -2 63.4386 3.26570   2
   5  -9   2 61.7217 3.79633   3
   6  -9   2 4.31203 1.23946   3
   7  -9   2 0.46662 0.80869   3
  -8   9  -2 152.821 7.38668   3
  -8  -8   2 36.2565 2.92216   2
  -7  -8   2 41.3974 2.99195   2
  -6  -8   2 23.7742 2.24482   2
  -5  -8   2 51.7669 3.15301   2
  -5  -8   2 50.8748 3.04054   3
  -4  -8   2 53.7907 3.13146   3
   3   8  -2 37.3966 2.44688   2
  -3  -8   2 38.6112 2.48473   3
   2   8  -2 41.0278 2.46490   2
  -2  -8   2 39.6701 2.56305   3
   1   8  -2 195.824 7.69005   2
  -1  -8   2 191.179 8.39484   3
   0   8  -2 882.681 30.9964   2
   0  -8   2 884.312 34.1177   3
  -1   8  -2 252.857 9.50387   2
   1  -8   2 247.510 10.5315   3
  -2   8  -2 1224.15 43.1900   2
   2  -8   2 1267.00 47.6540   3
  -3   8  -2 785.375 27.2107   2
   3  -8   2 759.900 30.0754   3
  -4   8  -2 19.8265 1.51415   2
   4  -8   2 18.2928 1.78893   3
  -5   8  -2 10.3986 1.17099   2
   5  -8   2 8.01973 1.27152   3
   6  -8   2 41.4232 2.84113   3
   7  -8   2 316.720 13.3337   3
  -8   8  -2 290.902 12.3849   3
  -9  -7   2 4.35448 1.32638   2
  -8  -7   2 35.9485 2.80907   2
  -7  -7   2 383.971 14.7445   2
  -6  -7   2 1.98153 0.98043   2
  -5  -7   2 2.09329 0.80875   2
  -5  -7   2 0.21349 0.54879   3
  -4  -7   2 180.252 7.22339   2
  -4  -7   2 173.085 7.60221   3
  -3  -7   2 1119.69 42.7548   3
  -3  -7   2 1122.94 39.1718   2
   2   7  -2 345.642 13.0505   2
  -2  -7   2 363.506 14.2364   3
   1   7  -2 70.0465 3.27850   2
  -1  -7   2 70.0243 3.61005   3
   0  -7   2 8.78417 0.67362   1
   0  -7   2 6.99335 1.00983   3
  -1   7  -2 4.85059 0.74782   2
   1  -7   2 6.24176 0.59668   1
   1  -7   2 4.29367 0.81739   3
  -2   7  -2 6.30978 0.80599   2
   2  -7   2 4.94809 0.60579   1
   2  -7   2 3.14044 0.75340   3
  -3   7  -2 19.5245 1.39959   2
   3  -7   2 19.1423 1.66073   3
   3  -7   2 22.9398 1.34210   1
  -4   7  -2 32.5670 1.87442   2
   4  -7   2 34.1285 2.27935   3
   4  -7   2 30.3463 1.80071   1
  -5   7  -2 202.488 7.65684   2
   5  -7   2 202.973 7.91662   1
   5  -7   2 193.697 8.61154   3
  -6   7  -2 654.241 23.1683   2
   6  -7   2 660.346 24.0656   1
   6  -7   2 655.504 25.7094   3
  -7   7  -2 309.376 13.0837   3
   7  -7   2 323.079 12.3266   1
  -8   7  -2 4.18083 1.02057   3
   8  -7   2 4.21071 1.05849   1
   9  -7   2 483.240 18.5731   1
  10  -7   2 2.92687 1.04789   1
  11  -7   2 87.6931 5.01736   1
 -10  -6   2 99.9321 5.26962   2
   9   6  -2 1.90316 0.91980   1
  -9  -6   2 2.74159 1.06389   2
   8   6  -2 276.119 10.9403   1
  -8  -6   2 268.328 10.8582   2
   7   6  -2 1645.31 58.4122   1
  -7  -6   2 1620.94 56.8529   2
   6   6  -2 281.201 10.8554   1
  -6  -6   2 280.340 10.8630   2
   5   6  -2 4684.66 160.432   1
  -5  -6   2 4430.67 155.340   2
  -5  -6   2 4534.24 170.092   3
   4   6  -2 964.721 33.2285   1
  -4  -6   2 918.959 32.5474   2
  -4  -6   2 899.398 35.3627   3
   3   6  -2 35.8586 1.77854   1
  -3  -6   2 32.3556 1.99627   2
  -3  -6   2 34.9451 2.08821   3
   2   6  -2 34.0868 1.59804   1
  -2  -6   2 30.6534 1.94565   3
  -2  -6   2 31.5862 1.85981   2
   1   6  -2 514.143 18.4371   2
  -1  -6   2 527.019 20.2383   3
   0   6  -2 16.7795 1.19339   2
   0  -6   2 18.5622 0.97089   1
   0  -6   2 16.1371 1.31725   3
  -1   6  -2 10.1461 0.89689   2
   1  -6   2 9.75827 1.03684   3
   1  -6   2 11.3880 0.77417   1
  -2   6  -2 153.011 5.97798   2
   2  -6   2 155.681 6.74178   3
   2  -6   2 160.903 6.02484   1
  -3   6  -2 302.057 10.5753   2
   3  -6   2 284.998 11.7736   3
   3  -6   2 285.903 10.8044   1
  -4   6  -2 1.54022 0.45416   2
   4  -6   2 1.15719 0.54194   3
   4  -6   2 1.04472 0.46124   1
  -5   6  -2 308.258 11.1116   2
   5  -6   2 301.476 12.4140   3
   5  -6   2 307.359 11.6036   1
  -6   6  -2 1967.47 67.0517   2
   6  -6   2 1942.39 69.4933   1
  -7   6  -2 4.06228 0.87640   3
   7  -6   2 3.06310 0.77708   1
  -8   6  -2 24.6554 2.18242   3
   8  -6   2 29.2828 2.22950   1
   9  -6   2 5.13668 1.13925   1
  10  -6   2 18.5566 2.20435   1
  11  -6   2 0.50891 0.92512   1
 -11  -5   2 19.7735 2.37393   2
  10   5  -2 0.12518 0.90705   1
 -10  -5   2 2.10724 0.98963   2
   9   5  -2 0.87585 0.79672   1
  -9  -5   2 0.19799 0.74468   2
   8   5  -2 154.684 6.76434   1
  -8  -5   2 155.209 6.69783   2
   7   5  -2 51.8255 2.96928   1
  -7  -5   2 57.1382 3.08460   2
   6   5  -2 109.543 4.71958   1
  -6  -5   2 103.742 4.72254   2
   5   5  -2 55.5394 2.78308   1
  -5  -5   2 59.1015 2.80728   3
  -5  -5   2 56.7889 2.91411   2
   4   5  -2 941.434 34.3958   1
  -4  -5   2 984.239 36.5040   3
   3   5  -2 604.552 21.5658   1
  -3  -5   2 615.163 23.0217   3
  -3  -5   2 579.493 21.1183   2
   2   5  -2 2399.77 81.4307   1
  -2  -5   2 2346.22 86.0822   3
  -2  -5   2 2141.85 78.4534   2
  -1  -5   2 923.522 31.6934   1
  -1  -5   2 864.916 33.9321   3
   0   5  -2 851.755 29.8976   2
   0  -5   2 873.332 30.6465   1
   0  -5   2 870.729 32.9001   3
  -1   5  -2 996.175 34.9550   2
   1  -5   2 1002.27 38.5239   3
   1  -5   2 1047.83 35.9918   1
  -2   5  -2 94.9454 3.83484   2
   2  -5   2 103.635 3.94663   1
   2  -5   2 93.9093 4.37857   3
  -3   5  -2 33.7054 1.58872   2
   3  -5   2 28.5629 1.62613   1
   3  -5   2 33.0350 1.91236   3
  -4   5  -2 512.405 17.6090   2
   4  -5   2 496.736 19.5332   3
   4  -5   2 496.689 18.3216   1
  -6   5  -2 423.702 17.4414   3
  -6   5  -2 450.518 15.7160   2
   6  -5   2 453.448 16.6044   1
  -7   5  -2 1.47991 0.55261   2
  -7   5  -2 1.33307 0.59201   3
   7  -5   2 0.62469 0.53446   1
  -8   5  -2 1.01964 0.68656   3
   8  -5   2 2.07862 0.77107   1
   9  -5   2 1425.97 51.6619   1
  10  -5   2 146.756 7.00925   1
  11  -5   2 333.890 13.9129   1
  11   4  -2 314.795 13.2156   1
 -11  -4   2 326.426 12.7944   2
  10   4  -2 20.2902 2.09049   1
 -10  -4   2 17.7945 2.03017   2
   9   4  -2 3.42382 0.95627   1
  -9  -4   2 3.22598 0.94371   2
   8   4  -2 779.128 28.2895   1
  -8  -4   2 757.416 27.3735   2
   7   4  -2 341.081 12.9209   1
  -7  -4   2 329.695 12.5294   2
   6   4  -2 44.7124 2.48527   1
  -6  -4   2 46.7771 2.48869   2
   5   4  -2 1273.35 47.1599   1
  -5  -4   2 1394.55 49.8155   3
  -5  -4   2 1305.98 45.7884   2
   4   4  -2 309.222 11.4250   1
  -4  -4   2 303.403 11.1910   2
  -4  -4   2 309.310 11.9412   3
   3   4  -2 19.8628 1.18056   1
  -3  -4   2 21.0580 1.23198   3
  -3  -4   2 17.4335 1.22001   2
   2   4  -2 2368.87 81.4485   1
  -2  -4   2 2282.44 86.7009   3
  -2  -4   2 2269.73 78.7279   2
  -1  -4   2 5111.37 197.360   3
  -1  -4   2 5645.11 185.066   1
  -1  -4   2 4936.52 179.686   2
   0   4  -2 747.333 25.5326   2
   0  -4   2 744.645 28.0926   3
   0  -4   2 729.391 26.2391   1
  -1   4  -2 1097.38 38.3897   2
   1  -4   2 1165.09 42.3281   3
   1  -4   2 1101.89 39.6327   1
  -2   4  -2 2660.18 80.8336   2
   2  -4   2 2117.06 87.6606   3
   2  -4   2 2253.27 82.4107   1
  -3   4  -2 235.598 8.55366   2
   3  -4   2 246.040 9.02107   1
   3  -4   2 239.145 9.60938   3
  -4   4  -2 130.801 5.06500   2
   4  -4   2 136.544 5.79757   3
   4  -4   2 141.110 5.51345   1
  -5   4  -2 271.415 9.85592   2
  -5   4  -2 280.514 11.0663   3
   5  -4   2 271.289 10.5072   1
  -6   4  -2 1061.74 36.4327   2
  -6   4  -2 1057.56 40.1859   3
   6  -4   2 1049.25 38.0554   1
  -7   4  -2 30.4957 1.72216   2
  -7   4  -2 29.0127 1.98045   3
   7  -4   2 28.5230 2.05123   1
  -8   4  -2 101.130 4.79709   3
   8  -4   2 99.3101 4.87238   1
   9  -4   2 502.088 19.2852   1
  10  -4   2 286.519 11.9558   1
  11  -4   2 657.905 25.2935   1
 -12  -3   2 37.0466 2.98441   2
  11   3  -2 38.2665 3.02323   1
 -11  -3   2 38.7147 2.91145   2
  10   3  -2 52.9202 3.45161   1
 -10  -3   2 59.1015 3.39216   2
   9   3  -2 438.491 16.9536   1
  -9  -3   2 442.728 16.3490   2
   8   3  -2 514.376 19.1147   1
  -8  -3   2 500.313 18.4193   2
   7   3  -2 1.89089 0.64570   1
  -7  -3   2 2.98113 0.70527   2
   6   3  -2 2.79563 0.64871   1
   5   3  -2 319.636 12.3050   1
  -5  -3   2 351.366 12.6575   3
  -5  -3   2 315.965 11.9373   2
   4   3  -2 1124.12 40.1741   1
  -4  -3   2 1051.42 38.9098   2
  -4  -3   2 1212.43 42.3883   3
   3   3  -2 72.3297 2.98695   1
  -3  -3   2 70.4900 2.99511   3
   2   3  -2 939.994 33.4207   1
  -2  -3   2 922.133 35.4497   3
  -2  -3   2 968.401 32.4359   2
  -1  -3   2 596.656 20.9049   2
  -1  -3   2 612.675 22.9433   3
  -1  -3   2 609.086 21.5444   1
   0  -3   2 412.875 14.2748   1
   0  -3   2 380.087 15.2301   3
  -1   3  -2 642.975 22.3434   2
   1  -3   2 666.027 24.7080   3
   1  -3   2 645.464 23.1590   1
  -2   3  -2 4357.82 141.119   2
   2  -3   2 3931.86 156.217   3
   2  -3   2 4085.69 146.219   1
  -3   3  -2 172.803 6.13574   2
   3  -3   2 170.307 6.58611   1
  -4   3  -2 0.51157 0.28452   2
   4  -3   2 0.09918 0.33625   1
  -5   3  -2 3769.18 141.220   3
  -5   3  -2 3793.68 127.482   2
   5  -3   2 3681.06 132.086   1
  -6   3  -2 525.830 17.7066   2
  -6   3  -2 494.778 19.5566   3
   6  -3   2 488.235 18.6625   1
  -7   3  -2 10.7211 1.14086   3
  -7   3  -2 8.57658 0.90476   2
   7  -3   2 6.17767 0.99812   1
  -8   3  -2 2.47261 0.64711   3
   8  -3   2 2.90104 0.80506   1
   9  -3   2 16.9269 1.87206   1
  10  -3   2 40.9707 3.10908   1
  11  -3   2 103.665 5.64731   1
  12   2  -2 110.156 6.01886   1
 -12  -2   2 118.899 5.71666   2
  11   2  -2 330.087 13.6033   1
 -11  -2   2 335.215 12.9573   2
  10   2  -2 5.39257 1.22603   1
 -10  -2   2 6.66669 1.19655   2
   9   2  -2 585.689 22.1359   1
  -9  -2   2 592.361 21.2999   2
   8   2  -2 2279.75 79.6387   1
  -8  -2   2 2193.24 76.9033   2
   7   2  -2 60.3464 3.11760   1
  -7  -2   2 59.7632 2.96486   2
   6   2  -2 546.940 19.6064   1
  -6  -2   2 519.318 18.8991   2
   5   2  -2 1.50117 0.43796   1
  -5  -2   2 1.38278 0.24678   3
  -5  -2   2 3.32668 0.53504   2
   4   2  -2 9.95763 0.84921   1
  -4  -2   2 11.2994 0.85767   2
  -4  -2   2 11.9726 0.63322   3
   3   2  -2 2.55817 0.47290   1
  -3  -2   2 1.15479 0.29813   3
  -3  -2   2 3.13709 0.48669   2
   2   2  -2 4377.90 152.204   1
  -2  -2   2 4170.36 147.198   2
  -2  -2   2 4303.14 160.609   3
  -1  -2   2 1441.36 54.4309   2
  -1  -2   2 1682.21 56.4127   1
  -1  -2   2 1640.97 60.1293   3
   0  -2   2 15.8881 0.77572   2
   0  -2   2 17.9618 0.96481   3
   0  -2   2 16.0528 0.87058   1
  -1   2  -2 659.231 21.7125   2
   1  -2   2 619.943 24.0375   3
   1  -2   2 628.539 22.6170   1
  -2   2  -2 5122.71 199.439   3
  -2   2  -2 5245.12 180.620   2
   2  -2   2 5534.38 187.714   1
  -3   2  -2 839.797 32.1193   3
  -3   2  -2 843.524 29.0577   2
   3  -2   2 861.766 30.3357   1
  -4   2  -2 6056.16 249.875   3
  -4   2  -2 6811.77 227.184   2
   4  -2   2 7066.61 236.892   1
  -5   2  -2 272.635 10.3229   3
  -5   2  -2 252.346 9.22154   2
   5  -2   2 246.454 9.85984   1
  -6   2  -2 1.45800 0.42775   2
  -6   2  -2 1.84122 0.52729   3
   6  -2   2 1.61385 0.57598   1
  -7   2  -2 334.249 11.6262   2
  -7   2  -2 317.041 12.8145   3
   7  -2   2 307.678 12.4198   1
  -8   2  -2 199.684 7.56669   2
   8  -2   2 194.128 8.31108   1
   9  -2   2 210.248 9.01140   1
  10  -2   2 176.284 8.03508   1
  11  -2   2 89.5512 5.18224   1
  12   1  -2 3.13322 1.34455   1
 -12  -1   2 2.88476 1.11293   2
  11   1  -2 243.120 10.5075   1
 -11  -1   2 247.215 9.90518   2
  10   1  -2 98.7227 4.94021   1
 -10  -1   2 91.6225 4.52888   2
   9   1  -2 78.0238 4.13495   1
  -9  -1   2 80.7266 3.90222   2
  -8  -1   2 6.23298 0.97027   2
   7   1  -2 247.685 9.68238   1
  -7  -1   2 244.304 9.30080   2
   6   1  -2 11.4364 1.07857   1
  -6  -1   2 10.0703 0.65189   3
  -6  -1   2 12.2698 1.07226   2
  -5  -1   2 126.801 5.68255   2
  -5  -1   2 171.298 5.74586   3
   4   1  -2 1132.49 39.8949   1
  -4  -1   2 1112.48 38.5869   2
   3   1  -2 1517.82 52.1862   1
  -3  -1   2 1437.20 50.4741   2
   2   1  -2 7041.22 252.997   1
  -2  -1   2 7302.50 245.242   2
  -1  -1   2 6777.22 239.108   1
   0   1  -2 50.7316 2.16975   3
   0  -1   2 50.5067 1.84382   2
  -1   1  -2 1685.64 63.7676   3
  -2   1  -2 5519.28 226.818   3
  -2   1  -2 6146.17 205.473   2
   2  -1   2 6445.15 214.012   1
  -3   1  -2 524.329 18.5375   2
  -3   1  -2 558.058 20.5821   3
   3  -1   2 532.140 19.4365   1
  -4   1  -2 3075.15 108.285   2
  -4   1  -2 3502.96 120.107   3
   4  -1   2 2912.31 111.930   1
  -5   1  -2 37.3737 1.72876   2
  -5   1  -2 35.0393 1.97995   3
  -6   1  -2 489.681 19.0173   3
  -6   1  -2 521.645 17.2681   2
   6  -1   2 457.964 18.1421   1
  -7   1  -2 818.868 31.6988   3
  -7   1  -2 857.208 28.8999   2
   7  -1   2 811.555 30.2763   1
  -8   1  -2 1295.19 43.6651   2
   8  -1   2 1226.24 45.6071   1
   9  -1   2 749.939 27.9929   1
  10  -1   2 5.48527 1.32720   1
  11  -1   2 122.327 6.38086   1
  12   0  -2 31.5862 2.92352   1
 -12   0   2 33.7320 2.67465   2
  11   0  -2 1.53731 0.98706   1
 -11   0   2 1.70658 0.90292   2
  10   0  -2 94.9534 4.95164   1
 -10   0   2 98.5716 4.60456   2
   9   0  -2 230.885 9.49794   1
  -9   0   2 228.811 9.00602   2
   8   0  -2 369.848 14.3818   1
  -8   0   2 380.336 13.8098   2
   7   0  -2 26.4950 1.88159   1
  -7   0   2 27.8355 1.72509   2
   6   0  -2 3266.15 122.939   1
  -6   0   2 3207.48 118.928   2
  -6   0   2 3989.38 130.308   3
   5   0  -2 2264.66 75.6853   1
  -5   0   2 1992.91 79.9882   3
  -5   0   2 2162.36 73.1890   2
   4   0  -2 185.248 7.34028   1
  -4   0   2 200.189 7.33121   3
  -4   0   2 184.133 7.08938   2
   3   0  -2 1834.66 70.2496   3
   3   0  -2 1801.23 66.2355   1
  -3   0   2 2007.93 64.8704   2
   2   0  -2 5372.17 194.716   3
  -2   0   2 5058.36 178.606   2
   1   0  -2 2168.04 81.6685   3
  -1   0   2 2141.03 77.1335   1
  -1   0   2 2213.49 74.8342   2
   0   0  -2 128.841 4.78258   3
   0   0   2 109.706 4.43045   1
   0   0   2 118.037 4.25392   2
  -1   0  -2 77.7415 3.49086   3
  -2   0  -2 5534.01 183.103   3
  -2   0  -2 4360.86 165.957   2
   2   0   2 4693.97 172.530   1
  -3   0  -2 498.896 16.6906   2
  -3   0  -2 443.187 18.4072   3
   3   0   2 506.633 17.4745   1
  -4   0  -2 1523.39 58.8534   3
  -4   0  -2 1541.13 53.5100   2
   4   0   2 1636.99 55.5678   1
  -5   0  -2 833.497 32.3557   3
  -5   0  -2 874.047 29.4426   2
   5   0   2 850.052 30.6934   1
  -6   0  -2 22.3220 1.32851   2
  -6   0  -2 20.2868 1.45657   3
   6   0   2 18.9360 1.51681   1
  -7   0  -2 174.225 6.92777   2
  -7   0  -2 187.606 7.55717   3
   7   0   2 181.755 7.52903   1
  -8   0  -2 1353.43 45.5284   2
   8   0   2 1273.69 47.4398   1
  -9   0  -2 19.1145 1.67872   2
   9   0   2 21.9027 2.16219   1
  10   0   2 60.2364 3.84717   1
  11   0   2 21.9680 2.50988   1
  12  -1  -2 42.2709 3.37661   1
 -12   1   2 47.5347 3.08546   2
  11  -1  -2 5.26669 1.30980   1
 -11   1   2 7.70736 1.27559   2
  10  -1  -2 87.1528 4.51942   1
 -10   1   2 79.6687 4.05662   2
   9  -1  -2 35.2104 2.45115   1
  -9   1   2 33.4733 2.18898   2
  -7   1   2 58.1742 2.84352   2
   6  -1  -2 2430.16 89.6038   1
  -6   1   2 2523.80 86.7081   2
  -6   1   2 2651.85 94.7418   3
   5  -1  -2 1352.88 48.9023   1
  -5   1   2 1355.61 47.3095   2
  -5   1   2 1422.05 51.5109   3
   4  -1  -2 1.80352 0.25796   3
   4  -1  -2 2.96882 0.44968   1
   3  -1  -2 355.194 13.3249   3
   3  -1  -2 355.125 12.7400   1
  -3   1   2 345.079 12.3796   2
   2  -1  -2 152.454 5.84015   1
   2  -1  -2 158.008 6.14999   3
  -2   1   2 145.633 5.71978   2
   1  -1  -2 1472.02 56.1780   3
  -1   1   2 1537.07 53.2943   1
  -1   1   2 1480.19 51.5631   2
   0  -1  -2 4920.77 191.813   3
   0   1   2 5249.16 179.696   1
   0   1   2 5147.52 174.719   2
  -1  -1  -2 1967.85 74.5279   3
   1   1   2 2017.17 67.6846   2
   1   1   2 1931.92 69.5011   1
  -2  -1  -2 181.246 6.58583   2
  -2  -1  -2 187.650 7.29004   3
   2   1   2 184.493 6.83882   1
  -3  -1  -2 11.5297 0.93588   3
  -3  -1  -2 12.3231 0.82412   2
   3   1   2 12.6021 0.91785   1
  -4  -1  -2 138.365 5.12916   2
  -4  -1  -2 126.529 5.58320   3
   4   1   2 142.005 5.43913   1
  -5  -1  -2 785.199 29.7411   3
  -5  -1  -2 798.411 27.1528   2
   5   1   2 762.938 28.2032   1
  -6  -1  -2 216.983 8.17630   2
  -6  -1  -2 226.200 8.88296   3
   6   1   2 213.868 8.64937   1
  -7  -1  -2 103.811 4.38379   3
  -7  -1  -2 90.2930 4.03958   2
   7   1   2 89.2732 4.40671   1
  -8  -1  -2 36.9536 2.23652   2
   8   1   2 40.7432 2.64536   1
  -9  -1  -2 57.2620 2.98552   2
   9   1   2 48.6748 3.30504   1
  10   1   2 56.4954 3.73424   1
  11   1   2 1672.79 60.8390   1
  12  -2  -2 123.537 6.47469   1
 -12   2   2 128.331 5.94514   2
  11  -2  -2 55.2530 3.70841   1
 -11   2   2 60.0818 3.34908   2
  10  -2  -2 172.432 7.54000   1
 -10   2   2 163.290 6.97169   2
   9  -2  -2 30.0722 2.25686   1
  -9   2   2 28.3770 2.00197   2
   8  -2  -2 30.3800 2.15702   1
  -8   2   2 31.2466 2.00307   2
   7  -2  -2 71.9310 3.48247   1
  -7   2   2 70.8466 3.30599   2
  -6   2   2 35.3497 1.98243   2
   5  -2  -2 1941.82 71.3615   3
   5  -2  -2 1867.87 67.1999   1
  -5   2   2 1890.23 65.0818   2
   4  -2  -2 435.204 15.8760   1
   4  -2  -2 433.159 16.6754   3
  -4   2   2 446.370 15.4756   2
   3  -2  -2 3680.82 135.923   1
   3  -2  -2 3999.45 144.664   3
  -3   2   2 3809.57 132.171   2
   2  -2  -2 1470.90 51.1447   1
   2  -2  -2 1437.28 54.0318   3
  -2   2   2 1418.89 49.2967   2
   1  -2  -2 514.521 20.2668   3
   1  -2  -2 545.507 18.8411   1
  -1   2   2 518.243 18.4987   2
   0  -2  -2 4669.86 194.251   3
   0   2   2 5661.31 181.411   1
   0   2   2 5150.69 176.756   2
  -1  -2  -2 4444.44 157.178   3
   1   2   2 4159.65 146.357   1
   1   2   2 3835.74 141.874   2
  -2  -2  -2 19.0778 1.06664   2
  -2  -2  -2 17.8678 1.18416   3
   2   2   2 20.4866 1.02954   1
  -3  -2  -2 464.612 19.0605   3
  -3  -2  -2 512.765 17.4268   2
   3   2   2 514.067 17.9278   1
  -4  -2  -2 184.266 6.64658   2
  -4  -2  -2 168.641 7.20401   3
   4   2   2 177.626 6.83816   1
  -5  -2  -2 286.071 10.2606   2
  -5  -2  -2 270.996 11.1288   3
   5   2   2 283.781 10.6403   1
  -6  -2  -2 538.543 20.7446   3
  -6  -2  -2 532.583 19.0359   2
   6   2   2 536.956 19.7801   1
  -7  -2  -2 266.881 9.95687   2
  -7  -2  -2 271.899 10.7131   3
   7   2   2 252.413 10.3863   1
  -8  -2  -2 280.521 10.6665   2
   8   2   2 280.328 11.2552   1
  -9  -2  -2 84.2408 4.10698   2
   9   2   2 80.8937 4.44787   1
  10   2   2 275.533 11.5797   1
  11   2   2 1003.77 37.4152   1
  12  -3  -2 203.433 9.04929   1
 -12   3   2 188.398 8.42016   2
  11  -3  -2 40.9948 3.05735   1
 -11   3   2 36.7670 2.58588   2
  10  -3  -2 13.2370 1.70700   1
 -10   3   2 11.4151 1.48853   2
   9  -3  -2 56.0436 3.18770   1
  -9   3   2 50.3258 2.87442   2
   8  -3  -2 286.040 11.1929   1
  -8   3   2 282.578 10.7209   2
   7  -3  -2 1058.87 38.8609   1
  -7   3   2 1102.36 37.6241   2
   5  -3  -2 6.74710 0.78054   1
  -5   3   2 8.18853 0.87495   2
   4  -3  -2 8.29443 0.77220   1
   4  -3  -2 7.66911 0.79650   3
  -4   3   2 8.16448 0.84968   2
   3  -3  -2 815.548 29.3112   1
   3  -3  -2 836.522 31.3068   3
  -3   3   2 825.326 28.6173   2
   2  -3  -2 1384.39 52.6868   3
   2  -3  -2 1453.83 49.6200   1
  -2   3   2 1366.98 48.0586   2
   0  -3  -2 281.788 10.8323   3
   0   3   2 267.925 9.83720   2
  -1  -3  -2 300.468 12.0786   3
   1   3   2 319.712 11.0025   1
   1   3   2 298.608 11.0082   2
  -2  -3  -2 1463.11 56.5716   3
   2   3   2 1440.83 51.5568   2
   2   3   2 1604.46 53.0066   1
  -3  -3  -2 43.0372 2.10973   2
  -3  -3  -2 43.6115 2.28931   3
   3   3   2 45.4205 2.01803   1
  -4  -3  -2 1905.05 62.4080   2
  -4  -3  -2 1679.60 68.3034   3
   4   3   2 1867.34 64.2790   1
  -5  -3  -2 30.8437 1.78132   2
  -5  -3  -2 28.4106 1.81059   3
   5   3   2 25.7778 1.67127   1
  -6  -3  -2 34.5607 2.04082   2
  -6  -3  -2 37.7578 2.14138   3
   6   3   2 29.0962 2.00865   1
  -7  -3  -2 112.818 5.01982   2
  -7  -3  -2 118.530 5.49619   3
   7   3   2 117.079 5.22648   1
  -8  -3  -2 154.700 6.55986   2
   8   3   2 158.076 6.90968   1
  -9  -3  -2 17.4534 1.82526   2
   9   3   2 17.0492 2.05082   1
  10   3   2 32.2056 2.81796   1
  11   3   2 3.70545 1.31255   1
  12  -4  -2 137.405 6.93658   1
  11  -4  -2 -0.0206 0.83514   1
 -11   4   2 -0.2971 0.76180   2
  10  -4  -2 635.208 23.9765   1
 -10   4   2 636.500 22.9671   2
   9  -4  -2 932.023 33.7817   1
  -9   4   2 913.682 32.5358   2
   8  -4  -2 -0.5408 0.45390   1
  -8   4   2 1.10682 0.60319   2
   7  -4  -2 397.542 14.5879   3
   7  -4  -2 351.018 13.9718   1
  -7   4   2 362.787 13.5971   2
   6  -4  -2 4147.55 158.371   3
   6  -4  -2 4251.65 148.872   1
  -6   4   2 4227.03 143.570   2
   5  -4  -2 261.921 10.0464   1
   5  -4  -2 270.462 10.6752   3
  -5   4   2 271.737 9.94725   2
   4  -4  -2 7.80038 0.83271   3
   4  -4  -2 7.07985 0.68376   1
  -4   4   2 7.51457 0.85203   2
   3  -4  -2 116.658 4.44012   1
   3  -4  -2 115.811 5.03619   3
  -3   4   2 117.215 4.64989   2
   2  -4  -2 520.916 20.6340   3
   2  -4  -2 555.515 19.0023   1
  -2   4   2 533.326 18.8797   2
   1  -4  -2 237.024 9.72120   3
  -1   4   2 248.872 8.92226   2
   0  -4  -2 75.8300 3.49593   3
   0   4   2 74.7661 3.18368   2
  -1  -4  -2 750.130 29.3968   3
   1   4   2 788.467 27.1301   1
   1   4   2 772.167 26.8370   2
  -2  -4  -2 0.71505 0.44777   3
   2   4   2 1.07521 0.47726   2
  -3  -4  -2 1772.41 68.4601   3
   3   4   2 1863.81 64.1423   1
  -4  -4  -2 2755.72 94.3158   2
  -4  -4  -2 2798.24 103.430   3
   4   4   2 2714.99 97.0963   1
  -5  -4  -2 235.436 8.87087   2
  -5  -4  -2 228.705 9.51834   3
   5   4   2 227.736 8.86100   1
  -6  -4  -2 281.394 11.5358   3
  -6  -4  -2 284.054 10.7753   2
   6   4   2 284.003 10.9031   1
  -7  -4  -2 52.9023 2.95988   2
   7   4   2 51.1801 2.94241   1
  -8  -4  -2 0.32799 0.68350   2
   8   4   2 0.86761 0.68557   1
  -9  -4  -2 11.0894 1.61824   2
   9   4   2 11.9451 1.63705   1
 -10  -4  -2 51.2245 3.72330   2
  12  -5  -2 3.61446 1.29684   1
  11  -5  -2 114.906 5.83174   1
 -11   5   2 109.255 5.28658   2
  10  -5  -2 60.7501 3.66803   1
 -10   5   2 59.4643 3.38566   2
   9  -5  -2 1300.20 46.7477   1
  -9   5   2 1285.81 45.1566   2
   8  -5  -2 54.0900 3.00561   1
  -8   5   2 54.0292 2.94679   2
   7  -5  -2 55.6177 2.95561   1
   7  -5  -2 60.2686 3.04338   3
  -7   5   2 56.6882 3.02862   2
   6  -5  -2 412.413 16.8060   3
   6  -5  -2 430.939 15.8496   1
  -6   5   2 442.455 15.6045   2
   5  -5  -2 306.094 11.6243   1
   5  -5  -2 313.860 12.5385   3
  -5   5   2 320.725 11.6276   2
   4  -5  -2 131.025 5.62874   3
   4  -5  -2 128.454 4.97256   1
  -4   5   2 124.321 5.19404   2
   3  -5  -2 2298.06 78.4194   1
   3  -5  -2 2161.72 83.8303   3
   2  -5  -2 118.296 5.31423   3
  -2   5   2 123.637 4.91694   2
   1  -5  -2 42.2003 2.35514   3
  -1   5   2 42.1292 2.17862   2
   0  -5  -2 18.2802 1.43947   3
   0   5   2 17.2040 1.31782   2
  -1  -5  -2 82.3151 3.93399   3
   1   5   2 83.0412 3.64801   2
  -2  -5  -2 201.783 8.44928   3
   2   5   2 202.490 7.77085   2
  -3  -5  -2 64.5674 3.34014   3
   3   5   2 66.6937 3.15539   2
  -4  -5  -2 0.22401 0.48569   3
  -5  -5  -2 163.287 7.27887   3
  -5  -5  -2 172.919 6.93282   2
  -6  -5  -2 158.258 7.03035   3
  -6  -5  -2 160.971 6.71840   2
  -7  -5  -2 510.331 18.7764   2
  -8  -5  -2 534.422 19.7647   2
  -9  -5  -2 652.762 23.9594   2
 -10  -5  -2 208.464 9.04580   2
  12  -6  -2 14.4278 2.09233   1
  11  -6  -2 15.6538 2.05414   1
  10  -6  -2 3.62380 1.09255   1
 -10   6   2 6.67283 1.32234   2
   9  -6  -2 6.63374 1.20250   1
  -9   6   2 5.84421 1.15165   2
   8  -6  -2 392.656 14.7223   1
  -8   6   2 375.087 14.3571   2
   7  -6  -2 27.1870 2.09463   3
   7  -6  -2 31.1376 1.98357   1
  -7   6   2 29.4967 2.11916   2
   6  -6  -2 2042.14 76.3621   3
   6  -6  -2 2011.98 71.6708   1
  -6   6   2 2015.96 69.7555   2
   5  -6  -2 95.6785 4.65185   3
  -5   6   2 99.5298 4.39445   2
   4  -6  -2 2806.21 104.146   3
  -4   6   2 2735.47 94.9261   2
   3  -6  -2 2249.12 81.8922   3
  -3   6   2 2094.15 74.5557   2
   2  -6  -2 710.949 27.5045   3
  -2   6   2 711.787 25.1075   2
   1  -6  -2 1443.84 54.3648   3
  -1   6   2 1423.38 49.5581   2
   0  -6  -2 22.2555 1.71628   3
   0   6   2 21.9740 1.62894   2
  -1  -6  -2 211.282 9.16715   3
   1   6   2 226.106 8.47873   2
  -2  -6  -2 140.949 6.26202   3
   2   6   2 138.604 5.81387   2
  -3  -6  -2 352.069 14.4882   3
   3   6   2 367.251 13.4069   2
  -4  -6  -2 90.5255 4.48772   3
   4   6   2 89.7585 4.23685   2
  -5  -6  -2 73.2971 3.87948   3
   5   6   2 73.1863 3.78345   2
  -6  -6  -2 667.912 26.1253   3
 -10   7   2 246.820 10.0322   2
  -9   7   2 16.8468 1.97140   2
  -8   7   2 147.752 6.49440   2
   7  -7  -2 1003.45 38.3570   3
  -7   7   2 987.112 35.1354   2
   6  -7  -2 23.9475 2.07255   3
  -6   7   2 26.4784 2.05649   2
   5  -7  -2 28.7014 2.20875   3
  -5   7   2 30.0998 2.12991   2
   4  -7  -2 492.797 19.1567   3
  -4   7   2 467.137 17.4313   2
   3  -7  -2 172.448 7.43855   3
  -3   7   2 159.771 6.70835   2
   2  -7  -2 14.6833 1.56278   3
  -2   7   2 16.4369 1.49008   2
   1  -7  -2 0.89338 0.64253   3
  -1   7   2 0.36173 0.52473   2
   0  -7  -2 87.8271 4.46470   3
   0   7   2 90.5920 4.13389   2
  -1  -7  -2 912.060 35.1453   3
   1   7   2 909.461 32.0623   2
  -2  -7  -2 1105.33 43.2727   3
   2   7   2 1151.77 39.6134   2
  -3  -7  -2 -0.1837 0.57241   3
   3   7   2 0.34996 0.59980   2
  -4  -7  -2 0.90744 0.71892   3
   4   7   2 2.31380 0.80623   2
  -5  -7  -2 4.90307 1.06584   3
   5   7   2 6.69392 1.23803   2
  -6  -7  -2 5.87588 1.14445   3
   6   7   2 4.46713 1.08725   2
   7   7   2 107.665 5.31961   2
   8   7   2 13.9971 1.85022   2
  -9   8   2 307.292 12.1783   2
  -8   8   2 469.431 17.5921   2
   7  -8  -2 0.34674 0.70731   3
  -7   8   2 1.23676 0.84048   2
   6  -8  -2 383.961 15.8338   3
  -6   8   2 387.390 14.5957   2
   5  -8  -2 0.12680 0.70569   3
  -5   8   2 0.59469 0.70392   2
   4  -8  -2 195.193 8.69081   3
   3  -8  -2 32.1221 2.51464   3
  -3   8   2 36.6058 2.36421   2
   2  -8  -2 165.063 7.54973   3
  -2   8   2 162.817 6.85316   2
   1  -8  -2 920.018 36.2158   3
  -1   8   2 949.288 33.0385   2
   0  -8  -2 344.166 13.9210   3
   0   8   2 326.543 12.6790   2
  -1  -8  -2 453.833 18.1712   3
   1   8   2 443.839 16.5971   2
  -2  -8  -2 212.620 9.10006   3
   2   8   2 195.403 8.35343   2
  -3  -8  -2 1480.70 56.7697   3
   3   8   2 1490.06 51.9800   2
  -4  -8  -2 3.74926 1.01752   3
   4   8   2 2.84442 1.00288   2
  -5  -8  -2 14.3600 1.81883   3
   5   8   2 16.6690 1.93389   2
   6   8   2 7.50500 1.40341   2
   7   8   2 4.20628 1.29540   2
  -9   9   2 24.2499 2.48676   2
  -8   9   2 5.56053 1.34983   2
   7  -9  -2 67.7694 4.04279   3
  -7   9   2 57.6252 3.70744   2
   6  -9  -2 408.514 16.9454   3
  -6   9   2 409.607 15.5896   2
   5  -9  -2 167.306 7.99291   3
  -5   9   2 175.862 7.43865   2
   4  -9  -2 58.1865 3.67840   3
  -4   9   2 56.9587 3.37213   2
   3  -9  -2 0.92894 0.76914   3
  -3   9   2 0.96714 0.77573   2
   2  -9  -2 33.9749 2.64205   3
  -2   9   2 29.7411 2.36231   2
   1  -9  -2 6.90991 1.30973   3
  -1   9   2 5.09573 1.06562   2
   0  -9  -2 420.008 17.3716   3
   0   9   2 423.298 15.8649   2
  -1  -9  -2 45.7472 3.14754   3
   1   9   2 44.4844 2.94881   2
  -2  -9  -2 20.9212 2.16193   3
   2   9   2 20.3693 2.16030   2
  -3  -9  -2 65.9806 4.13916   3
   3   9   2 78.9509 4.18191   2
  -4  -9  -2 3.82896 1.09798   3
   4   9   2 3.63489 1.15408   2
  -5  -9  -2 34.6377 2.88914   3
   5   9   2 37.1828 3.02175   2
   6   9   2 488.875 18.7254   2
  -8  10   2 439.640 16.9455   2
   7 -10  -2 468.292 19.4611   3
  -7  10   2 469.406 17.8608   2
   6 -10  -2 3.50722 1.21180   3
  -6  10   2 5.13909 1.38481   2
   5 -10  -2 191.482 8.93947   3
  -5  10   2 187.204 8.16034   2
   4 -10  -2 660.631 26.7911   3
  -4  10   2 675.903 24.4057   2
   3 -10  -2 97.0001 5.30645   3
  -3  10   2 91.4367 4.79439   2
   2 -10  -2 1.05941 0.87405   3
  -2  10   2 0.04596 0.73343   2
   1 -10  -2 17.1755 2.18397   3
  -1  10   2 17.8432 1.95300   2
   0 -10  -2 0.68927 0.91302   3
   0  10   2 0.52917 0.79262   2
  -1 -10  -2 146.859 7.42918   3
   1  10   2 149.417 6.79973   2
  -2 -10  -2 18.3962 2.46154   3
   2  10   2 20.5245 2.32867   2
  -3 -10  -2 1009.81 39.8562   3
   3  10   2 1026.01 36.5380   2
  -4 -10  -2 21.5527 2.61252   3
   4  10   2 17.6682 2.26848   2
  -5 -10  -2 318.432 14.0440   3
   7 -11  -2 344.380 15.2638   3
  -7  11   2 353.763 14.0340   2
   6 -11  -2 4.07381 1.35445   3
  -6  11   2 5.03903 1.34730   2
   5 -11  -2 1.14914 1.10701   3
  -5  11   2 0.44612 0.85595   2
   4 -11  -2 29.4282 2.94171   3
  -4  11   2 31.1025 2.66866   2
   3 -11  -2 32.1313 3.01346   3
  -3  11   2 32.2981 2.69032   2
   2 -11  -2 15.3097 2.20059   3
  -2  11   2 16.4440 2.08086   2
   1 -11  -2 126.802 6.77474   3
  -1  11   2 126.010 6.13413   2
   0 -11  -2 0.66767 1.07982   3
   0  11   2 -0.0368 0.90242   2
  -1 -11  -2 43.5968 3.66149   3
   1  11   2 48.6945 3.45730   2
  -2 -11  -2 25.2790 2.83626   3
   2  11   2 27.3509 2.77314   2
  -3 -11  -2 69.3120 4.64511   3
   1  13  -3 9.24474 1.70807   2
  -1 -13   3 5.41140 1.76867   3
   0  13  -3 13.0402 1.86666   2
   0 -13   3 13.1065 2.23525   3
  -1  13  -3 220.969 9.33669   2
   3  12  -3 8.74928 1.68832   2
  -3 -12   3 7.08750 1.55530   3
   2  12  -3 14.4096 1.91846   2
  -2 -12   3 13.8275 2.03883   3
   1  12  -3 34.5102 2.65933   2
  -1 -12   3 32.1338 3.02461   3
   0  12  -3 142.228 6.53695   2
   0 -12   3 145.247 7.36637   3
  -1  12  -3 21.0654 2.11134   2
   1 -12   3 21.2606 2.57795   3
  -2  12  -3 450.777 17.3669   2
   2 -12   3 480.979 19.5729   3
   3 -12   3 310.980 13.7794   3
   4 -12   3 21.8131 2.69807   3
   5 -12   3 13.4277 2.12317   3
   5  11  -3 326.838 13.3134   2
   4  11  -3 104.014 5.46863   2
   3  11  -3 471.549 18.0033   2
  -3 -11   3 479.141 19.5142   3
   2  11  -3 581.287 21.4562   2
  -2 -11   3 578.582 23.4003   3
   1  11  -3 116.333 5.56010   2
  -1 -11   3 126.466 6.35082   3
   0  11  -3 99.4961 4.83536   2
   0 -11   3 101.062 5.52392   3
  -1  11  -3 1.89560 0.87764   2
   1 -11   3 2.27452 1.14752   3
  -2  11  -3 228.443 9.28109   2
   2 -11   3 235.847 10.5608   3
  -3  11  -3 17.5163 1.84523   2
   3 -11   3 17.2010 2.28602   3
   4 -11   3 7.62689 1.60401   3
   5 -11   3 864.436 34.2933   3
   6 -11   3 412.776 17.4994   3
   7 -11   3 781.356 31.3816   3
   7  10  -3 132.928 6.95917   2
   6  10  -3 352.847 14.0811   2
   5  10  -3 569.416 21.2827   2
   4  10  -3 324.055 12.7839   2
  -4 -10   3 321.987 13.6220   3
   3  10  -3 576.468 21.7629   2
  -3 -10   3 610.394 23.7515   3
   2  10  -3 86.1922 4.35993   2
  -2 -10   3 84.5358 4.69456   3
   1  10  -3 334.812 12.8419   2
  -1 -10   3 339.150 14.1354   3
   0  10  -3 300.839 11.8597   2
   0 -10   3 325.084 13.3239   3
  -1  10  -3 3.17341 0.83822   2
   1 -10   3 3.36302 1.10746   3
  -2  10  -3 86.5394 4.09839   2
   2 -10   3 84.2614 4.74498   3
  -3  10  -3 4.53064 0.95844   2
   3 -10   3 4.66049 1.27684   3
   4 -10   3 28.5179 2.59309   3
   5 -10   3 5.48367 1.35733   3
   6 -10   3 9.61337 1.60718   3
  -8  10  -3 50.1541 3.70968   3
  -8  -9   3 27.1743 2.68032   2
  -7  -9   3 44.9441 3.29333   2
  -6  -9   3 24.4165 2.35093   2
   4   9  -3 9.31769 1.50791   2
  -4  -9   3 9.09916 1.33226   3
   3   9  -3 49.8561 2.99893   2
  -3  -9   3 50.9931 3.12207   3
   2   9  -3 113.228 5.22172   2
  -2  -9   3 121.051 5.71908   3
   1   9  -3 338.781 12.9311   2
  -1  -9   3 350.517 14.2227   3
   0   9  -3 1157.70 41.2134   2
   0  -9   3 1209.38 45.5011   3
  -1   9  -3 110.406 4.67036   2
   1  -9   3 100.483 5.25048   3
  -2   9  -3 323.491 12.2985   2
   2  -9   3 340.706 13.8740   3
  -3   9  -3 480.836 17.1156   2
   3  -9   3 463.572 19.0960   3
  -4   9  -3 35.5795 2.14093   2
   4  -9   3 33.3663 2.64115   3
   5  -9   3 83.9491 4.62712   3
   6  -9   3 284.056 12.2353   3
  -8   9  -3 13.2117 1.89331   3
  -9  -8   3 28.0386 2.74266   2
  -8  -8   3 46.7633 3.36510   2
  -7  -8   3 0.23510 0.78635   2
  -6  -8   3 7.38968 1.33380   2
  -5  -8   3 14.9060 1.64505   2
  -4  -8   3 0.07329 0.54075   3
  -4  -8   3 1.32489 0.68993   2
  -3  -8   3 128.153 5.89241   3
   2   8  -3 1.09644 0.62355   2
  -2  -8   3 1.88515 0.69994   3
   1   8  -3 -0.2735 0.50468   2
  -1  -8   3 1.10398 0.63439   3
   0   8  -3 3006.86 104.477   2
   0  -8   3 3101.81 114.859   3
  -1   8  -3 45.0418 2.41686   2
   1  -8   3 46.3390 2.83728   3
  -2   8  -3 5.85356 0.83553   2
   2  -8   3 5.83980 1.11905   3
  -3   8  -3 364.270 12.8969   2
   3  -8   3 320.959 14.3477   3
   3  -8   3 371.832 13.1873   1
  -4   8  -3 15.3030 1.29998   2
   4  -8   3 15.1060 1.69657   3
   4  -8   3 16.1905 1.28817   1
   5  -8   3 1.44693 0.56229   1
   5  -8   3 2.42669 0.88261   3
   6  -8   3 394.999 16.0322   3
   6  -8   3 383.483 14.7636   1
  -7   8  -3 4.01304 1.05229   3
   7  -8   3 3.77918 0.91147   1
  -8   8  -3 23.9177 2.24213   3
   8  -8   3 23.9593 2.12189   1
   9  -8   3 167.954 7.55787   1
  10  -8   3 2.18979 1.10728   1
 -10  -7   3 51.1615 3.96065   2
  -9  -7   3 117.560 5.85878   2
  -8  -7   3 47.0711 3.18299   2
  -7  -7   3 1447.69 50.7444   2
   6   7  -3 184.262 7.31805   1
  -6  -7   3 168.711 7.40619   2
   5   7  -3 94.3490 4.23454   1
  -5  -7   3 96.9421 4.50649   3
  -5  -7   3 95.3064 4.52590   2
   4   7  -3 623.856 21.9082   1
  -4  -7   3 598.821 23.3994   3
  -4  -7   3 585.286 21.6358   2
   3   7  -3 802.409 28.0943   1
  -3  -7   3 775.652 30.1054   3
  -3  -7   3 770.702 27.6018   2
   2   7  -3 217.899 7.94964   1
  -2  -7   3 202.702 8.77414   3
   1   7  -3 178.375 6.98902   2
  -1  -7   3 182.851 6.84927   1
  -1  -7   3 180.150 7.70010   3
   0   7  -3 22.9840 1.53378   2
   0  -7   3 27.6586 1.38039   1
   0  -7   3 22.3378 1.76098   3
  -1   7  -3 46.8568 2.31292   2
   1  -7   3 47.6570 2.18939   1
   1  -7   3 45.8635 2.68053   3
  -2   7  -3 20.9800 1.37779   2
   2  -7   3 17.4990 1.56825   3
   2  -7   3 19.6723 1.26875   1
  -3   7  -3 1118.81 36.5477   2
   3  -7   3 1012.58 37.6602   1
   3  -7   3 1033.56 40.3944   3
  -4   7  -3 2487.67 78.9825   2
   4  -7   3 2369.33 87.0826   3
   4  -7   3 2065.72 81.5517   1
  -5   7  -3 142.987 5.52597   2
   5  -7   3 142.463 6.42907   3
   5  -7   3 133.238 5.82074   1
   6  -7   3 525.074 19.5402   1
  -7   7  -3 1042.90 40.4132   3
   7  -7   3 1053.39 38.0517   1
  -8   7  -3 161.248 7.55062   3
   8  -7   3 169.909 7.28255   1
   9  -7   3 266.102 11.0198   1
  10  -7   3 18.5310 2.12934   1
  10   6  -3 786.202 29.0732   1
 -10  -6   3 767.673 28.3627   2
   9   6  -3 1.01084 0.82107   1
  -9  -6   3 1.93773 1.03205   2
   8   6  -3 172.903 7.16294   1
  -8  -6   3 154.688 7.07943   2
   7   6  -3 2143.10 75.9763   1
  -7  -6   3 2127.92 73.8491   2
   6   6  -3 39.9702 2.31462   1
  -6  -6   3 36.2355 2.44568   2
   5   6  -3 172.046 6.79089   1
  -5  -6   3 169.500 7.03982   3
  -5  -6   3 162.602 6.82858   2
   4   6  -3 90.8561 3.77734   1
  -4  -6   3 85.1141 3.95954   3
  -4  -6   3 80.9565 3.86718   2
   3   6  -3 878.556 30.8764   1
  -3  -6   3 857.142 32.9175   3
  -3  -6   3 854.872 30.2010   2
   2   6  -3 315.846 11.1005   1
  -2  -6   3 289.097 11.9558   3
  -2  -6   3 296.089 10.9794   2
   1   6  -3 52.4614 2.46845   2
  -1  -6   3 53.9182 2.70169   3
  -1  -6   3 49.4674 2.26956   1
   0   6  -3 129.746 5.11386   2
   0  -6   3 135.020 5.74112   3
   0  -6   3 129.129 5.07587   1
  -1   6  -3 67.3350 2.86323   2
   1  -6   3 65.6336 2.84950   1
   1  -6   3 66.6499 3.31383   3
  -2   6  -3 956.567 31.1723   2
   2  -6   3 894.525 32.1582   1
   2  -6   3 851.124 34.4190   3
  -3   6  -3 239.965 8.74911   2
   3  -6   3 237.687 9.92739   3
   3  -6   3 243.568 9.14489   1
  -4   6  -3 776.336 26.6081   2
   4  -6   3 767.478 27.6891   1
   4  -6   3 756.561 29.5675   3
  -5   6  -3 153.226 5.90195   2
   5  -6   3 157.572 6.41130   1
  -6   6  -3 9.03825 1.23977   3
   6  -6   3 12.1194 1.28324   1
  -7   6  -3 69.0947 3.94946   3
   7  -6   3 84.3612 3.97837   1
  -8   6  -3 95.2373 4.89454   3
   8  -6   3 95.5467 4.75800   1
   9  -6   3 72.9644 4.10177   1
  10  -6   3 586.596 22.5307   1
  11  -6   3 9.11062 1.75308   1
  11   5  -3 56.7832 3.81822   1
 -11  -5   3 61.6601 3.89450   2
  10   5  -3 427.306 16.3478   1
 -10  -5   3 400.825 15.8308   2
   9   5  -3 45.6653 2.99689   1
  -9  -5   3 44.7925 2.96873   2
   8   5  -3 246.690 9.95996   1
  -8  -5   3 244.279 9.76009   2
   7   5  -3 95.4204 4.45995   1
  -7  -5   3 94.1647 4.44822   2
   6   5  -3 363.258 13.5402   1
  -6  -5   3 351.428 13.2517   2
   5   5  -3 1077.77 37.5161   1
  -5  -5   3 1081.39 39.5255   3
  -5  -5   3 978.427 36.4122   2
   4   5  -3 1982.57 69.2432   1
  -4  -5   3 1874.75 73.3653   3
  -4  -5   3 2014.25 67.2278   2
   3   5  -3 1016.82 36.2614   1
  -3  -5   3 1007.77 38.4977   3
  -3  -5   3 1029.89 35.3019   2
  -2  -5   3 53.9861 2.39578   2
  -2  -5   3 48.9587 2.49759   3
  -1  -5   3 277.131 10.8648   3
  -1  -5   3 269.314 9.85762   2
  -1  -5   3 275.803 10.0597   1
   0   5  -3 1645.25 55.6682   2
   0  -5   3 1666.01 57.4278   1
   0  -5   3 1570.61 61.2075   3
  -1   5  -3 82.3150 3.36454   2
   1  -5   3 85.3625 3.91472   3
   1  -5   3 90.9199 3.53791   1
  -2   5  -3 773.562 25.2681   2
   2  -5   3 704.222 27.9746   3
   2  -5   3 715.318 26.1771   1
  -3   5  -3 1.21772 0.31410   2
   3  -5   3 0.95848 0.36857   1
   3  -5   3 1.21462 0.45413   3
  -4   5  -3 29.9804 1.44826   2
   4  -5   3 28.1563 1.72424   1
   4  -5   3 27.2746 1.84966   3
  -5   5  -3 438.909 14.9527   2
  -5   5  -3 421.815 16.8086   3
   5  -5   3 411.806 15.8077   1
  -6   5  -3 196.532 8.26308   3
   6  -5   3 190.461 7.86976   1
  -7   5  -3 551.952 21.6391   3
   7  -5   3 546.112 20.5415   1
  -8   5  -3 90.6758 4.65789   3
   8  -5   3 94.5342 4.68994   1
   9  -5   3 1137.86 41.6350   1
  10  -5   3 376.744 15.1784   1
  11  -5   3 200.561 9.23197   1
  11   4  -3 3.52124 1.19138   1
 -11  -4   3 2.83042 1.04966   2
  10   4  -3 5.58008 1.20689   1
 -10  -4   3 5.54573 1.22258   2
   9   4  -3 205.693 8.79838   1
  -9  -4   3 210.902 8.58499   2
   8   4  -3 4.19491 0.93819   1
  -8  -4   3 2.93020 0.82520   2
   7   4  -3 266.299 10.6776   1
  -7  -4   3 279.409 10.4402   2
   6   4  -3 204.385 8.12872   1
   5   4  -3 1826.23 63.9012   1
  -5  -4   3 1860.09 67.4383   3
  -5  -4   3 1717.68 61.8993   2
   4   4  -3 1409.49 49.7598   1
  -4  -4   3 1356.17 48.2397   2
  -4  -4   3 1432.22 52.5721   3
   3   4  -3 4485.98 155.517   1
  -3  -4   3 4083.01 150.195   2
  -3  -4   3 4552.50 164.305   3
  -2  -4   3 1120.73 39.2477   2
  -2  -4   3 1165.93 42.9878   3
  -2  -4   3 1141.66 40.4789   1
  -1  -4   3 2655.22 91.3774   2
  -1  -4   3 2671.14 100.086   3
  -1  -4   3 2610.05 93.2670   1
   0  -4   3 683.708 24.8622   3
   0  -4   3 621.314 23.2589   1
  -1   4  -3 194.336 6.78158   2
   1  -4   3 184.458 7.65865   3
   1  -4   3 190.251 7.12389   1
  -2   4  -3 236.745 8.33625   2
   2  -4   3 234.430 9.45516   3
   2  -4   3 236.945 8.84065   1
  -3   4  -3 1396.91 46.6805   2
   3  -4   3 1336.71 48.5470   1
  -4   4  -3 620.847 24.1656   3
  -4   4  -3 634.648 21.6604   2
   4  -4   3 625.692 22.7694   1
  -5   4  -3 903.839 34.6137   3
  -5   4  -3 944.191 31.2061   2
   5  -4   3 870.343 32.6660   1
  -6   4  -3 1639.04 52.7303   2
  -6   4  -3 1515.63 58.2180   3
   6  -4   3 1457.43 54.9454   1
  -7   4  -3 308.648 12.3850   3
   7  -4   3 296.720 11.9274   1
  -8   4  -3 0.22702 0.53480   3
   8  -4   3 0.74139 0.68302   1
   9  -4   3 1104.46 40.5077   1
  10  -4   3 79.2161 4.61994   1
  11  -4   3 21.7479 2.70509   1
  12   3  -3 30.7510 2.93634   1
 -12  -3   3 23.9123 2.58654   2
  11   3  -3 97.5467 5.18510   1
 -11  -3   3 94.9819 4.92677   2
  10   3  -3 158.854 7.22473   1
 -10  -3   3 158.299 6.93353   2
   9   3  -3 91.8128 4.59610   1
  -9  -3   3 86.7069 4.31253   2
   8   3  -3 187.529 7.89862   1
  -8  -3   3 191.085 7.63271   2
   7   3  -3 159.057 6.84017   1
  -7  -3   3 171.450 6.68233   2
   6   3  -3 160.975 6.43502   1
  -6  -3   3 151.722 6.18156   2
   5   3  -3 1823.34 66.1510   1
  -5  -3   3 1897.76 69.8200   3
  -5  -3   3 1880.37 64.0760   2
   4   3  -3 816.695 30.0530   1
  -4  -3   3 869.708 31.5179   3
  -4  -3   3 832.580 29.1270   2
   3   3  -3 549.728 19.8790   1
  -3  -3   3 551.299 20.8382   3
  -3  -3   3 556.131 19.2723   2
  -2  -3   3 3243.93 110.493   1
  -2  -3   3 3033.75 117.581   3
  -2  -3   3 3063.71 107.168   2
  -1  -3   3 216.184 7.80546   1
  -1  -3   3 211.939 8.25128   3
  -1  -3   3 205.463 7.49008   2
   0  -3   3 846.084 29.3080   2
   0  -3   3 883.706 30.4299   1
   0  -3   3 843.281 32.3351   3
  -1   3  -3 632.522 20.6118   2
   1  -3   3 580.039 22.8833   3
   1  -3   3 586.434 21.5082   1
  -2   3  -3 913.588 34.0733   3
  -2   3  -3 899.755 30.6765   2
   2  -3   3 885.149 32.0288   1
  -3   3  -3 634.569 24.3961   3
  -3   3  -3 675.158 21.8875   2
   3  -3   3 603.656 22.9697   1
  -4   3  -3 30.7745 1.81468   3
  -4   3  -3 30.8447 1.37288   2
   4  -3   3 28.8064 1.75921   1
  -5   3  -3 118.416 4.27493   2
  -5   3  -3 107.155 4.97268   3
   5  -3   3 109.701 4.85125   1
  -6   3  -3 1981.87 64.7255   2
  -6   3  -3 1892.85 71.3745   3
   6  -3   3 1802.44 67.3705   1
  -7   3  -3 93.2263 4.47074   3
   7  -3   3 92.1360 4.47808   1
  -8   3  -3 82.1906 4.18005   3
   8  -3   3 82.1710 4.27966   1
   9  -3   3 348.293 13.9801   1
  10  -3   3 2.40603 1.08244   1
  11  -3   3 42.8982 3.46850   1
  12   2  -3 740.571 28.1150   1
 -12  -2   3 737.242 26.9620   2
  11   2  -3 480.090 18.4840   1
 -11  -2   3 462.328 17.6196   2
  10   2  -3 639.267 23.9758   1
 -10  -2   3 631.280 23.0379   2
   9   2  -3 507.334 19.6165   1
  -9  -2   3 529.190 18.9323   2
   8   2  -3 43.1920 2.65984   1
  -8  -2   3 42.1331 2.49578   2
   7   2  -3 176.979 7.25697   1
  -7  -2   3 176.610 6.97196   2
   6   2  -3 1.26093 0.46764   1
  -6  -2   3 2.00850 0.51161   2
   5   2  -3 320.030 12.4587   1
  -5  -2   3 348.762 12.1455   2
   4   2  -3 186.281 7.13318   1
  -4  -2   3 182.120 6.90366   2
   3   2  -3 83.8964 3.48934   1
  -3  -2   3 86.9541 3.34226   3
  -2  -2   3 273.665 9.97725   1
  -2  -2   3 271.712 9.62922   2
   0  -2   3 75.1843 3.11707   1
   0  -2   3 82.1094 2.83939   2
  -1   2  -3 149.304 6.08041   3
   1  -2   3 154.656 5.73556   1
  -2   2  -3 3042.02 129.526   3
  -2   2  -3 3944.18 117.945   2
   2  -2   3 3397.17 122.823   1
  -3   2  -3 165.083 6.91861   3
  -3   2  -3 174.541 5.97549   2
   3  -2   3 169.301 6.56951   1
  -4   2  -3 1290.43 51.4201   3
  -4   2  -3 1464.59 46.5597   2
   4  -2   3 1335.77 48.5352   1
  -5   2  -3 28.9936 1.44351   2
  -5   2  -3 29.2071 1.86843   3
  -6   2  -3 167.679 6.09566   2
  -6   2  -3 169.482 7.01331   3
   6  -2   3 150.588 6.73062   1
  -7   2  -3 309.578 13.1195   3
  -7   2  -3 341.044 11.7897   2
  -8   2  -3 83.4336 4.20719   3
   8  -2   3 86.8163 4.41205   1
   9  -2   3 135.297 6.42385   1
  10  -2   3 40.6020 3.12620   1
  11  -2   3 91.6191 5.30622   1
  12   1  -3 284.080 12.0965   1
 -12  -1   3 283.116 11.4309   2
  11   1  -3 126.471 6.23182   1
 -11  -1   3 126.194 5.85067   2
  10   1  -3 22.8442 2.25867   1
 -10  -1   3 23.0702 1.98505   2
   9   1  -3 63.0363 3.54673   1
  -9  -1   3 63.3881 3.38147   2
   8   1  -3 330.458 12.6641   1
  -8  -1   3 319.524 12.1575   2
   7   1  -3 1162.29 40.8674   1
  -7  -1   3 1109.45 39.4645   2
   6   1  -3 1.07615 0.44060   1
  -6  -1   3 0.89573 0.42664   2
   5   1  -3 3219.04 115.357   1
  -5  -1   3 3328.65 111.971   2
  -4  -1   3 144.204 5.49356   2
   3   1  -3 405.231 15.0195   1
  -3  -1   3 420.994 14.5457   2
  -2  -1   3 6431.97 230.000   1
  -2  -1   3 6569.94 222.512   2
   1   1  -3 4121.03 151.609   3
  -1  -1   3 3961.40 143.099   1
  -1  -1   3 4029.61 137.979   2
   0   1  -3 242.626 9.88463   3
   0  -1   3 248.329 9.29912   1
   0  -1   3 274.991 8.82249   2
   1  -1   3 6.93812 0.54282   1
  -2   1  -3 349.482 11.6772   2
  -2   1  -3 329.975 13.1755   3
   2  -1   3 340.788 12.4182   1
  -3   1  -3 591.355 22.6005   3
  -3   1  -3 614.466 20.2703   2
   3  -1   3 565.644 21.3010   1
  -4   1  -3 955.474 36.3890   3
  -4   1  -3 933.408 32.8308   2
   4  -1   3 986.808 34.3758   1
  -5   1  -3 3959.59 155.141   3
  -5   1  -3 4138.61 141.107   2
   5  -1   3 4256.93 146.758   1
  -6   1  -3 2426.77 100.818   3
  -6   1  -3 2846.51 91.7130   2
   6  -1   3 2793.53 95.2977   1
  -7   1  -3 131.289 4.98526   2
  -7   1  -3 124.308 5.60310   3
   7  -1   3 116.781 5.54098   1
  -8   1  -3 145.443 6.69560   3
   8  -1   3 145.546 6.56646   1
   9  -1   3 649.655 24.5483   1
  10  -1   3 73.5057 4.37144   1
  11  -1   3 66.7313 4.40975   1
  12   0  -3 416.903 16.6168   1
 -12   0   3 406.199 15.6895   2
  11   0  -3 21.4092 2.32233   1
 -11   0   3 24.3273 2.18184   2
  10   0  -3 93.6729 4.86639   1
 -10   0   3 93.3263 4.52045   2
   9   0  -3 812.864 29.8226   1
  -9   0   3 806.662 28.7363   2
   8   0  -3 3454.66 119.295   1
  -8   0   3 3287.45 115.305   2
  -7   0   3 406.962 14.7965   2
   6   0  -3 229.482 8.89915   1
  -6   0   3 229.113 8.60746   2
   5   0  -3 2316.50 80.3633   1
  -5   0   3 2228.05 77.7532   2
   4   0  -3 685.057 25.0253   1
  -4   0   3 710.089 24.2454   2
   3   0  -3 17.6434 1.06861   1
   3   0  -3 19.6735 0.87858   3
  -3   0   3 19.8702 1.08426   2
   2   0  -3 2673.43 95.8059   3
   2   0  -3 2555.20 90.1845   1
  -2   0   3 2405.20 86.6281   2
   1   0  -3 1891.32 73.5062   3
  -1   0   3 1978.18 69.2878   1
  -1   0   3 1959.12 66.7780   2
   0   0   3 720.969 24.3920   2
   0   0   3 705.129 25.2721   1
  -1   0  -3 186.400 7.61393   3
   1   0   3 201.924 6.76945   2
   1   0   3 190.779 7.11510   1
  -2   0  -3 2266.80 80.7089   2
   2   0   3 2466.66 83.8979   1
  -3   0  -3 1401.72 47.5716   2
  -3   0  -3 1398.62 52.4819   3
   3   0   3 1382.70 49.4196   1
  -4   0  -3 2469.19 83.8010   2
  -4   0  -3 2422.43 91.5314   3
   4   0   3 2434.68 86.2488   1
  -5   0  -3 201.815 7.31442   2
   5   0   3 196.462 7.88235   1
  -6   0  -3 2600.42 84.8346   2
  -6   0  -3 2390.02 93.2053   3
   6   0   3 2459.22 88.0354   1
  -7   0  -3 280.917 11.2331   3
  -7   0  -3 279.357 10.1955   2
   7   0   3 269.791 10.9490   1
   8   0   3 62.4015 3.53406   1
   9   0   3 6.81135 1.33043   1
  10   0   3 4.12491 1.22156   1
  11   0   3 13.6295 2.06260   1
 -13   1   3 27.6343 2.73817   2
  12  -1  -3 14.7238 2.03481   1
 -12   1   3 17.1109 2.09042   2
  11  -1  -3 152.582 7.18213   1
 -11   1   3 152.891 6.71532   2
  10  -1  -3 25.6697 2.30326   1
 -10   1   3 27.8991 2.14263   2
   9  -1  -3 44.5312 2.84540   1
  -9   1   3 46.3101 2.71690   2
   8  -1  -3 1426.48 50.6575   1
  -8   1   3 1395.10 48.9369   2
   7  -1  -3 130.190 5.57705   1
  -7   1   3 130.302 5.37591   2
   6  -1  -3 393.393 14.9019   1
  -6   1   3 372.388 14.3824   2
  -6   1   3 435.920 15.2295   3
   5  -1  -3 23.6942 1.48423   1
  -5   1   3 24.8849 1.49873   2
   4  -1  -3 270.713 10.1007   3
   4  -1  -3 252.521 9.80736   1
  -4   1   3 264.260 9.57639   2
   3  -1  -3 119.334 4.65018   1
   3  -1  -3 122.972 4.77849   3
  -3   1   3 117.963 4.58174   2
   2  -1  -3 5070.20 172.672   1
   2  -1  -3 4953.51 183.585   3
  -2   1   3 4624.69 167.288   2
   1  -1  -3 2587.95 95.3544   3
  -1   1   3 2486.16 89.6355   1
  -1   1   3 2513.82 87.1129   2
   0  -1  -3 357.036 13.7827   3
   0   1   3 361.143 12.5101   2
   0   1   3 360.025 12.8292   1
  -1  -1  -3 43.0346 2.20715   3
   1   1   3 48.7723 1.96525   2
   1   1   3 47.6159 1.98888   1
  -2  -1  -3 673.126 25.4755   3
   2   1   3 667.119 23.8989   1
  -3  -1  -3 1.04699 0.37994   3
  -3  -1  -3 1.12119 0.30051   2
   3   1   3 1.57477 0.37431   1
  -4  -1  -3 253.718 10.5690   3
  -4  -1  -3 262.847 9.56142   2
   4   1   3 282.376 10.0979   1
  -5  -1  -3 264.495 9.52140   2
  -5  -1  -3 254.868 10.4808   3
   5   1   3 265.239 10.0652   1
  -6  -1  -3 576.448 20.4692   2
  -6  -1  -3 597.974 22.5015   3
   6   1   3 569.320 21.4290   1
  -7  -1  -3 610.867 24.5351   3
  -7  -1  -3 644.212 22.4338   2
   7   1   3 649.384 23.5525   1
  -8  -1  -3 725.863 25.0248   2
   8   1   3 685.499 26.2027   1
   9   1   3 1454.36 52.7041   1
  10   1   3 71.8148 4.35439   1
  11   1   3 270.598 11.7734   1
 -13   2   3 47.3387 3.58808   2
  12  -2  -3 325.938 13.7041   1
 -12   2   3 337.517 12.9874   2
  11  -2  -3 34.9183 2.80542   1
 -11   2   3 31.3892 2.48256   2
  10  -2  -3 1.68584 0.85232   1
 -10   2   3 3.72880 0.99125   2
   9  -2  -3 8.06230 1.23914   1
  -9   2   3 7.16110 1.10607   2
   8  -2  -3 50.0244 2.91927   1
  -8   2   3 54.9565 2.85570   2
   7  -2  -3 468.597 17.0262   1
  -7   2   3 442.628 16.4062   2
   6  -2  -3 14.2648 0.92339   3
   6  -2  -3 11.8947 1.13667   1
  -6   2   3 14.5191 1.19143   2
   5  -2  -3 2025.28 76.8563   3
   5  -2  -3 2036.61 72.6538   1
  -5   2   3 2105.16 70.4584   2
   4  -2  -3 10.8042 0.82781   3
   4  -2  -3 9.94580 0.86009   1
  -4   2   3 10.6215 0.93627   2
   3  -2  -3 2270.57 85.3446   3
   3  -2  -3 2248.56 79.7034   1
  -3   2   3 2277.08 77.3420   2
   2  -2  -3 2106.54 71.5721   1
   2  -2  -3 2019.94 75.2916   3
  -2   2   3 1896.23 68.6399   2
   1  -2  -3 2041.76 75.2252   3
  -1   2   3 1940.60 68.5020   2
  -1   2   3 2043.80 70.9300   1
   0  -2  -3 146.563 6.16959   3
   0   2   3 150.026 5.59496   2
   0   2   3 150.398 5.51401   1
  -1  -2  -3 326.777 12.9682   3
   1   2   3 334.367 11.7698   2
   1   2   3 337.128 11.9504   1
  -2  -2  -3 286.525 11.2255   3
   2   2   3 281.270 10.1408   2
   2   2   3 284.242 10.3600   1
  -3  -2  -3 37.5655 2.10908   3
  -3  -2  -3 39.0951 1.86386   2
   3   2   3 38.7800 1.88841   1
  -4  -2  -3 644.367 25.3715   3
  -4  -2  -3 671.230 23.1124   2
   4   2   3 668.875 23.8852   1
  -5  -2  -3 58.3460 3.02333   3
  -5  -2  -3 59.5385 2.74992   2
   5   2   3 59.7750 2.90216   1
  -6  -2  -3 307.804 12.0462   3
  -6  -2  -3 294.115 10.9724   2
   6   2   3 290.532 11.4640   1
  -7  -2  -3 91.7227 4.27800   3
  -7  -2  -3 84.7927 3.92454   2
   7   2   3 84.4787 4.22614   1
  -8  -2  -3 939.894 32.8375   2
   8   2   3 926.301 34.1819   1
   9   2   3 232.271 9.85848   1
  10   2   3 12.0526 1.77889   1
  11   2   3 587.116 22.8850   1
  12  -3  -3 29.8653 2.77520   1
 -12   3   3 21.6290 2.30290   2
  11  -3  -3 -0.1562 0.77842   1
 -11   3   3 0.24871 0.83670   2
  10  -3  -3 1.61280 0.87198   1
 -10   3   3 0.67934 0.83430   2
   9  -3  -3 322.337 12.6745   1
  -9   3   3 320.558 12.2066   2
   8  -3  -3 56.6872 3.12593   1
  -8   3   3 58.0056 3.01929   2
   7  -3  -3 18.5937 1.52639   1
  -7   3   3 19.0562 1.54053   2
   6  -3  -3 413.978 15.3616   3
   6  -3  -3 389.585 14.7351   1
  -6   3   3 386.126 14.3889   2
   5  -3  -3 369.012 14.2258   3
   5  -3  -3 362.434 13.5187   1
  -5   3   3 368.620 13.2916   2
   4  -3  -3 1000.60 35.7688   1
   4  -3  -3 981.597 38.0380   3
  -4   3   3 1038.35 34.9006   2
   3  -3  -3 822.496 31.0408   3
   3  -3  -3 821.078 29.0439   1
  -3   3   3 812.177 28.4171   2
   2  -3  -3 47.1082 1.87245   1
   2  -3  -3 41.4299 2.23385   3
   1  -3  -3 4.68442 0.31108   1
   1  -3  -3 3.25200 0.55359   3
  -1   3   3 2.86015 0.46878   2
   0  -3  -3 29.9291 1.77680   3
   0   3   3 30.7257 1.60753   2
  -1  -3  -3 377.210 14.1564   3
   1   3   3 359.455 12.8797   1
   1   3   3 345.288 12.8375   2
  -2  -3  -3 3005.45 113.182   3
   2   3   3 3069.19 106.822   1
   2   3   3 2992.09 103.064   2
  -3  -3  -3 44.7190 2.40033   3
   3   3   3 43.6674 2.20668   2
   3   3   3 43.0278 2.04398   1
  -4  -3  -3 1160.42 40.8784   2
  -4  -3  -3 1213.25 44.9034   3
   4   3   3 1173.95 42.0922   1
  -5  -3  -3 14.2919 1.41541   3
  -5  -3  -3 17.1557 1.32272   2
   5   3   3 17.9263 1.35759   1
  -6  -3  -3 30.2194 2.10476   3
  -6  -3  -3 35.2244 2.07029   2
   6   3   3 32.7113 2.07226   1
  -7  -3  -3 60.8365 3.22116   3
  -7  -3  -3 54.7081 3.01164   2
   7   3   3 57.6148 3.17877   1
  -8  -3  -3 32.4568 2.30128   2
   8   3   3 33.7727 2.45442   1
   9   3   3 5.03258 1.17602   1
  10   3   3 16.2217 2.08552   1
  12  -4  -3 188.630 8.46268   1
 -12   4   3 171.937 7.79701   2
  11  -4  -3 288.916 11.7087   1
 -11   4   3 269.517 11.0356   2
  10  -4  -3 1130.39 40.6228   1
 -10   4   3 1093.11 39.1746   2
   9  -4  -3 413.586 15.6922   1
  -9   4   3 399.751 15.1122   2
   8  -4  -3 678.612 24.7236   1
  -8   4   3 662.689 23.9584   2
   7  -4  -3 1379.74 49.1966   1
   7  -4  -3 1416.33 51.9557   3
  -7   4   3 1331.51 47.7550   2
   6  -4  -3 226.293 8.95338   3
   6  -4  -3 218.616 8.53671   1
  -6   4   3 215.665 8.49557   2
   5  -4  -3 146.581 5.99467   3
   5  -4  -3 135.974 5.55036   1
  -5   4   3 139.256 5.68228   2
   4  -4  -3 67.8032 3.25619   3
   4  -4  -3 67.4730 2.85487   1
  -4   4   3 63.6102 3.08476   2
   3  -4  -3 37.4642 2.13340   3
   3  -4  -3 40.9420 1.73786   1
   2  -4  -3 37.9267 2.11191   3
   2  -4  -3 39.3272 1.54141   1
  -2   4   3 37.5932 1.97302   2
   1  -4  -3 344.376 13.7654   3
  -1   4   3 354.403 12.5948   2
   0  -4  -3 543.953 21.3652   3
   0   4   3 561.478 19.4832   2
  -1  -4  -3 1626.04 61.6426   3
   1   4   3 1685.56 57.3939   1
   1   4   3 1585.92 56.1298   2
  -2  -4  -3 0.00764 0.41242   3
   2   4   3 0.72703 0.24154   1
   2   4   3 0.44514 0.37768   2
  -3  -4  -3 0.31782 0.46190   3
   3   4   3 0.39977 0.42754   2
   3   4   3 1.07845 0.33755   1
  -4  -4  -3 1111.50 43.9722   3
   4   4   3 1140.90 40.1223   2
   4   4   3 1211.84 41.1403   1
  -5  -4  -3 43.0736 2.64415   3
  -5  -4  -3 42.7640 2.45290   2
   5   4   3 46.3106 2.35538   1
  -6  -4  -3 1.17167 0.55913   2
  -6  -4  -3 1.37492 0.64650   3
   6   4   3 0.93463 0.51396   1
  -7  -4  -3 46.7316 2.72137   2
   7   4   3 41.4302 2.60981   1
  -8  -4  -3 1.87041 0.82472   2
  -9  -4  -3 78.6792 4.39478   2
  12  -5  -3 64.7812 4.18933   1
 -12   5   3 60.1557 3.74610   2
  11  -5  -3 165.595 7.48692   1
 -11   5   3 156.128 7.07938   2
  10  -5  -3 341.568 13.2598   1
 -10   5   3 319.128 12.6958   2
   9  -5  -3 202.437 8.32454   1
  -9   5   3 191.476 8.08238   2
   8  -5  -3 23.4473 1.75971   1
  -8   5   3 16.5675 1.76791   2
   7  -5  -3 8.06767 1.06258   3
   7  -5  -3 7.05501 0.94698   1
  -7   5   3 7.08504 1.15334   2
   6  -5  -3 11.4260 1.07770   1
   6  -5  -3 9.61839 1.15203   3
  -6   5   3 11.2148 1.29942   2
   5  -5  -3 1874.23 66.2010   1
   5  -5  -3 1911.74 70.6271   3
  -5   5   3 1832.78 64.5258   2
   4  -5  -3 195.956 7.19372   1
   4  -5  -3 189.385 8.06607   3
  -4   5   3 190.294 7.48127   2
   3  -5  -3 1420.02 48.7526   1
   3  -5  -3 1359.46 52.3667   3
  -3   5   3 1370.67 47.8351   2
   2  -5  -3 252.081 10.1502   3
  -2   5   3 242.851 9.28640   2
   1  -5  -3 56.4161 3.02929   3
  -1   5   3 61.0935 2.85481   2
   0  -5  -3 225.614 9.54539   3
   0   5   3 237.153 8.75134   2
  -1  -5  -3 653.431 25.3149   3
   1   5   3 652.281 23.0573   2
  -2  -5  -3 104.270 5.00126   3
   2   5   3 112.148 4.65235   2
  -3  -5  -3 154.959 6.83170   3
   3   5   3 153.460 6.25530   2
  -4  -5  -3 18.3263 1.62504   3
   4   5   3 17.8498 1.53574   2
  -5  -5  -3 258.292 11.1633   3
   5   5   3 279.334 10.3831   2
  -6  -5  -3 12.6232 1.52796   3
 -11   6   3 11.4554 1.69297   2
 -10   6   3 215.841 8.95123   2
  -9   6   3 60.0912 3.49525   2
  -8   6   3 42.4519 2.80381   2
   7  -6  -3 1184.25 44.8370   3
  -7   6   3 1164.15 41.1834   2
   6  -6  -3 1167.54 44.5355   3
  -6   6   3 1166.98 40.8586   2
   5  -6  -3 31.9821 2.24043   3
  -5   6   3 32.8112 2.19080   2
   4  -6  -3 205.252 8.63656   3
  -4   6   3 198.826 7.96260   2
   3  -6  -3 2872.12 104.624   3
  -3   6   3 2691.35 95.3155   2
   2  -6  -3 178.487 7.74522   3
  -2   6   3 180.772 7.12253   2
   1  -6  -3 14.4069 1.43254   3
  -1   6   3 15.3638 1.36037   2
   0  -6  -3 116.184 5.40238   3
   0   6   3 115.430 4.92863   2
  -1  -6  -3 85.5999 4.21070   3
   1   6   3 79.5272 3.78608   2
  -2  -6  -3 147.493 6.68482   3
   2   6   3 148.276 6.18758   2
  -3  -6  -3 397.735 16.2677   3
   3   6   3 410.790 14.9696   2
  -4  -6  -3 1062.54 41.2990   3
   4   6   3 1087.52 37.7892   2
  -5  -6  -3 32.5671 2.43699   3
   5   6   3 33.8852 2.38370   2
  -6  -6  -3 328.131 13.5675   3
   6   6   3 325.295 12.5899   2
   7   6   3 179.386 7.66699   2
   8   6   3 413.186 15.7906   2
   9   6   3 119.590 5.96683   2
 -11   7   3 7.81736 1.55643   2
 -10   7   3 0.60363 0.91755   2
  -9   7   3 126.794 5.95240   2
  -8   7   3 3.84933 1.15320   2
   7  -7  -3 48.2110 2.99545   3
  -7   7   3 44.1199 2.94308   2
   6  -7  -3 1944.98 73.0454   3
  -6   7   3 1910.59 66.7718   2
   5  -7  -3 122.209 5.71531   3
  -5   7   3 115.331 5.32165   2
   4  -7  -3 229.792 9.82243   3
  -4   7   3 228.578 9.04351   2
   3  -7  -3 110.365 5.96223   3
  -3   7   3 151.028 5.76086   2
   2  -7  -3 74.2743 4.00533   3
  -2   7   3 78.6198 3.74120   2
   1  -7  -3 28.4627 2.15468   3
  -1   7   3 26.5007 1.97162   2
   0  -7  -3 1065.45 41.1020   3
   0   7   3 1072.61 37.4957   2
  -1  -7  -3 0.26102 0.73545   3
   1   7   3 1.60017 0.81512   2
  -2  -7  -3 0.74282 0.71654   3
   2   7   3 2.25207 0.76573   2
  -3  -7  -3 73.1773 4.06375   3
   3   7   3 74.1164 3.85851   2
  -4  -7  -3 1.61434 0.84901   3
   4   7   3 1.95472 0.79885   2
  -5  -7  -3 274.493 11.6946   3
   5   7   3 274.525 10.9078   2
  -6  -7  -3 41.7126 2.89274   3
   6   7   3 40.3902 2.89285   2
   7   7   3 52.3301 3.43336   2
   8   7   3 29.6478 2.69516   2
 -10   8   3 358.706 14.0962   2
  -9   8   3 30.3192 2.70633   2
  -8   8   3 23.3615 2.31730   2
   7  -8  -3 112.848 5.68418   3
  -7   8   3 112.048 5.45383   2
   6  -8  -3 24.5406 2.27647   3
  -6   8   3 25.1111 2.27108   2
   5  -8  -3 127.184 6.20436   3
  -5   8   3 126.018 5.77136   2
   4  -8  -3 296.613 12.5500   3
  -4   8   3 297.792 11.5128   2
   3  -8  -3 1421.73 54.6325   3
  -3   8   3 1431.89 49.8002   2
   2  -8  -3 249.426 10.6575   3
  -2   8   3 241.244 9.67548   2
   1  -8  -3 532.973 21.5183   3
  -1   8   3 544.433 19.6906   2
   0  -8  -3 705.778 27.7587   3
   0   8   3 704.427 25.3626   2
  -1  -8  -3 403.332 16.7402   3
   1   8   3 414.453 15.3652   2
  -2  -8  -3 475.286 19.2266   3
   2   8   3 472.550 17.6001   2
  -3  -8  -3 14.6553 1.83615   3
   3   8   3 14.3969 1.80758   2
  -4  -8  -3 16.2367 1.91326   3
   4   8   3 10.9012 1.58750   2
  -5  -8  -3 6.78448 1.32329   3
   5   8   3 7.83265 1.45654   2
   6   8   3 54.0192 3.49935   2
   7   8   3 12.1343 1.78040   2
  -9   9   3 3.21533 1.31288   2
  -8   9   3 5.67667 1.50591   2
   7  -9  -3 139.535 6.91468   3
  -7   9   3 138.728 6.54411   2
   6  -9  -3 71.7887 4.23832   3
  -6   9   3 62.3331 3.93520   2
   5  -9  -3 48.9860 3.42803   3
  -5   9   3 49.2265 3.18903   2
   4  -9  -3 323.057 13.8328   3
  -4   9   3 327.955 12.6584   2
   3  -9  -3 66.9969 4.04336   3
  -3   9   3 65.4835 3.72061   2
   2  -9  -3 241.535 10.7524   3
  -2   9   3 242.815 9.77782   2
   1  -9  -3 35.3691 2.80605   3
  -1   9   3 31.7670 2.49674   2
   0  -9  -3 10.3999 1.56250   3
   0   9   3 11.6103 1.63250   2
  -1  -9  -3 5.15140 1.24266   3
   1   9   3 3.67171 1.08725   2
  -2  -9  -3 109.981 5.79952   3
   2   9   3 109.150 5.40549   2
  -3  -9  -3 81.7609 4.80943   3
   3   9   3 84.3192 4.50638   2
  -4  -9  -3 465.206 19.1805   3
   4   9   3 467.349 17.7549   2
  -5  -9  -3 76.1164 4.60955   3
   5   9   3 78.0801 4.52469   2
  -8  10   3 294.475 12.1164   2
   7 -10  -3 171.425 8.37175   3
  -7  10   3 170.363 7.78893   2
   6 -10  -3 348.827 14.7895   3
  -6  10   3 335.522 13.5346   2
   5 -10  -3 239.604 10.9174   3
  -5  10   3 242.366 10.0210   2
   4 -10  -3 11.2226 1.81968   3
  -4  10   3 13.7532 1.78974   2
   3 -10  -3 4.82765 1.27649   3
  -3  10   3 6.31046 1.30485   2
   2 -10  -3 18.4252 2.29852   3
  -2  10   3 20.2116 2.11170   2
   1 -10  -3 108.883 5.88413   3
  -1  10   3 102.671 5.25381   2
   0 -10  -3 99.5701 5.66090   3
   0  10   3 99.4807 5.12222   2
  -1 -10  -3 69.9976 4.65111   3
   1  10   3 78.0557 4.41325   2
  -2 -10  -3 254.606 11.4668   3
   2  10   3 254.519 10.6191   2
  -3 -10  -3 560.499 23.2489   3
   3  10   3 581.985 21.5211   2
  -4 -10  -3 33.7613 3.05537   3
   4  10   3 33.7500 3.30626   2
  -5 -10  -3 157.229 8.22645   3
   6 -11  -3 23.9375 2.72622   3
  -6  11   3 22.8911 2.78972   2
   5 -11  -3 1.43447 1.14613   3
  -5  11   3 -0.5485 0.91880   2
   4 -11  -3 128.058 6.91679   3
  -4  11   3 131.867 6.38084   2
   3 -11  -3 237.710 11.0743   3
  -3  11   3 238.290 10.0851   2
   2 -11  -3 1.70522 1.12318   3
  -2  11   3 1.59238 1.08268   2
   1 -11  -3 21.9384 2.62513   3
  -1  11   3 20.1473 2.38635   2
   0 -11  -3 1.60694 1.17041   3
   0  11   3 1.67529 1.07113   2
  -1 -11  -3 8.14137 1.74492   3
   1  11   3 4.96377 1.49203   2
  -2 -13   4 4.53067 1.46811   3
   1  13  -4 89.7796 4.92918   2
  -1 -13   4 97.7661 5.72113   3
   0  13  -4 64.6384 4.00897   2
   0 -13   4 71.5273 4.73357   3
   1 -13   4 580.890 24.1612   3
   4  12  -4 2.21442 1.18163   2
   3  12  -4 1.24639 1.01224   2
  -3 -12   4 -0.6831 0.79241   3
   2  12  -4 165.596 7.54072   2
  -2 -12   4 179.748 8.45078   3
   1  12  -4 3.37784 1.11720   2
  -1 -12   4 6.12196 1.39905   3
   0  12  -4 6.47999 1.31638   2
   0 -12   4 4.47799 1.31975   3
  -1  12  -4 667.191 24.7727   2
   1 -12   4 703.124 27.6948   3
   2 -12   4 115.871 6.37804   3
   3 -12   4 26.6490 2.93178   3
   4 -12   4 247.607 11.4444   3
   5 -12   4 99.5377 5.92874   3
   5  11  -4 159.698 7.47015   2
   4  11  -4 23.9481 2.39537   2
   3  11  -4 25.1275 2.32440   2
  -3 -11   4 19.5655 2.33106   3
   2  11  -4 1.10390 0.79441   2
  -2 -11   4 -1.8422 0.70009   3
   1  11  -4 63.8577 3.53389   2
  -1 -11   4 62.3689 4.03947   3
   0  11  -4 121.529 5.68083   2
   0 -11   4 133.939 6.61984   3
  -1  11  -4 335.492 13.0251   2
   1 -11   4 352.687 14.7261   3
  -2  11  -4 5.31981 1.11594   2
   2 -11   4 7.53244 1.55166   3
   3 -11   4 35.7231 3.08484   3
   4 -11   4 729.418 29.2122   3
   5 -11   4 1226.99 47.7966   3
   6 -11   4 64.8080 4.44446   3
  -7  11  -4 4.76821 1.30701   3
   5  10  -4 753.291 27.4949   2
   4  10  -4 5.03008 1.28737   2
  -4 -10   4 4.83931 1.18827   3
   3  10  -4 1.12635 0.80769   2
  -3 -10   4 -1.2767 0.66273   3
   2  10  -4 6.42218 1.18919   2
  -2 -10   4 1.50580 0.84757   3
   1  10  -4 57.4826 3.20583   2
  -1 -10   4 57.6015 3.58119   3
   0  10  -4 2.47397 0.82940   2
   0 -10   4 3.06078 0.97661   3
  -1  10  -4 97.5020 4.50615   2
   1 -10   4 100.664 5.28924   3
  -2  10  -4 340.434 12.5047   2
   2 -10   4 326.200 14.0718   3
   3 -10   4 38.1686 2.96436   3
   4 -10   4 316.020 13.5641   3
   5 -10   4 1026.34 40.0911   3
  -7  10  -4 69.9144 4.43516   3
  -8  10  -4 120.134 6.43351   3
  -9  10  -4 37.1817 3.35502   3
  -8  -9   4 45.7751 3.37915   2
  -7  -9   4 0.63643 0.84896   2
  -6  -9   4 26.7676 2.40411   2
  -5  -9   4 14.1837 1.79970   2
  -4  -9   4 18.4692 1.77636   3
   3   9  -4 254.802 10.1002   2
  -3  -9   4 259.825 10.8964   3
   2   9  -4 1473.12 51.5068   2
  -2  -9   4 1490.09 56.4870   3
   1   9  -4 95.7272 4.38638   2
  -1  -9   4 96.4552 4.88341   3
   0   9  -4 24.8799 1.79128   2
   0  -9   4 24.4555 2.16400   3
  -1   9  -4 651.114 22.7718   2
   1  -9   4 631.136 25.2944   3
  -2   9  -4 1.10170 0.56069   2
   2  -9   4 0.31209 0.69023   3
  -3   9  -4 15.3939 1.35968   2
   3  -9   4 10.8725 1.57927   3
   4  -9   4 1.92878 0.87611   3
   5  -9   4 175.831 8.15119   3
  -7   9  -4 78.1830 4.59903   3
  -8   9  -4 502.772 20.5646   3
  -9   9  -4 60.1536 4.04008   3
  -9  -8   4 -0.0713 0.90285   2
  -8  -8   4 25.7777 2.50450   2
  -7  -8   4 4.53737 1.16799   2
  -6  -8   4 233.259 9.54391   2
  -5  -8   4 639.210 23.1917   2
  -4  -8   4 182.732 7.71543   3
  -4  -8   4 173.000 7.29722   2
  -3  -8   4 394.336 15.8134   3
  -3  -8   4 396.475 14.6353   2
   2   8  -4 1434.90 49.1142   2
  -2  -8   4 1396.87 53.8101   3
   1   8  -4 432.513 15.8314   2
  -1  -8   4 444.771 16.0002   1
  -1  -8   4 434.250 17.4335   3
   0   8  -4 14.1276 1.31829   2
   0  -8   4 17.3498 1.16737   1
   0  -8   4 12.5222 1.58816   3
  -1   8  -4 28.3938 1.74317   2
   1  -8   4 30.2481 1.67859   1
   1  -8   4 27.2679 2.12396   3
  -2   8  -4 150.865 6.06226   2
   2  -8   4 162.370 6.23355   1
   2  -8   4 150.500 6.99505   3
  -3   8  -4 94.3381 3.92326   2
   3  -8   4 94.4481 4.07005   1
   3  -8   4 84.2702 4.60478   3
   4  -8   4 11.9897 1.49871   3
   4  -8   4 10.5726 1.14415   1
   5  -8   4 2.52758 0.67389   1
   5  -8   4 2.71044 0.87979   3
  -6   8  -4 37.8311 2.66057   3
   6  -8   4 29.9104 2.19369   1
  -7   8  -4 757.945 30.1279   3
   7  -8   4 774.133 28.2622   1
  -8   8  -4 43.9145 3.11692   3
   8  -8   4 43.0727 2.92668   1
  -9   8  -4 32.7719 2.79805   3
   9  -8   4 33.2932 2.67127   1
  10  -8   4 150.821 7.23593   1
 -10  -7   4 75.6891 4.55120   2
  -9  -7   4 709.787 26.0422   2
   8   7  -4 15.8762 1.78433   1
  -8  -7   4 15.7169 1.92808   2
   7   7  -4 12.2129 1.50624   1
  -7  -7   4 10.8537 1.48575   2
   6   7  -4 203.868 8.53996   1
  -6  -7   4 224.819 8.74422   2
   5   7  -4 5.22336 0.82273   1
  -5  -7   4 3.39627 0.87147   2
   4   7  -4 107.565 4.51780   1
  -4  -7   4 104.541 4.80495   3
  -4  -7   4 104.679 4.69592   2
   3   7  -4 642.901 23.3137   1
  -3  -7   4 645.200 22.9192   2
  -3  -7   4 647.071 24.9208   3
  -2  -7   4 169.744 6.69895   2
  -2  -7   4 171.600 7.28972   3
   1   7  -4 326.766 12.3130   2
  -1  -7   4 348.382 12.5269   1
  -1  -7   4 343.110 13.6226   3
   0   7  -4 537.919 19.3302   2
   0  -7   4 550.170 19.8026   1
   0  -7   4 555.348 21.4306   3
  -1   7  -4 1726.45 58.2144   2
   1  -7   4 1622.04 60.0683   1
   1  -7   4 1742.87 64.2477   3
  -2   7  -4 98.5014 3.93477   2
   2  -7   4 93.7033 4.61064   3
   2  -7   4 93.2800 4.06925   1
  -3   7  -4 1855.75 63.0615   2
   3  -7   4 1836.58 65.3056   1
   3  -7   4 1831.77 69.6803   3
   4  -7   4 433.357 17.5799   3
   4  -7   4 444.601 16.3327   1
  -5   7  -4 310.511 13.0698   3
   5  -7   4 322.408 12.1841   1
  -6   7  -4 22.8074 1.98783   3
   6  -7   4 21.5939 1.79490   1
  -7   7  -4 151.996 7.08687   3
   7  -7   4 152.498 6.72629   1
  -8   7  -4 44.8015 3.12313   3
   8  -7   4 48.4802 3.07504   1
  -9   7  -4 68.4008 4.42953   3
   9  -7   4 73.5430 4.15664   1
  10  -7   4 172.100 8.02007   1
  11   6  -4 122.117 6.20919   1
  10   6  -4 193.588 8.60472   1
 -10  -6   4 197.017 8.56474   2
   9   6  -4 474.858 18.1698   1
  -9  -6   4 471.024 17.8312   2
   8   6  -4 39.8010 2.62755   1
  -8  -6   4 38.5806 2.77301   2
   7   6  -4 503.443 18.5123   1
  -7  -6   4 482.433 18.1401   2
   6   6  -4 13.1726 1.36758   1
  -6  -6   4 13.1364 1.48593   2
   5   6  -4 63.7061 3.11772   1
  -5  -6   4 65.5423 3.14313   3
  -5  -6   4 64.4923 3.24781   2
   4   6  -4 206.320 7.95168   1
  -4  -6   4 205.208 7.92070   2
  -4  -6   4 200.897 8.28673   3
   3   6  -4 666.409 24.4156   1
  -3  -6   4 692.516 23.8783   2
  -3  -6   4 675.018 25.9667   3
  -2  -6   4 337.375 12.1318   2
  -2  -6   4 334.854 12.3612   1
  -2  -6   4 331.993 13.2252   3
  -1  -6   4 16.4229 1.28120   3
  -1  -6   4 14.7560 1.07053   2
  -1  -6   4 14.2795 1.05014   1
   0   6  -4 1611.88 54.7930   2
   0  -6   4 1556.38 56.5478   1
   0  -6   4 1627.14 60.3459   3
  -1   6  -4 904.803 31.2456   2
   1  -6   4 929.672 32.3779   1
   1  -6   4 882.173 34.5935   3
  -2   6  -4 218.120 7.69130   2
   2  -6   4 209.333 8.08471   1
   2  -6   4 204.015 8.76797   3
  -3   6  -4 467.275 15.4114   2
   3  -6   4 414.492 16.1439   1
   3  -6   4 434.695 17.3560   3
  -4   6  -4 18.2692 1.10788   2
   4  -6   4 18.3016 1.39577   1
  -5   6  -4 0.37731 0.55839   3
   5  -6   4 0.19938 0.45020   1
  -6   6  -4 2.72390 0.77256   3
   6  -6   4 3.79790 0.81737   1
  -7   6  -4 401.256 16.8812   3
   7  -6   4 433.235 16.0634   1
  -8   6  -4 375.586 15.8302   3
   8  -6   4 398.218 15.1983   1
   9  -6   4 138.913 6.60200   1
  10  -6   4 128.035 6.45546   1
  11   5  -4 40.3321 3.14199   1
 -11  -5   4 45.3351 3.27624   2
  10   5  -4 174.895 7.89850   1
 -10  -5   4 177.106 7.74155   2
   9   5  -4 148.119 6.68837   1
  -9  -5   4 146.064 6.56135   2
   8   5  -4 81.3480 4.12974   1
  -8  -5   4 80.4224 4.08039   2
   7   5  -4 150.958 6.40106   1
  -7  -5   4 147.126 6.30463   2
   6   5  -4 1621.99 56.6147   1
  -6  -5   4 1550.95 54.8874   2
   5   5  -4 54.9803 2.74582   1
  -5  -5   4 56.2445 2.53968   3
  -5  -5   4 51.1231 2.72312   2
   4   5  -4 1256.28 45.6646   1
  -4  -5   4 1297.02 44.3449   2
  -4  -5   4 1295.55 48.2743   3
   3   5  -4 78.4629 3.43388   1
  -3  -5   4 79.8309 3.42008   2
  -3  -5   4 79.5194 3.53865   3
  -2  -5   4 435.879 15.4822   2
  -2  -5   4 439.047 15.9465   1
  -2  -5   4 436.702 16.9303   3
  -1  -5   4 456.149 16.2241   1
  -1  -5   4 444.873 17.2935   3
  -1  -5   4 438.964 15.6846   2
   0   5  -4 70.3926 2.73211   2
   0  -5   4 64.0030 3.12379   3
   0  -5   4 64.2283 2.84607   1
  -1   5  -4 10.7659 0.73846   2
   1  -5   4 8.78002 0.82495   1
   1  -5   4 12.7791 1.05497   3
  -2   5  -4 240.733 8.48304   2
   2  -5   4 228.965 9.68341   3
   2  -5   4 246.313 9.06637   1
  -3   5  -4 1291.41 45.3589   2
   3  -5   4 1365.26 47.3098   1
  -4   5  -4 1401.70 45.0670   2
  -4   5  -4 1280.95 50.0149   3
   4  -5   4 1268.49 47.0206   1
  -5   5  -4 247.207 9.80516   3
   5  -5   4 220.011 9.18550   1
  -6   5  -4 1200.70 46.5735   3
   6  -5   4 1238.51 43.9525   1
  -7   5  -4 968.932 36.9696   3
   7  -5   4 947.347 34.9563   1
  -8   5  -4 347.296 14.6747   3
   8  -5   4 368.836 14.1789   1
   9  -5   4 74.9496 4.27739   1
  10  -5   4 723.133 27.4230   1
  11   4  -4 0.69459 0.86639   1
 -11  -4   4 1.05468 0.89175   2
  10   4  -4 14.9569 1.92231   1
 -10  -4   4 15.9805 1.87558   2
   9   4  -4 103.176 5.02764   1
  -9  -4   4 98.8463 4.83516   2
   8   4  -4 2.17403 0.77249   1
  -8  -4   4 2.32654 0.75347   2
   7   4  -4 1820.08 63.6316   1
  -7  -4   4 1746.53 61.5827   2
   6   4  -4 948.364 34.2449   1
  -6  -4   4 950.529 33.1983   2
   5   4  -4 69.7692 3.28305   1
  -5  -4   4 73.2084 2.97548   3
  -5  -4   4 66.7881 3.17897   2
   4   4  -4 1561.72 55.4564   1
  -4  -4   4 1553.23 58.5136   3
  -4  -4   4 1573.64 53.7231   2
   3   4  -4 46.7415 2.20680   1
  -3  -4   4 42.4654 2.10076   2
  -3  -4   4 44.2302 2.10463   3
  -2  -4   4 134.101 5.29222   1
  -2  -4   4 136.049 5.10653   2
  -2  -4   4 135.426 5.51140   3
  -1  -4   4 524.655 18.6604   2
  -1  -4   4 544.747 20.5830   3
  -1  -4   4 546.726 19.3837   1
   0  -4   4 1181.33 38.7603   2
   0  -4   4 1096.87 40.2182   1
   0  -4   4 1118.15 42.7565   3
  -1   4  -4 699.755 21.6655   2
   1  -4   4 600.840 24.0876   3
   1  -4   4 588.430 22.6019   1
  -2   4  -4 682.437 25.5844   3
  -2   4  -4 681.689 22.8300   2
   2  -4   4 635.323 23.9689   1
  -3   4  -4 777.240 26.3411   2
  -3   4  -4 759.710 29.4709   3
   3  -4   4 769.604 27.7168   1
  -4   4  -4 754.972 24.0263   2
  -4   4  -4 681.198 26.9067   3
   4  -4   4 659.137 25.3345   1
  -5   4  -4 87.5938 4.31674   3
   5  -4   4 91.6566 4.16237   1
  -6   4  -4 1057.33 40.4457   3
   6  -4   4 1056.58 38.2257   1
  -7   4  -4 164.393 7.23934   3
   7  -4   4 157.658 6.96056   1
  -8   4  -4 124.196 5.89150   3
   8  -4   4 121.771 5.81242   1
   9  -4   4 96.7779 5.07515   1
  10  -4   4 93.4492 5.18433   1
  11  -4   4 22.9613 2.65371   1
  12   3  -4 0.30061 0.97884   1
 -12  -3   4 0.29993 0.92487   2
  11   3  -4 31.3694 2.71806   1
 -11  -3   4 29.5453 2.56164   2
  10   3  -4 58.6278 3.64497   1
 -10  -3   4 58.5434 3.43705   2
   9   3  -4 51.1420 3.21693   1
  -9  -3   4 54.5024 3.11710   2
   8   3  -4 6.05575 1.04949   1
  -8  -3   4 6.52647 1.04145   2
   7   3  -4 194.713 7.85474   1
  -7  -3   4 189.325 7.56888   2
   6   3  -4 257.354 9.95840   1
  -6  -3   4 256.902 9.64814   2
   5   3  -4 17.6021 1.36577   1
  -5  -3   4 24.1140 0.97604   3
  -5  -3   4 17.5270 1.31502   2
  -4  -3   4 3.67259 0.39748   3
  -4  -3   4 3.31989 0.59540   2
   3   3  -4 196.833 7.56124   1
  -3  -3   4 203.956 7.69342   3
  -3  -3   4 194.725 7.27589   2
  -2  -3   4 255.274 8.82005   2
  -2  -3   4 247.151 9.55388   3
  -2  -3   4 237.921 9.15991   1
  -1  -3   4 18.4441 1.09581   1
  -1  -3   4 20.1201 0.96725   2
   0   3  -4 1272.32 46.2297   3
   0  -3   4 1139.12 43.4520   1
   0  -3   4 1273.12 41.8281   2
  -1   3  -4 3.18707 0.24963   2
   1  -3   4 2.81552 0.41953   1
  -2   3  -4 192.261 7.52187   3
   2  -3   4 175.128 7.01639   1
  -3   3  -4 1374.68 45.6467   2
  -3   3  -4 1306.62 50.6964   3
   3  -3   4 1342.69 47.7419   1
  -4   3  -4 83.4340 2.98161   2
  -4   3  -4 74.6965 3.73357   3
   4  -3   4 79.0000 3.61105   1
  -5   3  -4 262.329 11.1026   3
  -5   3  -4 287.682 9.68460   2
   5  -3   4 269.531 10.5824   1
  -6   3  -4 38.7776 2.45056   3
   6  -3   4 39.1088 2.42117   1
  -7   3  -4 2.48224 0.75798   3
   7  -3   4 1.31659 0.64267   1
  -8   3  -4 137.461 6.54406   3
   8  -3   4 146.049 6.54060   1
   9  -3   4 68.5592 4.09394   1
  10  -3   4 896.378 33.5121   1
  11  -3   4 45.1589 3.55602   1
  12   2  -4 6.21224 1.57726   1
 -12  -2   4 10.1362 1.64416   2
  11   2  -4 476.989 18.6138   1
 -11  -2   4 474.972 17.8471   2
  10   2  -4 3.06841 1.02014   1
 -10  -2   4 -0.8716 0.66674   2
   9   2  -4 8.94135 1.35201   1
  -9  -2   4 9.16231 1.29324   2
   8   2  -4 2.35562 0.73536   1
  -8  -2   4 0.28246 0.56495   2
   7   2  -4 28.5368 1.91193   1
  -7  -2   4 26.3773 1.81017   2
   6   2  -4 0.66068 0.43501   1
  -6  -2   4 2.31292 0.53369   2
   5   2  -4 1.88120 0.48498   1
  -5  -2   4 2.16868 0.45517   2
   4   2  -4 57.2941 2.69230   1
  -4  -2   4 61.4511 2.63689   2
   3   2  -4 4382.06 152.971   3
   3   2  -4 3862.36 144.107   1
  -3  -2   4 4001.17 140.806   2
   2   2  -4 4675.72 163.532   3
  -2  -2   4 4116.90 154.202   1
  -2  -2   4 4226.19 149.098   2
   1   2  -4 1553.80 57.3897   3
  -1  -2   4 1543.52 52.7695   2
  -1  -2   4 1498.55 54.0781   1
   0   2  -4 1004.41 38.7109   3
   0  -2   4 1041.26 35.0801   2
   0  -2   4 1039.11 36.4498   1
  -1   2  -4 208.447 8.43865   3
   1  -2   4 215.754 7.93910   1
  -2   2  -4 499.688 19.8547   3
   2  -2   4 533.804 18.7138   1
  -3   2  -4 10.8272 0.52401   2
  -3   2  -4 10.0277 0.98942   3
  -4   2  -4 182.565 7.78359   3
  -4   2  -4 194.879 6.63298   2
   4  -2   4 184.263 7.39074   1
  -5   2  -4 11.6894 1.14845   3
  -5   2  -4 8.75779 0.65011   2
   5  -2   4 6.13047 0.94726   1
  -6   2  -4 829.109 33.0697   3
   6  -2   4 893.302 31.4144   1
  -7   2  -4 256.754 10.6527   3
   7  -2   4 253.710 10.3373   1
  -8   2  -4 0.26578 0.57272   3
   8  -2   4 2.15114 0.86330   1
   9  -2   4 707.808 26.6853   1
  10  -2   4 104.789 5.66863   1
  11  -2   4 35.3525 3.17559   1
  12   1  -4 32.7356 2.96313   1
 -12  -1   4 33.5691 2.80378   2
  11   1  -4 1.46769 0.93020   1
 -11  -1   4 -0.9701 0.82704   2
  10   1  -4 1.04609 0.94557   1
 -10  -1   4 0.62220 0.77037   2
   9   1  -4 163.960 7.09993   1
  -9  -1   4 159.024 6.76404   2
   8   1  -4 961.649 35.0112   1
  -8  -1   4 965.979 33.8725   2
   7   1  -4 163.253 6.93061   1
  -7  -1   4 174.058 6.75267   2
   6   1  -4 22.5938 1.62211   1
  -6  -1   4 27.7956 1.65359   2
   5   1  -4 70.0031 3.21973   1
  -5  -1   4 72.4881 3.14324   2
   4   1  -4 73.4893 3.09349   1
  -4  -1   4 66.9421 2.94527   2
   3   1  -4 13.5857 0.93992   1
   3   1  -4 14.2403 0.70707   3
  -3  -1   4 15.3110 0.93871   2
   2   1  -4 71.8715 2.89636   3
  -2  -1   4 66.6966 2.73658   2
   1   1  -4 1413.62 51.0595   3
  -1  -1   4 1308.41 48.0664   1
  -1  -1   4 1361.13 46.5071   2
   0   1  -4 461.483 17.4279   3
   0  -1   4 446.528 16.3604   1
   0  -1   4 457.987 15.6126   2
  -1   1  -4 7.63809 0.76303   3
   1  -1   4 8.88211 0.71684   1
   1  -1   4 9.87620 0.45093   2
  -2   1  -4 5461.44 189.533   3
   2  -1   4 4348.03 176.839   1
   2  -1   4 5220.49 170.600   2
  -3   1  -4 3931.92 128.667   2
  -3   1  -4 3702.57 142.543   3
   3  -1   4 3655.52 133.801   1
  -4   1  -4 24.9466 1.15569   2
  -4   1  -4 21.1816 1.58081   3
   4  -1   4 24.5496 1.56436   1
  -5   1  -4 1175.43 39.6519   2
  -5   1  -4 1185.18 43.9872   3
   5  -1   4 1109.79 41.4939   1
  -6   1  -4 17.2046 1.13281   2
  -6   1  -4 15.3979 1.50416   3
   6  -1   4 18.9765 1.61651   1
  -7   1  -4 288.746 11.8169   3
   7  -1   4 285.560 11.4263   1
  -8   1  -4 137.006 6.14806   3
   8  -1   4 126.359 6.09550   1
   9  -1   4 231.847 9.95477   1
  10  -1   4 105.312 5.67064   1
  11  -1   4 4.26783 1.37885   1
  12   0  -4 5.59388 1.43527   1
 -12   0   4 4.59547 1.29816   2
  11   0  -4 1141.07 41.9851   1
 -11   0   4 1147.07 40.4902   2
  10   0  -4 465.739 17.9637   1
 -10   0   4 464.266 17.2447   2
   9   0  -4 342.379 13.5680   1
  -9   0   4 351.328 13.0951   2
   8   0  -4 2328.05 83.9592   1
  -8   0   4 2398.25 81.2982   2
   7   0  -4 1696.22 59.4555   1
  -7   0   4 1638.74 57.5286   2
   6   0  -4 12.0397 1.10591   1
  -6   0   4 9.90932 1.03162   2
   5   0  -4 246.415 9.34774   1
  -5   0   4 244.908 9.06597   2
   4   0  -4 37.8715 1.47371   3
   4   0  -4 32.0157 1.72986   1
  -4   0   4 31.1089 1.69911   2
   3   0  -4 12.0381 0.68983   3
   3   0  -4 10.4548 0.82045   1
  -3   0   4 10.1035 0.81381   2
   2   0  -4 415.584 15.0461   3
  -2   0   4 386.413 13.8254   2
  -2   0   4 384.451 14.2642   1
   1   0  -4 146.115 5.94852   3
  -1   0   4 147.059 5.40449   2
  -1   0   4 157.527 5.63460   1
   0   0   4 1891.70 67.9281   1
   0   0   4 1968.72 66.1714   2
  -1   0  -4 50.3011 2.47099   3
   1   0   4 51.7979 2.02351   2
   1   0   4 53.7317 2.26137   1
   2   0   4 5459.94 179.823   1
   2   0   4 4685.47 173.261   2
  -3   0  -4 1937.17 63.2892   2
   3   0   4 1776.78 65.6499   1
  -4   0  -4 613.815 25.6574   3
  -4   0  -4 715.422 23.1424   2
   4   0   4 676.590 24.2490   1
  -5   0  -4 1137.96 45.7188   3
  -5   0  -4 1254.27 41.4203   2
   5   0   4 1224.38 43.2204   1
  -6   0  -4 2.51704 0.52474   2
  -6   0  -4 2.06806 0.65340   3
   6   0   4 1.14048 0.57961   1
  -7   0  -4 0.37984 0.58356   3
   7   0   4 1.85205 0.71403   1
   8   0   4 94.5048 4.79911   1
   9   0   4 38.9701 2.98620   1
  10   0   4 39.1570 3.18143   1
  11   0   4 3.64252 1.45632   1
  12  -1  -4 506.956 20.1610   1
 -12   1   4 522.953 19.3038   2
  11  -1  -4 81.7077 4.63088   1
 -11   1   4 83.7092 4.40340   2
  10  -1  -4 196.920 8.41619   1
 -10   1   4 191.194 7.99464   2
   9  -1  -4 35.9191 2.47476   1
  -9   1   4 33.9351 2.37191   2
   8  -1  -4 478.942 17.9376   1
  -8   1   4 474.180 17.3294   2
   7  -1  -4 26.9719 1.82103   1
  -7   1   4 23.3096 1.72982   2
   6  -1  -4 176.639 7.07938   1
  -6   1   4 177.074 6.89104   2
   5  -1  -4 787.503 28.4955   3
   5  -1  -4 741.932 27.2735   1
  -5   1   4 743.977 26.4502   2
   4  -1  -4 3091.57 112.746   3
   4  -1  -4 2967.00 106.647   1
  -4   1   4 2951.28 102.429   2
   3  -1  -4 801.208 27.6545   1
   3  -1  -4 767.702 29.2302   3
  -3   1   4 758.199 26.8389   2
   2  -1  -4 222.396 8.48316   3
  -2   1   4 208.440 7.80300   2
  -2   1   4 218.128 7.95375   1
   1  -1  -4 157.893 6.12433   3
  -1   1   4 146.826 5.60844   1
  -1   1   4 144.484 5.52190   2
   0  -1  -4 23.8174 1.39986   3
   0   1   4 21.8833 1.18064   2
   0   1   4 28.0593 1.22659   1
  -1  -1  -4 22.8563 1.40352   3
   1   1   4 24.5637 1.20779   1
   1   1   4 23.3235 1.16131   2
   2   1   4 166.928 6.10312   2
   2   1   4 164.455 6.36097   1
  -3  -1  -4 1.41480 0.50826   3
   3   1   4 2.69095 0.50044   1
  -4  -1  -4 82.0133 3.24380   2
  -4  -1  -4 71.8268 3.66609   3
   4   1   4 82.6572 3.54386   1
  -5  -1  -4 1115.00 42.6964   3
  -5  -1  -4 1181.30 38.7899   2
   5   1   4 1073.60 40.2606   1
  -6  -1  -4 65.7877 3.00252   2
  -6  -1  -4 69.1195 3.46631   3
   6   1   4 64.0809 3.35804   1
  -7  -1  -4 384.541 15.0940   3
  -7  -1  -4 380.573 13.6663   2
   7   1   4 359.261 14.4240   1
   8   1   4 1033.54 37.7888   1
   9   1   4 1261.12 46.0078   1
  10   1   4 104.252 5.61339   1
  12  -2  -4 59.4323 3.97238   1
 -12   2   4 61.5571 3.73152   2
  11  -2  -4 260.386 11.0030   1
 -11   2   4 263.669 10.5319   2
  10  -2  -4 -0.6384 0.60580   1
 -10   2   4 -0.4513 0.61339   2
   9  -2  -4 462.342 17.5269   1
  -9   2   4 456.972 16.9274   2
   8  -2  -4 16.8096 1.64344   1
  -8   2   4 19.7447 1.64290   2
   7  -2  -4 626.624 22.8235   1
  -7   2   4 617.097 22.1458   2
   6  -2  -4 120.215 4.76139   3
   6  -2  -4 115.577 4.90345   1
  -6   2   4 111.876 4.83346   2
   5  -2  -4 2040.07 74.2416   3
   5  -2  -4 1923.65 70.1298   1
  -5   2   4 1985.82 68.0643   2
   4  -2  -4 4675.78 166.285   3
   4  -2  -4 4270.27 157.620   1
  -4   2   4 4341.13 152.017   2
   3  -2  -4 257.318 9.15907   1
   3  -2  -4 252.125 9.75461   3
  -3   2   4 235.186 9.04040   2
   2  -2  -4 3277.05 112.125   1
   2  -2  -4 3148.72 119.756   3
  -2   2   4 3098.47 108.118   2
   1  -2  -4 706.942 27.3664   3
  -1   2   4 733.430 25.4868   1
  -1   2   4 718.796 24.9396   2
   0  -2  -4 25.4147 1.53807   3
   0   2   4 25.1858 1.18010   1
   0   2   4 23.4906 1.31880   2
  -1  -2  -4 118.008 5.15183   3
   1   2   4 121.362 4.57323   1
   1   2   4 116.142 4.57066   2
   2   2   4 19.1036 1.20360   1
   2   2   4 27.4316 1.36365   2
  -3  -2  -4 130.037 5.57181   3
   3   2   4 126.857 5.04808   1
   3   2   4 123.970 4.91032   2
  -4  -2  -4 18.0726 1.48595   3
   4   2   4 18.7316 1.29879   1
  -5  -2  -4 2761.94 93.2118   2
  -5  -2  -4 2658.00 102.421   3
   5   2   4 2761.80 96.4264   1
  -6  -2  -4 929.467 31.1329   2
  -6  -2  -4 841.779 34.1530   3
   6   2   4 898.182 32.2983   1
  -7  -2  -4 105.008 4.49561   2
  -7  -2  -4 99.1980 4.88420   3
   7   2   4 97.6990 4.76235   1
   8   2   4 289.652 11.6892   1
   9   2   4 414.920 16.3410   1
  10   2   4 0.64003 0.91448   1
  12  -3  -4 41.0503 3.19367   1
 -12   3   4 39.6567 3.03044   2
  11  -3  -4 404.391 16.0132   1
 -11   3   4 402.405 15.3680   2
  10  -3  -4 54.9955 3.34587   1
 -10   3   4 50.6049 3.17413   2
   9  -3  -4 59.6724 3.40586   1
  -9   3   4 61.0886 3.34413   2
   8  -3  -4 138.667 5.89721   1
  -8   3   4 128.899 5.71769   2
   7  -3  -4 20.1713 1.66593   1
  -7   3   4 24.1613 1.76789   2
   6  -3  -4 166.158 6.75596   1
   6  -3  -4 171.490 6.90725   3
  -6   3   4 170.532 6.77287   2
   5  -3  -4 1087.78 39.6787   1
   5  -3  -4 1157.65 42.0962   3
  -5   3   4 1096.20 38.6584   2
   4  -3  -4 44.1172 2.23015   3
   4  -3  -4 44.1956 2.05479   1
  -4   3   4 42.8915 2.22500   2
   3  -3  -4 286.933 10.1701   1
   3  -3  -4 276.547 10.9973   3
  -3   3   4 268.455 10.1606   2
   2  -3  -4 512.198 20.1553   3
   2  -3  -4 541.938 18.6494   1
  -2   3   4 514.860 18.4410   2
   1  -3  -4 239.827 10.0047   3
  -1   3   4 264.681 8.99697   1
  -1   3   4 244.727 9.13914   2
   0  -3  -4 355.689 13.6107   3
   0   3   4 338.100 12.2709   1
   0   3   4 338.962 12.3247   2
  -1  -3  -4 1463.72 53.8192   3
   1   3   4 1345.56 48.8746   2
   1   3   4 1461.28 50.1718   1
  -2  -3  -4 1251.54 50.2213   3
   2   3   4 1401.52 46.9431   1
   2   3   4 1327.47 45.7133   2
  -3  -3  -4 108.207 4.96885   3
   3   3   4 110.664 4.39573   1
   3   3   4 106.426 4.43193   2
  -4  -3  -4 78.8209 3.87227   3
   4   3   4 75.6019 3.41059   2
   4   3   4 75.6518 3.38410   1
  -5  -3  -4 63.2630 3.45905   3
   5   3   4 67.1531 3.16068   1
  -6  -3  -4 62.1211 3.14948   2
  -6  -3  -4 63.6749 3.46828   3
   6   3   4 64.4258 3.24853   1
  -7  -3  -4 2.28183 0.80947   3
  -7  -3  -4 1.19535 0.67308   2
   7   3   4 3.03164 0.86841   1
   8   3   4 80.4643 4.24243   1
   9   3   4 204.111 8.88825   1
  12  -4  -4 812.247 30.3887   1
 -12   4   4 798.778 29.1957   2
  11  -4  -4 129.347 6.22163   1
 -11   4   4 123.613 5.89628   2
  10  -4  -4 4.24173 1.13340   1
 -10   4   4 4.95532 1.20827   2
   9  -4  -4 179.790 7.86965   1
  -9   4   4 194.246 7.80100   2
   8  -4  -4 -0.1662 0.46149   1
  -8   4   4 0.47966 0.63260   2
   7  -4  -4 -0.1434 0.37065   1
  -7   4   4 0.63387 0.66772   2
   6  -4  -4 13.0853 1.15955   1
   6  -4  -4 13.7838 1.21401   3
  -6   4   4 12.6635 1.38261   2
   5  -4  -4 118.445 4.97756   3
   5  -4  -4 110.721 4.55255   1
  -5   4   4 104.580 4.71596   2
   4  -4  -4 1.32218 0.36801   1
  -4   4   4 1.43253 0.53625   2
   3  -4  -4 46.9110 1.98554   1
   3  -4  -4 45.0722 2.47265   3
  -3   4   4 44.8278 2.35931   2
   2  -4  -4 5848.15 186.926   1
   2  -4  -4 5344.92 200.597   3
  -2   4   4 4730.13 181.324   2
   1  -4  -4 1160.17 43.9921   3
  -1   4   4 1157.87 40.0920   2
   0  -4  -4 421.777 16.3078   3
   0   4   4 401.358 14.7956   2
  -1  -4  -4 32.3049 2.09938   3
   1   4   4 30.4904 1.82241   2
   1   4   4 35.2117 1.44986   1
  -2  -4  -4 812.418 34.0690   3
   2   4   4 886.333 31.0571   2
   2   4   4 968.267 31.5954   1
  -3  -4  -4 61.5025 3.28058   3
   3   4   4 62.3853 2.68769   1
   3   4   4 58.1468 2.92177   2
  -4  -4  -4 96.2099 4.71027   3
   4   4   4 100.676 4.16364   1
   4   4   4 96.0261 4.26035   2
  -5  -4  -4 231.618 9.64298   3
   5   4   4 221.342 8.72684   2
  -6  -4  -4 155.226 6.78633   3
   6   4   4 139.949 6.13264   2
  -7  -4  -4 1.64857 0.80377   3
  12  -5  -4 121.603 6.19783   1
 -12   5   4 117.108 5.86484   2
  11  -5  -4 98.0929 5.12101   1
 -11   5   4 92.6487 4.92656   2
  10  -5  -4 39.5112 2.71864   1
 -10   5   4 32.1839 2.60545   2
   9  -5  -4 424.362 15.8727   1
  -9   5   4 400.532 15.4971   2
   8  -5  -4 226.651 9.11312   1
  -8   5   4 226.520 9.14118   2
   7  -5  -4 153.484 6.42530   3
   7  -5  -4 144.401 6.03502   1
  -7   5   4 135.526 6.16179   2
   6  -5  -4 534.052 20.4994   3
   6  -5  -4 524.250 19.1538   1
  -6   5   4 514.227 18.9967   2
   5  -5  -4 243.730 10.1494   3
   5  -5  -4 253.400 9.30638   1
  -5   5   4 241.991 9.49551   2
   4  -5  -4 48.3189 2.75298   3
  -4   5   4 52.3292 2.73512   2
   3  -5  -4 252.501 10.5006   3
  -3   5   4 260.688 9.72040   2
   2  -5  -4 23.1002 1.74267   3
  -2   5   4 26.2354 1.72141   2
   1  -5  -4 844.630 32.5213   3
  -1   5   4 848.125 29.6519   2
   0  -5  -4 30.7823 2.12646   3
   0   5   4 32.7099 1.95502   2
  -1  -5  -4 703.703 27.5924   3
   1   5   4 719.451 25.1167   2
  -2  -5  -4 712.555 27.1894   3
   2   5   4 683.531 24.7042   2
  -3  -5  -4 46.0566 2.83382   3
   3   5   4 47.2206 2.60761   2
  -4  -5  -4 534.750 21.0768   3
   4   5   4 527.999 19.2036   2
  -5  -5  -4 1612.87 59.4798   3
   5   5   4 1508.82 54.1490   2
  -6  -5  -4 68.3552 3.87756   3
   6   5   4 68.5552 3.58712   2
   7   5   4 40.9737 2.67985   2
 -11   6   4 8.91041 1.55989   2
 -10   6   4 81.4234 4.45073   2
  -9   6   4 1536.89 53.8065   2
  -8   6   4 869.763 31.1027   2
   7  -6  -4 0.45509 0.59162   3
  -7   6   4 0.06569 0.79557   2
   6  -6  -4 565.130 22.2178   3
  -6   6   4 566.325 20.5643   2
   5  -6  -4 986.807 38.2985   3
  -5   6   4 1009.52 35.1604   2
   4  -6  -4 489.310 19.3309   3
  -4   6   4 485.422 17.7455   2
   3  -6  -4 595.932 23.3369   3
   2  -6  -4 421.173 16.5560   3
  -2   6   4 404.491 15.1229   2
   1  -6  -4 34.1789 2.35177   3
  -1   6   4 33.6874 2.12441   2
   0  -6  -4 321.280 13.2532   3
   0   6   4 324.838 12.1078   2
  -1  -6  -4 209.940 9.03116   3
   1   6   4 206.453 8.20393   2
  -2  -6  -4 1340.60 49.3099   3
   2   6   4 1234.50 44.7873   2
  -3  -6  -4 96.2828 4.85041   3
   3   6   4 92.2990 4.46914   2
  -4  -6  -4 430.198 17.2986   3
   4   6   4 421.481 15.8097   2
  -5  -6  -4 510.335 20.4592   3
   5   6   4 509.189 18.7517   2
  -6  -6  -4 58.8476 3.65620   3
   6   6   4 65.0280 3.58896   2
   7   6   4 315.651 12.4058   2
   8   6   4 70.8139 4.12533   2
 -11   7   4 0.31868 0.95671   2
 -10   7   4 61.8888 3.82907   2
  -9   7   4 812.660 29.4194   2
  -8   7   4 381.243 14.6820   2
   7  -7  -4 103.709 5.24903   3
  -7   7   4 106.949 5.14698   2
   6  -7  -4 23.0689 2.05904   3
  -6   7   4 19.6003 1.99429   2
   5  -7  -4 707.540 27.7220   3
  -5   7   4 708.836 25.4860   2
   4  -7  -4 269.625 11.2443   3
  -4   7   4 257.688 10.2896   2
   3  -7  -4 13.9117 1.62557   3
  -3   7   4 14.9490 1.67633   2
   2  -7  -4 314.691 12.9548   3
  -2   7   4 307.900 11.8523   2
   1  -7  -4 4.83407 1.10946   3
  -1   7   4 3.56161 0.89837   2
   0  -7  -4 27.5613 2.33830   3
   0   7   4 29.6870 2.20344   2
  -1  -7  -4 9.06937 1.33337   3
  -2  -7  -4 6.80173 1.20525   3
   2   7   4 6.76330 1.12141   2
  -3  -7  -4 11.4038 1.56094   3
   3   7   4 11.4808 1.47831   2
  -4  -7  -4 34.5278 2.71178   3
   4   7   4 37.8260 2.66050   2
  -5  -7  -4 114.367 5.97045   3
   5   7   4 125.056 5.68740   2
  -6  -7  -4 19.7576 2.11561   3
   6   7   4 19.7430 2.13560   2
   7   7   4 442.107 16.8778   2
 -10   8   4 28.3301 2.74981   2
  -9   8   4 23.6181 2.49997   2
  -8   8   4 176.132 7.84570   2
   7  -8  -4 237.043 10.4007   3
  -7   8   4 234.578 9.75051   2
   6  -8  -4 87.4371 4.84964   3
  -6   8   4 90.6122 4.65826   2
   5  -8  -4 587.256 23.1501   3
  -5   8   4 569.862 21.2465   2
   4  -8  -4 107.043 5.55001   3
  -4   8   4 111.077 5.20392   2
   3  -8  -4 802.328 31.5144   3
  -3   8   4 804.104 28.7753   2
   2  -8  -4 97.2468 5.10600   3
  -2   8   4 97.7378 4.73532   2
   1  -8  -4 0.51494 0.71726   3
  -1   8   4 -0.4292 0.64785   2
   0  -8  -4 89.4564 4.78588   3
   0   8   4 86.2087 4.42653   2
  -1  -8  -4 31.3614 2.58152   3
   1   8   4 31.1201 2.43623   2
  -2  -8  -4 16.8380 2.00788   3
   2   8   4 23.4595 2.07554   2
  -3  -8  -4 24.4649 2.34371   3
   3   8   4 22.5913 2.12548   2
  -4  -8  -4 364.765 15.1968   3
   4   8   4 355.105 13.9395   2
  -5  -8  -4 2.31438 1.12978   3
   5   8   4 2.85667 1.04718   2
   6   8   4 0.41292 0.88595   2
  -9   9   4 22.2215 2.52784   2
  -8   9   4 0.47603 1.04287   2
   7  -9  -4 47.3070 3.40081   3
  -7   9   4 42.3861 3.27585   2
   6  -9  -4 56.0052 3.66683   3
  -6   9   4 51.2850 3.49104   2
   5  -9  -4 62.3773 3.96647   3
  -5   9   4 62.7775 3.80630   2
   4  -9  -4 74.2737 4.39760   3
  -4   9   4 75.5715 4.13010   2
   3  -9  -4 104.927 5.61945   3
  -3   9   4 105.147 5.18265   2
   2  -9  -4 7.63119 1.39035   3
  -2   9   4 7.41907 1.25103   2
   1  -9  -4 0.56939 0.84397   3
  -1   9   4 -0.1767 0.71065   2
   0  -9  -4 236.494 10.4979   3
   0   9   4 228.406 9.56788   2
  -1  -9  -4 306.078 13.4129   3
   1   9   4 316.767 12.3695   2
  -2  -9  -4 160.769 8.01742   3
   2   9   4 171.767 7.48209   2
  -3  -9  -4 202.264 9.43646   3
   3   9   4 202.086 8.74763   2
  -4  -9  -4 18.3528 2.42867   3
   4   9   4 19.7793 2.29431   2
  -5  -9  -4 8.24159 1.63445   3
   5   9   4 9.43070 1.66616   2
   7 -10  -4 162.175 8.01991   3
  -7  10   4 161.249 7.58752   2
   6 -10  -4 105.996 5.90711   3
  -6  10   4 107.170 5.59055   2
   5 -10  -4 22.4624 2.62307   3
  -5  10   4 20.9470 2.31402   2
   4 -10  -4 55.7929 3.89054   3
  -4  10   4 54.6998 3.57680   2
   3 -10  -4 308.371 13.5013   3
  -3  10   4 308.017 12.3536   2
   2 -10  -4 115.840 6.31763   3
  -2  10   4 115.901 5.74372   2
   1 -10  -4 61.1388 4.29025   3
  -1  10   4 66.0220 3.92824   2
   0 -10  -4 686.033 27.5204   3
   0  10   4 676.957 25.0660   2
  -1 -10  -4 346.906 15.2591   3
   1  10   4 362.088 14.1023   2
  -2 -10  -4 0.46355 1.02143   3
   2  10   4 -0.8925 1.06545   2
  -3 -10  -4 105.235 5.89302   3
   3  10   4 99.1721 5.77651   2
   4 -11  -4 73.0010 4.94296   3
   3 -11  -4 55.7100 4.06775   3
  -3  11   4 51.2335 3.68089   2
   2 -11  -4 82.7803 5.09492   3
  -2  11   4 74.6817 4.62714   2
   1 -11  -4 25.9020 3.15423   3
  -1  11   4 25.6471 2.83239   2
   2  13  -5 54.3330 3.68082   2
  -2 -13   5 55.4576 4.11466   3
   1  13  -5 794.515 29.8005   2
  -1 -13   5 859.295 33.1800   3
   0 -13   5 106.556 6.16365   3
   1 -13   5 4.56385 1.54519   3
   4  12  -5 79.7436 4.60872   2
   3  12  -5 0.98476 0.95616   2
  -3 -12   5 0.22385 0.78275   3
   2  12  -5 1.47779 1.05885   2
  -2 -12   5 4.42417 1.27416   3
   1  12  -5 30.0222 2.52629   2
  -1 -12   5 38.1675 3.13623   3
   0  12  -5 22.4101 2.19460   2
   0 -12   5 28.1047 2.72371   3
   1 -12   5 4.68846 1.41954   3
   2 -12   5 279.674 12.5906   3
   3 -12   5 0.28809 1.05644   3
   4 -12   5 4.82125 1.48616   3
   5 -12   5 380.549 16.6402   3
   6  11  -5 11.1526 1.86698   2
   5  11  -5 86.2897 4.80626   2
   4  11  -5 76.7598 4.33341   2
   3  11  -5 20.2269 2.00423   2
  -3 -11   5 19.2478 2.19376   3
   2  11  -5 13.2534 1.68026   2
  -2 -11   5 14.2101 1.91584   3
   1  11  -5 562.736 21.0618   2
  -1 -11   5 595.707 23.4156   3
   0  11  -5 15.2265 1.75546   2
   0 -11   5 18.5471 2.23879   3
   1 -11   5 9.06469 1.60410   3
   2 -11   5 994.662 39.0040   3
   3 -11   5 277.956 12.3385   3
   4 -11   5 161.833 8.04931   3
   5 -11   5 376.464 16.2362   3
  -6  11  -5 289.260 12.9213   3
  -7  11  -5 -0.5544 0.99791   3
  -7 -10   5 -0.0405 0.92899   2
  -6 -10   5 164.088 7.57528   2
   4  10  -5 30.0432 2.43307   2
   3  10  -5 11.0947 1.47051   2
  -3 -10   5 9.15425 1.41196   3
   2  10  -5 128.005 5.72521   2
  -2 -10   5 130.865 6.31479   3
   1  10  -5 494.499 18.1318   2
  -1 -10   5 498.190 20.0583   3
   0  10  -5 -0.2209 0.57703   2
   0 -10   5 1.19747 0.83855   3
  -1  10  -5 412.517 15.0529   2
   1 -10   5 407.745 16.9320   3
   2 -10   5 335.910 14.2299   3
   3 -10   5 72.0296 4.30514   3
   4 -10   5 265.589 11.7141   3
  -6  10  -5 87.7942 5.10197   3
  -7  10  -5 275.346 12.3035   3
  -8  10  -5 0.66540 0.97932   3
  -8  -9   5 176.367 8.07250   2
  -7  -9   5 31.4868 2.85717   2
  -6  -9   5 1.78253 0.99134   2
  -5  -9   5 415.438 15.7022   2
  -4  -9   5 170.966 7.44898   3
  -4  -9   5 162.066 7.09017   2
   3   9  -5 350.274 13.0097   2
  -3  -9   5 334.250 13.9919   3
   2   9  -5 464.941 16.9696   2
  -2  -9   5 464.918 18.6402   3
   1   9  -5 60.1958 3.06373   2
  -1  -9   5 60.9796 3.53073   3
   0   9  -5 34.1242 2.08142   2
   0  -9   5 35.4082 2.54679   3
  -1   9  -5 659.796 22.9469   2
   1  -9   5 636.639 25.5759   3
   2  -9   5 -0.2511 0.58080   3
   3  -9   5 168.339 7.78307   3
   4  -9   5 162.010 7.73448   3
   4  -9   5 168.266 6.93260   1
   5  -9   5 109.532 5.01528   1
  -6   9  -5 606.229 24.5925   3
   6  -9   5 616.269 22.7821   1
  -7   9  -5 193.482 8.99486   3
   7  -9   5 192.664 8.22179   1
  -8   9  -5 733.398 28.9416   3
   8  -9   5 712.652 27.0077   1
  -9   9  -5 104.640 5.96279   3
   9  -9   5 114.263 5.81299   1
  -9  -8   5 40.9519 3.19112   2
  -8  -8   5 122.630 5.99950   2
  -7  -8   5 1.28429 0.85980   2
  -6  -8   5 1245.25 43.8414   2
   5   8  -5 119.656 5.24208   1
  -5  -8   5 121.238 5.50805   2
   4   8  -5 270.959 10.2982   1
  -4  -8   5 266.680 10.9713   3
  -4  -8   5 263.640 10.3468   2
   3   8  -5 181.420 7.27074   1
  -3  -8   5 192.586 7.98014   3
  -3  -8   5 179.498 7.35572   2
  -2  -8   5 45.7710 2.81046   3
  -2  -8   5 49.4386 2.44405   1
   1   8  -5 521.167 19.0938   2
  -1  -8   5 550.451 21.1538   3
  -1  -8   5 537.429 19.5517   1
   0   8  -5 4.16468 0.72999   2
   0  -8   5 2.76133 0.80968   3
   0  -8   5 4.68026 0.70970   1
  -1   8  -5 241.930 8.76916   2
   1  -8   5 230.377 9.02510   1
   1  -8   5 230.515 9.97240   3
  -2   8  -5 415.446 14.5601   2
   2  -8   5 414.182 15.1607   1
   2  -8   5 389.161 16.3926   3
   3  -8   5 10.1299 1.41470   3
   3  -8   5 11.9978 1.21513   1
   4  -8   5 61.6742 3.16101   1
  -5   8  -5 292.386 12.3708   3
   5  -8   5 289.226 11.3719   1
  -6   8  -5 12.4564 1.69710   3
   6  -8   5 11.0135 1.43462   1
  -7   8  -5 27.8772 2.59190   3
   7  -8   5 34.2108 2.43956   1
  -8   8  -5 206.542 9.36815   3
   8  -8   5 197.597 8.71542   1
  -9   8  -5 -0.1121 0.81156   3
   9  -8   5 1.20520 0.91992   1
  10   7  -5 195.710 8.61098   1
 -10  -7   5 191.553 8.62230   2
   9   7  -5 194.339 8.37123   1
  -9  -7   5 191.068 8.42427   2
   8   7  -5 76.5050 4.11298   1
  -8  -7   5 83.5836 4.39900   2
   7   7  -5 39.1871 2.60305   1
  -7  -7   5 46.8593 2.89935   2
   6   7  -5 52.9242 2.86298   1
  -6  -7   5 49.3966 2.97464   2
   5   7  -5 142.645 5.93342   1
  -5  -7   5 139.209 5.98536   2
   4   7  -5 47.4694 2.51333   1
  -4  -7   5 49.4577 2.62637   3
  -4  -7   5 47.8295 2.64963   2
   3   7  -5 392.075 14.4669   1
  -3  -7   5 383.640 14.2060   2
  -3  -7   5 393.402 15.4069   3
  -2  -7   5 167.712 6.44318   2
  -2  -7   5 167.584 6.53456   1
  -2  -7   5 157.788 7.00746   3
   1   7  -5 2458.76 82.0950   2
  -1  -7   5 2370.95 84.6907   1
  -1  -7   5 2366.10 90.2004   3
   0   7  -5 1745.78 59.0021   2
   0  -7   5 1725.66 65.0350   3
   0  -7   5 1688.07 60.9457   1
  -1   7  -5 1502.78 50.7347   2
   1  -7   5 1473.46 52.5544   1
   1  -7   5 1457.48 56.0804   3
  -2   7  -5 75.8449 3.07702   2
   2  -7   5 69.6743 3.36597   1
   2  -7   5 71.5930 3.77070   3
   3  -7   5 119.679 5.02065   1
   3  -7   5 112.538 5.51404   3
  -4   7  -5 206.231 9.11678   3
   4  -7   5 214.537 8.42784   1
  -5   7  -5 1.19261 0.69995   3
   5  -7   5 0.84433 0.55538   1
  -6   7  -5 73.9739 4.05549   3
   6  -7   5 70.7899 3.73619   1
  -7   7  -5 38.3071 2.83006   3
   7  -7   5 35.9267 2.58525   1
  -8   7  -5 71.0706 4.21665   3
   8  -7   5 73.5292 4.09590   1
  -9   7  -5 3.02819 1.03131   3
   9  -7   5 3.89912 1.25414   1
  10  -7   5 90.4749 5.20310   1
  11   6  -5 90.0844 5.01844   1
  10   6  -5 60.2594 3.78914   1
 -10  -6   5 63.6889 3.94620   2
   9   6  -5 576.733 22.1115   1
  -9  -6   5 595.871 21.6871   2
   8   6  -5 11.6102 1.49017   1
  -8  -6   5 11.7467 1.52971   2
   7   6  -5 40.3332 2.54690   1
  -7  -6   5 40.7748 2.63323   2
   6   6  -5 436.885 16.2618   1
  -6  -6   5 427.452 15.9065   2
   5   6  -5 125.682 5.52547   1
  -5  -6   5 138.524 5.59126   2
   4   6  -5 212.399 8.21471   1
  -4  -6   5 207.324 8.47371   3
  -4  -6   5 209.993 8.07452   2
  -3  -6   5 1837.77 61.9735   2
  -3  -6   5 1769.34 67.7970   3
  -2  -6   5 1071.14 41.4065   3
  -2  -6   5 1096.76 38.9865   1
  -2  -6   5 1110.38 37.7780   2
  -1  -6   5 23.6846 1.36620   2
  -1  -6   5 23.1162 1.46489   1
  -1  -6   5 24.9133 1.64643   3
   0   6  -5 361.599 12.8855   2
   0  -6   5 364.130 14.4129   3
   0  -6   5 364.681 13.4374   1
  -1   6  -5 1679.26 55.8025   2
   1  -6   5 1536.08 57.8495   1
   1  -6   5 1680.49 61.6920   3
  -2   6  -5 92.1219 3.49930   2
   2  -6   5 90.9338 3.92937   1
   2  -6   5 84.5303 4.27491   3
  -3   6  -5 89.4413 4.47947   3
   3  -6   5 94.2128 4.09848   1
  -4   6  -5 744.151 28.4991   3
   4  -6   5 720.727 26.6707   1
   5  -6   5 1.42878 0.59437   1
  -6   6  -5 7.17195 1.15256   3
   6  -6   5 6.33799 1.04466   1
  -7   6  -5 637.747 26.0265   3
   7  -6   5 683.322 24.7104   1
  -8   6  -5 49.5796 3.20524   3
   8  -6   5 44.0830 3.13114   1
  -9   6  -5 0.81620 0.78656   3
   9  -6   5 1.22562 0.96158   1
  10  -6   5 241.608 10.6057   1
  11   5  -5 7.67887 1.55548   1
 -11  -5   5 8.50857 1.60581   2
  10   5  -5 320.401 13.1051   1
 -10  -5   5 327.373 12.8319   2
   9   5  -5 128.246 6.11131   1
  -9  -5   5 135.973 6.08997   2
   8   5  -5 227.539 9.49330   1
  -8  -5   5 238.228 9.35386   2
   7   5  -5 686.415 25.3138   1
  -7  -5   5 688.062 24.5893   2
   6   5  -5 674.936 24.2449   1
  -6  -5   5 646.845 23.5166   2
   5   5  -5 72.4601 3.58933   1
  -5  -5   5 85.2201 3.65469   2
   4   5  -5 89.8382 3.94319   1
  -4  -5   5 91.2145 3.89576   2
  -4  -5   5 90.3781 3.88138   3
  -3  -5   5 400.275 15.9043   3
  -3  -5   5 424.834 14.7179   2
  -2  -5   5 183.356 7.55695   3
  -2  -5   5 182.939 6.91296   2
  -2  -5   5 193.130 7.23829   1
  -1  -5   5 9.45294 0.88151   1
  -1  -5   5 9.77809 0.79130   2
  -1  -5   5 10.7711 0.96592   3
   0  -5   5 3.60517 0.57265   1
   0  -5   5 4.22565 0.62810   3
  -1   5  -5 3364.36 107.534   2
   1  -5   5 2943.35 111.075   1
  -2   5  -5 274.892 9.41800   2
  -2   5  -5 260.071 10.9211   3
   2  -5   5 271.120 10.2080   1
  -3   5  -5 218.829 8.99547   3
   3  -5   5 209.220 8.35569   1
  -4   5  -5 7399.50 272.518   3
   4  -5   5 7177.85 258.774   1
  -5   5  -5 284.015 11.5572   3
   5  -5   5 270.941 10.8532   1
  -6   5  -5 17.9296 1.74599   3
   6  -5   5 20.5721 1.76447   1
  -7   5  -5 522.936 20.9898   3
   7  -5   5 529.328 19.9466   1
  -8   5  -5 416.249 17.1942   3
   8  -5   5 425.921 16.4767   1
   9  -5   5 2.09123 1.01857   1
  10  -5   5 9.80672 1.74929   1
  11   4  -5 12.7054 1.86994   1
 -11  -4   5 8.51263 1.52347   2
  10   4  -5 799.349 30.3156   1
 -10  -4   5 832.120 29.4240   2
   9   4  -5 947.849 34.6627   1
  -9  -4   5 942.282 33.5327   2
   8   4  -5 7.09113 1.15663   1
  -8  -4   5 9.63555 1.32982   2
   7   4  -5 566.303 21.2310   1
  -7  -4   5 577.509 20.5848   2
   6   4  -5 1437.11 51.5680   1
  -6  -4   5 1449.21 49.9464   2
   5   4  -5 12.5147 1.13391   1
  -5  -4   5 11.1020 1.07411   2
   4   4  -5 1.21840 0.44283   1
  -4  -4   5 0.78192 0.39299   2
  -3  -4   5 626.546 22.6929   1
  -3  -4   5 637.321 21.9119   2
  -3  -4   5 620.113 23.8038   3
  -2  -4   5 659.991 25.2041   3
  -2  -4   5 662.570 22.9927   2
  -2  -4   5 668.198 23.8899   1
  -1  -4   5 1479.20 52.7054   1
  -1  -4   5 1496.30 50.7941   2
   0   4  -5 230.242 9.19328   3
   0  -4   5 226.364 8.04456   2
  -1   4  -5 1437.55 56.6034   3
  -1   4  -5 1612.86 51.1102   2
   1  -4   5 1452.36 53.2347   1
  -2   4  -5 123.514 5.28541   3
  -2   4  -5 124.906 4.20221   2
   2  -4   5 110.532 4.87708   1
  -3   4  -5 1661.95 61.2935   3
   3  -4   5 1581.03 57.6007   1
  -4   4  -5 1811.31 68.5441   3
   4  -4   5 1817.71 64.5252   1
  -5   4  -5 619.045 24.4266   3
   5  -4   5 633.961 23.0955   1
  -6   4  -5 9.54680 1.29769   3
   6  -4   5 10.1354 1.28407   1
  -7   4  -5 144.115 6.75692   3
   7  -4   5 147.623 6.54551   1
  -8   4  -5 0.22932 0.87800   3
   8  -4   5 4.49772 1.08467   1
   9  -4   5 22.9507 2.37993   1
  10  -4   5 61.0047 4.08759   1
  12   3  -5 -1.1567 0.88159   1
 -12  -3   5 -0.7049 0.78112   2
  11   3  -5 23.2236 2.43840   1
 -11  -3   5 23.9081 2.35395   2
  10   3  -5 11.6560 1.66927   1
 -10  -3   5 18.7323 1.96143   2
   9   3  -5 357.990 14.0181   1
  -9  -3   5 355.851 13.5451   2
   8   3  -5 3.24687 0.82593   1
  -8  -3   5 2.91861 0.79489   2
   7   3  -5 7.30998 1.07198   1
  -7  -3   5 7.18155 1.01035   2
  -6  -3   5 4.87517 0.80978   2
   5   3  -5 126.105 5.29321   1
  -5  -3   5 127.013 5.11801   2
   4   3  -5 282.058 11.1968   1
   4   3  -5 327.366 11.4547   3
  -4  -3   5 286.812 10.8295   2
   3   3  -5 9999.99 352.496   3
  -3  -3   5 8755.38 321.826   2
  -3  -3   5 9469.45 333.563   1
   2   3  -5 1692.24 62.5994   3
  -2  -3   5 1691.40 59.1092   1
  -2  -3   5 1629.16 57.0340   2
   1   3  -5 1615.40 62.0493   3
  -1  -3   5 1718.37 58.5111   1
  -1  -3   5 1629.38 56.6996   2
   0   3  -5 407.712 15.9014   3
   0  -3   5 429.380 14.1207   2
   0  -3   5 394.712 14.9523   1
  -1   3  -5 480.518 18.6465   3
   1  -3   5 483.928 17.5256   1
  -2   3  -5 658.384 25.0029   3
   2  -3   5 640.566 23.4819   1
  -3   3  -5 121.063 5.40861   3
   3  -3   5 123.942 5.09782   1
  -4   3  -5 15.5218 1.40430   3
   4  -3   5 17.5773 1.38333   1
  -5   3  -5 215.341 8.86912   3
   5  -3   5 201.607 8.35572   1
  -6   3  -5 280.633 11.6517   3
   6  -3   5 280.987 11.1139   1
  -7   3  -5 807.023 32.1808   3
   7  -3   5 851.878 30.5615   1
  -8   3  -5 2353.42 88.8680   3
   8  -3   5 2345.93 83.9635   1
   9  -3   5 736.705 27.7262   1
  10  -3   5 439.868 17.5638   1
  12   2  -5 56.3099 3.92251   1
 -12  -2   5 60.1471 3.70679   2
  11   2  -5 2.68547 1.11617   1
 -11  -2   5 3.50631 1.13114   2
  10   2  -5 238.220 9.98493   1
 -10  -2   5 234.146 9.54915   2
   9   2  -5 1.54197 0.84222   1
  -9  -2   5 1.07582 0.71938   2
   8   2  -5 304.970 11.7240   1
  -8  -2   5 289.445 11.2936   2
   7   2  -5 71.7920 3.62983   1
  -7  -2   5 75.7902 3.51691   2
   6   2  -5 390.160 14.4833   1
  -6  -2   5 380.327 13.9956   2
   5   2  -5 20.4129 1.47528   1
  -5  -2   5 20.0301 1.41100   2
   4   2  -5 372.190 13.8909   1
  -4  -2   5 380.762 13.4366   2
   3   2  -5 363.415 13.2822   3
  -3  -2   5 337.227 12.8039   1
  -3  -2   5 340.864 12.3497   2
   2   2  -5 1908.74 66.4135   3
  -2  -2   5 1601.86 62.5985   1
  -2  -2   5 1809.60 60.9095   2
   1   2  -5 21.1357 1.28627   3
  -1  -2   5 22.2067 1.07534   2
  -1  -2   5 23.2040 1.29649   1
   0   2  -5 833.780 32.0911   3
   0  -2   5 870.891 28.8702   2
   0  -2   5 836.088 30.1884   1
  -1   2  -5 582.146 23.1647   3
   1  -2   5 627.973 21.7971   1
  -2   2  -5 98.2914 4.51391   3
   2  -2   5 105.769 4.25878   1
  -3   2  -5 278.192 11.2821   3
   3  -2   5 283.142 10.6381   1
  -4   2  -5 379.536 14.6083   3
  -4   2  -5 385.160 12.6543   2
   4  -2   5 330.794 13.6518   1
  -5   2  -5 30.6906 2.13407   3
  -6   2  -5 759.608 29.8504   3
   6  -2   5 781.541 28.2609   1
  -7   2  -5 220.429 9.43012   3
   7  -2   5 216.957 9.07088   1
  -8   2  -5 92.2605 5.05741   3
   8  -2   5 104.897 5.11548   1
   9  -2   5 75.8934 4.37718   1
  10  -2   5 135.828 6.77886   1
  12   1  -5 2.49472 1.18749   1
 -12  -1   5 3.18477 1.19738   2
  11   1  -5 3.38774 1.18940   1
 -11  -1   5 4.92121 1.19763   2
  10   1  -5 2311.43 83.3434   1
 -10  -1   5 2352.54 80.6278   2
   9   1  -5 6.18807 1.19994   1
  -9  -1   5 6.03074 1.12652   2
   8   1  -5 29.8181 2.10682   1
  -8  -1   5 26.6834 1.98122   2
   7   1  -5 167.334 6.83979   1
  -7  -1   5 160.466 6.59384   2
   6   1  -5 11.2913 1.12646   1
  -6  -1   5 10.8343 1.08414   2
  -5  -1   5 117.989 4.76911   2
   4   1  -5 36.5118 1.46462   3
   4   1  -5 32.9735 1.79974   1
  -4  -1   5 31.0845 1.71681   2
   3   1  -5 216.962 7.98213   3
  -3  -1   5 202.456 7.81947   1
  -3  -1   5 197.992 7.51973   2
   2   1  -5 164.065 6.64753   3
  -2  -1   5 172.836 6.14225   2
   1   1  -5 2209.10 83.1467   3
  -1  -1   5 2253.14 75.5808   2
  -1  -1   5 2139.51 77.5124   1
   0   1  -5 4284.07 155.210   3
   0  -1   5 4411.35 140.724   2
   0  -1   5 3654.37 145.675   1
  -1   1  -5 2140.90 85.1867   3
   1  -1   5 2249.62 77.5370   2
   1  -1   5 2429.79 80.4413   1
  -2   1  -5 1641.73 60.7841   3
   2  -1   5 1473.77 57.0698   1
   2  -1   5 1722.36 54.8428   2
  -3   1  -5 881.838 38.2913   3
   3  -1   5 1083.00 34.4669   2
   3  -1   5 1061.61 36.1559   1
  -4   1  -5 10.7667 0.68141   2
  -4   1  -5 8.22347 1.06801   3
  -5   1  -5 477.672 17.5293   3
   5  -1   5 403.079 16.3915   1
  -6   1  -5 147.959 6.75155   3
   6  -1   5 154.430 6.51503   1
  -7   1  -5 233.121 9.94846   3
   7  -1   5 233.215 9.56376   1
  -8   1  -5 120.858 5.80780   3
   8  -1   5 118.944 5.76255   1
   9  -1   5 101.245 5.30389   1
  10  -1   5 526.985 20.5874   1
  12   0  -5 46.5737 3.47864   1
 -12   0   5 45.1756 3.25529   2
  11   0  -5 199.650 8.84047   1
 -11   0   5 198.938 8.43875   2
  10   0  -5 235.979 9.91369   1
 -10   0   5 235.510 9.54310   2
   9   0  -5 751.074 27.7994   1
  -9   0   5 753.557 26.9017   2
   8   0  -5 424.422 16.1788   1
  -8   0   5 428.448 15.6903   2
   7   0  -5 10.9607 1.25385   1
  -7   0   5 10.7673 1.19255   2
  -6   0   5 213.704 8.17251   2
   5   0  -5 13.1917 1.11979   1
   5   0  -5 15.0177 0.74997   3
  -5   0   5 11.4398 1.07803   2
   4   0  -5 1398.97 51.0753   3
   4   0  -5 1333.35 48.4491   1
  -4   0   5 1362.22 46.9309   2
   3   0  -5 4.59738 0.48033   3
  -3   0   5 3.77381 0.52509   2
   2   0  -5 370.604 14.1495   3
  -2   0   5 379.576 12.9865   2
  -2   0   5 356.407 13.3896   1
   1   0  -5 5864.96 213.110   3
  -1   0   5 5459.73 193.238   2
  -1   0   5 5647.23 199.611   1
   0   0  -5 1150.42 44.6816   3
   0   0   5 1204.22 41.9890   1
   0   0   5 1203.10 40.5041   2
  -1   0  -5 91.3777 3.99964   3
   1   0   5 90.2718 3.34285   2
   1   0   5 86.6423 3.63418   1
  -2   0  -5 222.032 9.36401   3
   2   0   5 237.209 8.19770   2
   2   0   5 234.153 8.73854   1
   3   0   5 210.773 7.30900   2
   3   0   5 194.897 7.83470   1
   4   0   5 143.193 5.88413   1
  -5   0  -5 52.1873 2.87706   3
  -5   0  -5 53.3601 2.30955   2
   5   0   5 48.4155 2.70984   1
  -6   0  -5 959.748 37.6570   3
   6   0   5 1005.63 35.6477   1
  -7   0  -5 130.615 6.20586   3
   7   0   5 141.789 6.15403   1
  -8   0  -5 224.391 9.59856   3
   8   0   5 220.122 9.36773   1
   9   0   5 161.505 7.44252   1
  10   0   5 378.858 15.3962   1
  12  -1  -5 114.161 5.95582   1
 -12   1   5 112.640 5.58521   2
  11  -1  -5 275.903 11.4904   1
 -11   1   5 274.956 11.0472   2
  10  -1  -5 64.9435 3.80933   1
 -10   1   5 67.0403 3.71396   2
   9  -1  -5 116.768 5.38245   1
  -9   1   5 110.677 5.16503   2
   8  -1  -5 447.812 16.9189   1
  -8   1   5 447.748 16.4385   2
   7  -1  -5 5.68933 0.90771   1
  -7   1   5 10.1796 1.22141   2
   6  -1  -5 1121.25 39.8436   1
  -6   1   5 1101.84 38.6315   2
   5  -1  -5 1054.18 39.0382   1
   5  -1  -5 1157.00 41.0643   3
  -5   1   5 1069.20 37.9062   2
   4  -1  -5 17.4249 1.19235   1
   4  -1  -5 18.3686 1.09784   3
  -4   1   5 18.8047 1.29107   2
   3  -1  -5 316.659 12.0651   3
   3  -1  -5 305.373 11.4111   1
   2  -1  -5 315.363 12.3648   3
  -2   1   5 325.313 11.6062   1
  -2   1   5 314.133 11.3336   2
   1  -1  -5 1.87592 0.46831   3
  -1   1   5 1.43016 0.35288   1
  -1   1   5 1.24395 0.36918   2
   0  -1  -5 1324.50 51.9463   3
   0   1   5 1385.74 47.1935   2
   0   1   5 1427.38 48.7324   1
  -1  -1  -5 388.381 15.3583   3
   1   1   5 399.358 13.8107   2
   1   1   5 392.935 14.2744   1
  -2  -1  -5 44.8168 2.44538   3
   2   1   5 49.5105 2.07748   2
   2   1   5 45.4657 2.17600   1
  -3  -1  -5 2931.70 108.574   3
   3   1   5 2891.40 98.6171   2
   3   1   5 2861.39 102.050   1
  -4  -1  -5 14.3291 1.34148   3
   4   1   5 14.1625 1.19785   1
   4   1   5 13.9229 1.07006   2
  -5  -1  -5 2.19725 0.52154   2
  -5  -1  -5 0.90898 0.55237   3
   5   1   5 1.25974 0.56697   1
  -6  -1  -5 2809.64 105.757   3
   6   1   5 2812.64 99.5971   1
  -7  -1  -5 239.504 10.0369   3
   7   1   5 230.399 9.56018   1
   8   1   5 56.3298 3.44061   1
   9   1   5 74.4357 4.30857   1
  10   1   5 8.41307 1.68367   1
  12  -2  -5 64.8143 4.11456   1
 -12   2   5 60.6435 3.77999   2
  11  -2  -5 340.421 13.7250   1
 -11   2   5 336.436 13.2342   2
  10  -2  -5 77.1153 4.22518   1
 -10   2   5 78.7828 4.13668   2
   9  -2  -5 31.5819 2.36683   1
  -9   2   5 30.2625 2.28634   2
   8  -2  -5 1447.49 51.0702   1
  -8   2   5 1397.81 49.4615   2
   7  -2  -5 2553.20 89.5468   1
  -7   2   5 2501.85 86.7819   2
   6  -2  -5 21.8788 1.53699   1
   6  -2  -5 19.7968 1.26014   3
  -6   2   5 26.6477 1.71464   2
   5  -2  -5 347.331 13.0338   1
   5  -2  -5 364.655 13.6071   3
  -5   2   5 341.347 12.8192   2
   4  -2  -5 1058.33 38.9270   3
   4  -2  -5 1029.94 36.7167   1
  -4   2   5 1004.69 35.7355   2
   3  -2  -5 1454.28 50.3538   1
   3  -2  -5 1418.99 53.5687   3
  -3   2   5 1397.65 48.9616   2
   2  -2  -5 93.9205 4.16379   3
  -2   2   5 99.3971 3.74018   1
  -2   2   5 90.2008 3.81881   2
   1  -2  -5 13.5665 1.08517   3
  -1   2   5 13.2359 0.96759   2
  -1   2   5 14.3722 0.82234   1
   0  -2  -5 175.673 7.20963   3
   0   2   5 171.911 6.43918   1
   0   2   5 171.415 6.43979   2
   1   2   5 523.325 18.6313   2
   1   2   5 540.594 19.1061   1
  -2  -2  -5 242.814 9.83090   3
   2   2   5 238.829 8.76125   2
   2   2   5 237.115 8.94693   1
  -3  -2  -5 3393.41 134.795   3
   3   2   5 3598.84 122.612   2
   3   2   5 3804.98 126.948   1
  -4  -2  -5 -0.4187 0.50434   3
   4   2   5 -0.2571 0.41204   2
   4   2   5 0.04267 0.35161   1
  -5  -2  -5 226.874 9.66506   3
   5   2   5 231.724 8.60882   2
   5   2   5 228.823 8.98742   1
  -6  -2  -5 46.6284 2.87459   3
   6   2   5 43.0062 2.57286   1
  -7  -2  -5 200.442 8.69457   3
   7   2   5 193.659 8.19804   1
   8   2   5 3.68909 1.01679   1
   9   2   5 43.1737 3.10023   1
  10   2   5 45.2473 3.36738   1
  12  -3  -5 14.0782 1.99127   1
 -12   3   5 14.3273 1.95537   2
  11  -3  -5 30.9109 2.59856   1
 -11   3   5 29.0244 2.54382   2
  10  -3  -5 298.390 12.1595   1
 -10   3   5 304.274 11.8527   2
   9  -3  -5 58.3418 3.35887   1
  -9   3   5 60.5558 3.35764   2
   8  -3  -5 -0.4179 0.47301   1
  -8   3   5 0.80509 0.65886   2
   7  -3  -5 1348.92 47.6468   1
  -7   3   5 1312.36 46.3140   2
   6  -3  -5 14.9414 1.23984   1
   6  -3  -5 15.3188 1.14670   3
  -6   3   5 11.5713 1.33583   2
   5  -3  -5 83.8184 3.65401   3
   5  -3  -5 77.6993 3.46630   1
  -5   3   5 77.0010 3.61394   2
   4  -3  -5 740.874 26.6701   1
   4  -3  -5 757.373 28.4635   3
  -4   3   5 736.735 26.1682   2
   3  -3  -5 10.4221 0.76846   1
   3  -3  -5 9.61662 0.95672   3
  -3   3   5 7.00874 0.94223   2
   2  -3  -5 94.8193 3.48880   1
   2  -3  -5 84.7344 4.03251   3
  -2   3   5 85.8903 3.73839   2
   1  -3  -5 1752.69 65.8268   3
  -1   3   5 1780.79 61.4505   1
  -1   3   5 1705.17 59.9130   2
   0  -3  -5 55.1386 3.01473   3
   0   3   5 63.9572 2.43472   1
   0   3   5 59.5820 2.73924   2
  -1  -3  -5 90.1611 4.12312   3
   1   3   5 78.9610 3.56439   2
   1   3   5 86.0371 3.39253   1
  -2  -3  -5 12.9975 1.36652   3
   2   3   5 14.6724 0.97393   1
   2   3   5 13.9602 1.12025   2
  -3  -3  -5 36.6181 2.42200   3
   3   3   5 39.0559 1.96736   1
   3   3   5 37.8023 2.06580   2
  -4  -3  -5 308.361 12.9727   3
   4   3   5 313.730 11.6726   2
   4   3   5 331.687 11.9627   1
  -5  -3  -5 71.2097 3.73506   3
   5   3   5 66.8195 3.24333   1
   5   3   5 64.3855 3.16037   2
  -6  -3  -5 192.888 8.79081   3
   6   3   5 208.344 8.20226   1
   6   3   5 204.754 7.91644   2
  -7  -3  -5 143.154 6.94305   3
   7   3   5 158.857 6.60933   1
  12  -4  -5 22.5402 2.51871   1
 -12   4   5 22.4612 2.44152   2
  11  -4  -5 252.397 10.6338   1
 -11   4   5 249.237 10.3219   2
  10  -4  -5 45.1264 2.93978   1
 -10   4   5 39.8038 2.94322   2
   9  -4  -5 184.294 7.86813   1
  -9   4   5 187.424 7.83753   2
   8  -4  -5 17.9341 1.61262   1
  -8   4   5 18.9878 1.81619   2
   7  -4  -5 125.979 5.31418   1
  -7   4   5 119.431 5.41759   2
   6  -4  -5 610.321 23.3333   3
   6  -4  -5 595.901 21.9941   1
  -6   4   5 606.271 21.7109   2
   5  -4  -5 197.858 8.13158   3
   5  -4  -5 195.004 7.50328   1
  -5   4   5 191.928 7.68774   2
   4  -4  -5 1996.49 76.4559   3
   4  -4  -5 2108.91 71.6971   1
  -4   4   5 1991.19 69.8938   2
   3  -4  -5 19.5306 1.50512   3
  -3   4   5 20.5242 1.51674   2
   2  -4  -5 434.856 17.7041   3
   2  -4  -5 479.401 16.1675   1
  -2   4   5 438.868 16.2058   2
   1  -4  -5 37.2871 2.27112   3
  -1   4   5 36.6975 2.05813   2
   0  -4  -5 1428.84 54.7226   3
   0   4   5 1457.25 49.8093   2
  -1  -4  -5 396.328 15.9019   3
   1   4   5 398.077 14.3680   2
  -2  -4  -5 1.59284 0.69239   3
   2   4   5 2.12174 0.58164   2
  -3  -4  -5 -0.1593 0.53059   3
   3   4   5 0.86338 0.50073   2
  -4  -4  -5 0.30064 0.58622   3
   4   4   5 2.11861 0.62826   2
  -5  -4  -5 5.73000 1.12637   3
   5   4   5 8.90420 1.13707   2
  -6  -4  -5 8.38983 1.37006   3
   6   4   5 11.1783 1.32495   2
  -7  -4  -5 127.802 6.24066   3
 -11   5   5 470.226 17.8700   2
 -10   5   5 16.5434 2.09495   2
  -9   5   5 12.6528 1.68104   2
  -8   5   5 322.324 12.4932   2
  -7   5   5 16.1804 1.71854   2
   6  -5  -5 67.5508 3.40724   3
  -6   5   5 61.2685 3.36283   2
   5  -5  -5 1.37899 0.58710   3
  -5   5   5 2.62170 0.80805   2
   4  -5  -5 11.0079 1.26409   3
  -4   5   5 8.19342 1.12630   2
   3  -5  -5 670.704 25.7236   3
  -3   5   5 653.177 23.5204   2
   2  -5  -5 582.395 24.9195   3
  -2   5   5 705.133 22.9652   2
   1  -5  -5 558.282 22.3063   3
  -1   5   5 580.631 20.3915   2
   0  -5  -5 917.306 34.7969   3
   0   5   5 887.790 31.6358   2
  -1  -5  -5 1913.75 72.6191   3
   1   5   5 1922.02 66.0568   2
  -2  -5  -5 1071.14 41.3674   3
   2   5   5 1081.18 37.5771   2
  -3  -5  -5 567.943 22.2499   3
   3   5   5 552.362 20.1517   2
  -4  -5  -5 423.202 17.6663   3
   4   5   5 450.589 16.1065   2
  -5  -5  -5 154.632 7.37869   3
   5   5   5 163.207 6.70661   2
  -6  -5  -5 32.5987 2.64905   3
   6   5   5 33.7694 2.34734   2
 -11   6   5 723.694 26.5773   2
 -10   6   5 10.1911 1.66014   2
  -9   6   5 578.044 21.4262   2
  -8   6   5 421.983 16.0268   2
  -7   6   5 1.63123 0.89190   2
   6  -6  -5 129.601 5.93334   3
  -6   6   5 123.812 5.69505   2
   5  -6  -5 8.42435 1.22261   3
  -5   6   5 9.07324 1.33834   2
   4  -6  -5 39.4632 2.55930   3
  -4   6   5 41.1312 2.54969   2
   3  -6  -5 158.161 7.09879   3
   2  -6  -5 1563.39 59.3408   3
  -2   6   5 1556.93 54.1080   2
   1  -6  -5 73.2778 3.96144   3
  -1   6   5 73.3001 3.66499   2
   0  -6  -5 423.782 17.0320   3
   0   6   5 417.502 15.4983   2
  -1  -6  -5 1504.42 56.2633   3
   1   6   5 1441.14 51.1452   2
  -2  -6  -5 1250.99 47.3436   3
   2   6   5 1213.28 43.0289   2
  -3  -6  -5 49.5616 3.23328   3
   3   6   5 48.2081 2.84844   2
  -4  -6  -5 18.8894 2.02479   3
   4   6   5 16.9322 1.79165   2
  -5  -6  -5 66.2714 3.96273   3
   5   6   5 63.6907 3.56471   2
  -6  -6  -5 213.683 9.71966   3
   6   6   5 218.894 8.95100   2
   7   6   5 34.0642 2.84937   2
 -10   7   5 53.8297 3.67182   2
  -9   7   5 292.265 11.8632   2
  -8   7   5 3.19513 1.15555   2
   7  -7  -5 57.6925 3.50202   3
  -7   7   5 57.5790 3.55580   2
   6  -7  -5 311.533 12.9281   3
  -6   7   5 303.958 12.0776   2
   5  -7  -5 60.8599 3.59975   3
  -5   7   5 56.9089 3.46632   2
   4  -7  -5 679.638 26.2587   3
  -4   7   5 651.453 24.0419   2
   3  -7  -5 52.3326 3.29468   3
  -3   7   5 54.5323 3.13792   2
   2  -7  -5 31.3603 2.42118   3
  -2   7   5 28.9059 2.19482   2
   1  -7  -5 10.6212 1.46134   3
  -1   7   5 9.88908 1.31537   2
   0  -7  -5 1.19254 0.76991   3
   0   7   5 1.44814 0.73878   2
  -1  -7  -5 82.7588 4.60946   3
   1   7   5 87.7720 4.28532   2
  -2  -7  -5 28.4349 2.42108   3
   2   7   5 27.0880 2.17853   2
  -3  -7  -5 1.47909 0.86510   3
   3   7   5 0.59521 0.68370   2
  -4  -7  -5 79.8497 4.62218   3
   4   7   5 81.6726 4.20883   2
  -5  -7  -5 493.871 20.2010   3
   5   7   5 494.486 18.4757   2
  -6  -7  -5 38.6429 3.10291   3
   6   7   5 32.9642 2.79806   2
   7   7   5 32.6635 2.94089   2
  -9   8   5 188.420 8.45810   2
  -8   8   5 11.8390 1.89097   2
   7  -8  -5 113.417 5.87365   3
  -7   8   5 116.148 5.71698   2
   6  -8  -5 807.161 31.5968   3
  -6   8   5 799.843 29.1014   2
   5  -8  -5 767.003 30.4877   3
  -5   8   5 783.177 28.0544   2
   4  -8  -5 0.11238 0.73665   3
  -4   8   5 0.37847 0.78309   2
   3  -8  -5 3.31587 0.99672   3
  -3   8   5 4.72207 1.08576   2
   2  -8  -5 130.901 6.53009   3
  -2   8   5 136.264 6.06460   2
   1  -8  -5 116.749 6.01787   3
  -1   8   5 122.850 5.60157   2
   0  -8  -5 72.8092 4.31385   3
   0   8   5 72.4174 3.91743   2
  -1  -8  -5 -0.5109 0.66996   3
   1   8   5 -0.1040 0.71483   2
  -2  -8  -5 213.565 9.71141   3
   2   8   5 209.637 8.82347   2
  -3  -8  -5 122.144 6.25095   3
   3   8   5 114.540 5.64505   2
  -4  -8  -5 33.1139 2.87117   3
   4   8   5 29.7387 2.53418   2
  -5  -8  -5 482.022 19.5012   3
   5   8   5 456.847 17.7381   2
  -6  -8  -5 12.7637 2.07486   3
   6   8   5 7.33596 1.84909   2
  -8   9   5 69.1128 4.40139   2
   7  -9  -5 1.42847 1.05725   3
  -7   9   5 0.72643 1.11692   2
   6  -9  -5 3.06270 1.13513   3
  -6   9   5 2.06788 1.10134   2
   5  -9  -5 300.418 13.2359   3
  -5   9   5 312.479 12.3317   2
   4  -9  -5 118.043 6.31563   3
  -4   9   5 128.279 5.98817   2
   3  -9  -5 36.4072 3.02877   3
  -3   9   5 38.1370 2.84431   2
   2  -9  -5 491.385 19.9360   3
  -2   9   5 475.932 18.1660   2
   1  -9  -5 25.1455 2.63076   3
  -1   9   5 28.5183 2.52094   2
   0  -9  -5 9.33944 1.64473   3
   0   9   5 9.15757 1.57376   2
  -1  -9  -5 286.489 12.8729   3
   1   9   5 299.780 11.8507   2
  -2  -9  -5 3.66680 1.34407   3
   2   9   5 4.24834 1.29117   2
  -3  -9  -5 1.02785 1.04737   3
   3   9   5 1.51334 1.01263   2
  -4  -9  -5 101.172 5.85767   3
   4   9   5 103.898 5.41814   2
   7 -10  -5 2.21637 1.37566   3
   6 -10  -5 139.283 7.40085   3
  -6  10   5 152.827 7.21035   2
   5 -10  -5 79.2219 4.99635   3
  -5  10   5 79.7497 4.67768   2
   4 -10  -5 279.908 12.4067   3
  -4  10   5 273.091 11.4306   2
   3 -10  -5 221.281 10.2407   3
  -3  10   5 212.794 9.31231   2
   2 -10  -5 257.788 11.9377   3
  -2  10   5 267.031 10.9469   2
   1 -10  -5 0.37472 1.04160   3
  -1  10   5 -0.6549 0.85571   2
   0 -10  -5 128.203 6.86459   3
   0  10   5 127.013 6.31825   2
  -1 -10  -5 53.7465 3.97941   3
   1  10   5 49.4713 3.58589   2
   2  13  -6 98.0444 5.16005   2
  -2 -13   6 104.016 5.90958   3
  -1 -13   6 45.0687 3.73051   3
   0 -13   6 194.301 9.50304   3
   1 -13   6 18.9912 2.53418   3
   4  12  -6 103.262 5.41718   2
   3  12  -6 168.137 7.57232   2
  -3 -12   6 171.925 8.43644   3
   2  12  -6 9.66795 1.63537   2
  -2 -12   6 9.99855 1.68651   3
   1  12  -6 70.0829 4.19318   2
  -1 -12   6 80.1629 4.75375   3
   0 -12   6 135.303 7.04640   3
   1 -12   6 29.4990 2.93162   3
   2 -12   6 87.8460 5.30557   3
   3 -12   6 805.600 32.2760   3
   4 -12   6 -0.4333 0.92526   3
   6  11  -6 15.5238 2.14412   2
   5  11  -6 0.59420 0.83877   2
   4  11  -6 3.98438 1.15980   2
   3  11  -6 239.186 9.86673   2
  -3 -11   6 246.700 10.7372   3
   2  11  -6 435.843 16.6647   2
  -2 -11   6 458.149 18.4230   3
   1  11  -6 576.186 21.5751   2
  -1 -11   6 616.266 24.0630   3
   0 -11   6 887.686 34.9168   3
   2 -11   6 821.183 32.5371   3
   3 -11   6 543.829 22.2918   3
  -5  11  -6 32.8935 2.97329   3
  -6  11  -6 3.43870 1.37893   3
  -7 -10   6 9.35423 1.69499   2
  -6 -10   6 191.287 8.38983   2
  -5 -10   6 55.0023 3.48154   2
   3  10  -6 28.0897 2.20239   2
  -3 -10   6 27.6946 2.32219   3
   2  10  -6 121.295 5.46137   2
  -2 -10   6 124.891 6.05416   3
   1  10  -6 1277.50 44.2825   2
  -1 -10   6 1262.47 48.8330   3
   0  10  -6 5.53556 0.95525   2
   1 -10   6 0.30395 0.75488   3
   2 -10   6 1.69239 0.97992   3
   3 -10   6 79.8448 4.69868   3
  -5  10  -6 836.186 33.1432   3
  -6  10  -6 10.2539 1.71440   3
  -7  10  -6 133.216 6.98014   3
  -8  10  -6 106.287 6.12577   3
  -8  -9   6 126.691 6.35019   2
  -7  -9   6 357.042 14.0757   2
  -6  -9   6 41.1380 3.01668   2
  -5  -9   6 571.205 20.9757   2
  -4  -9   6 2.86346 0.86653   2
  -4  -9   6 4.01591 1.01626   3
  -3  -9   6 359.037 14.6115   3
   2   9  -6 86.0781 4.03293   2
  -2  -9   6 89.0323 4.51360   3
   1   9  -6 81.2582 3.85206   2
  -1  -9   6 86.5142 4.11542   1
  -1  -9   6 89.0658 4.52355   3
   0   9  -6 113.360 4.79256   2
   0  -9   6 117.199 4.92409   1
   0  -9   6 109.950 5.54479   3
   1  -9   6 40.1525 2.34077   1
   1  -9   6 40.9511 2.82738   3
   2  -9   6 498.807 18.2070   1
   2  -9   6 477.024 19.6836   3
   3  -9   6 129.445 6.32103   3
   3  -9   6 123.714 5.52184   1
  -4   9  -6 32.2888 2.68658   3
   4  -9   6 30.9584 2.19170   1
  -5   9  -6 1149.21 44.6514   3
   5  -9   6 1150.85 41.6325   1
  -6   9  -6 1119.77 43.0108   3
   6  -9   6 1089.30 40.1535   1
  -7   9  -6 29.9672 2.76161   3
   7  -9   6 26.3265 2.35353   1
  -8   9  -6 42.3303 3.50290   3
   8  -9   6 48.2560 3.18693   1
  -9   9  -6 144.088 7.33477   3
   9  -9   6 136.580 6.77368   1
  -9  -8   6 18.3116 2.25011   2
  -8  -8   6 1337.93 47.2879   2
   7   8  -6 4.61401 1.04967   1
  -7  -8   6 5.87334 1.29492   2
   6   8  -6 64.3591 3.37343   1
  -6  -8   6 60.4849 3.54745   2
   5   8  -6 192.885 7.79972   1
  -5  -8   6 190.086 7.87048   2
  -4  -8   6 0.49237 0.58902   2
  -4  -8   6 2.94766 0.72966   3
   3   8  -6 98.9252 4.28047   1
  -3  -8   6 90.3586 4.22307   2
  -3  -8   6 94.9285 4.53864   3
  -2  -8   6 206.644 8.29305   1
  -2  -8   6 216.714 8.99744   3
   1   8  -6 294.965 10.9144   2
  -1  -8   6 296.642 12.1912   3
  -1  -8   6 296.825 11.2576   1
   0   8  -6 175.269 6.59767   2
   0  -8   6 165.885 7.51435   3
   0  -8   6 169.489 6.85080   1
  -1   8  -6 553.218 18.6380   2
   1  -8   6 529.036 19.3863   1
   1  -8   6 494.672 20.8018   3
   2  -8   6 139.571 6.60013   3
   2  -8   6 143.263 5.96844   1
   3  -8   6 609.811 22.4573   1
  -4   8  -6 348.333 14.6430   3
   4  -8   6 353.965 13.5063   1
  -5   8  -6 142.850 6.76835   3
   5  -8   6 134.672 6.08614   1
  -6   8  -6 486.745 19.9196   3
   6  -8   6 490.921 18.5783   1
  -7   8  -6 37.4270 3.07671   3
   7  -8   6 40.1788 2.77645   1
  -8   8  -6 42.3960 3.41205   3
   8  -8   6 47.2767 3.14908   1
  -9   8  -6 388.725 16.7298   3
   9  -8   6 403.233 15.9094   1
  10   7  -6 62.5567 3.88627   1
 -10  -7   6 64.7195 4.12781   2
   9   7  -6 11.1565 1.61745   1
  -9  -7   6 14.0830 1.92474   2
   8   7  -6 19.8846 1.98079   1
  -8  -7   6 23.8899 2.25226   2
   7   7  -6 16.1461 1.67773   1
  -7  -7   6 14.5157 1.74214   2
   6   7  -6 197.285 8.15318   1
  -6  -7   6 201.362 8.14159   2
   5   7  -6 1313.71 47.1436   1
  -5  -7   6 1317.51 45.8463   2
   4   7  -6 66.6419 3.23127   1
  -4  -7   6 66.1137 3.27584   2
  -4  -7   6 65.9844 3.26266   3
  -3  -7   6 1.73924 0.58249   2
  -3  -7   6 2.92743 0.67838   3
  -2  -7   6 1969.38 69.5246   1
  -2  -7   6 1966.48 67.2845   2
  -2  -7   6 1946.74 73.8811   3
  -1  -7   6 403.120 16.0098   3
  -1  -7   6 403.964 14.9866   1
   0   7  -6 9.63959 0.88829   2
   0  -7   6 6.85889 1.02912   3
   0  -7   6 9.21324 1.04239   1
  -1   7  -6 789.657 26.0129   2
   1  -7   6 735.861 29.0373   3
   1  -7   6 722.418 27.1530   1
   2  -7   6 315.887 12.0451   1
  -3   7  -6 51.2499 3.10373   3
   3  -7   6 49.7200 2.70091   1
  -4   7  -6 7.38114 1.17046   3
   4  -7   6 7.20651 1.03453   1
  -5   7  -6 6.06972 1.15532   3
   5  -7   6 4.43922 0.89813   1
  -6   7  -6 60.5122 3.76345   3
   6  -7   6 61.2574 3.46478   1
  -7   7  -6 89.0098 5.01192   3
   7  -7   6 96.4217 4.81852   1
  -8   7  -6 279.411 12.2048   3
   8  -7   6 280.953 11.6132   1
  -9   7  -6 412.270 17.6189   3
   9  -7   6 432.388 16.8627   1
  11   6  -6 4.95149 1.36320   1
  10   6  -6 176.109 7.95269   1
 -10  -6   6 177.287 7.89491   2
   9   6  -6 20.9284 2.09578   1
  -9  -6   6 25.9677 2.30399   2
   8   6  -6 24.6346 2.09714   1
  -8  -6   6 26.1491 2.15445   2
   7   6  -6 70.7846 3.71508   1
  -7  -6   6 74.1008 3.75675   2
   6   6  -6 6.87192 1.06165   1
  -6  -6   6 9.50707 1.25488   2
   5   6  -6 556.293 20.7276   1
  -5  -6   6 567.924 20.1630   2
   4   6  -6 688.188 25.5490   1
  -4  -6   6 702.012 24.7897   2
  -4  -6   6 718.630 26.8256   3
  -3  -6   6 452.315 16.4079   1
  -3  -6   6 442.112 15.8283   2
  -3  -6   6 434.041 17.1755   3
  -2  -6   6 290.702 10.5360   2
  -2  -6   6 288.654 11.5800   3
  -2  -6   6 291.429 11.0038   1
  -1  -6   6 1083.42 40.4026   1
  -1  -6   6 1148.65 38.9518   2
  -1  -6   6 1163.66 42.9846   3
   0   6  -6 104.000 3.97959   2
   0  -6   6 99.4123 4.35453   1
   0  -6   6 102.495 4.72025   3
  -1   6  -6 239.211 8.12616   2
  -1   6  -6 211.104 9.40787   3
   1  -6   6 227.017 8.79149   1
  -2   6  -6 1536.50 58.3594   3
   2  -6   6 1538.53 54.7684   1
  -3   6  -6 286.941 11.9481   3
   3  -6   6 291.185 11.1504   1
  -4   6  -6 225.923 9.83584   3
   4  -6   6 235.704 9.21057   1
  -5   6  -6 84.1370 4.35490   3
   5  -6   6 77.5352 3.95902   1
  -6   6  -6 15.6579 1.72929   3
   6  -6   6 15.9930 1.71733   1
  -7   6  -6 33.9514 2.58649   3
   7  -6   6 29.8906 2.47119   1
  -8   6  -6 84.3395 4.78807   3
   8  -6   6 87.7816 4.71131   1
  -9   6  -6 8.00307 1.47937   3
   9  -6   6 6.44426 1.50211   1
  11   5  -6 8.98655 1.63560   1
 -11  -5   6 11.2580 1.83260   2
  10   5  -6 9.89903 1.56164   1
 -10  -5   6 10.1784 1.59166   2
   9   5  -6 223.238 9.49693   1
  -9  -5   6 231.234 9.33715   2
   8   5  -6 385.783 15.1403   1
  -8  -5   6 398.607 14.7734   2
   7   5  -6 8.11427 1.16366   1
  -7  -5   6 7.45915 1.10738   2
   6   5  -6 152.222 6.43969   1
  -6  -5   6 152.551 6.27055   2
   5   5  -6 128.558 5.41712   1
  -5  -5   6 123.596 5.21670   2
   4   5  -6 26.2657 1.71651   1
  -4  -5   6 28.6105 1.69292   2
  -3  -5   6 543.308 19.7450   2
  -3  -5   6 580.807 20.5536   1
  -2  -5   6 144.314 5.51172   2
  -2  -5   6 146.913 5.87726   1
   1   5  -6 738.534 27.6135   3
  -1  -5   6 689.060 25.9797   1
  -1  -5   6 734.757 24.9016   2
   0   5  -6 1041.79 39.1731   3
   0  -5   6 1016.88 36.8260   1
  -1   5  -6 150.329 4.95052   2
  -1   5  -6 117.547 5.88762   3
   1  -5   6 138.513 5.61197   1
  -2   5  -6 5378.07 201.524   3
   2  -5   6 5281.95 189.644   1
  -3   5  -6 16.9218 1.54544   3
   3  -5   6 11.2761 1.37541   1
  -4   5  -6 1259.36 48.4823   3
   4  -5   6 1281.37 45.6031   1
  -5   5  -6 15.5011 1.56631   3
   5  -5   6 13.1693 1.46728   1
  -6   5  -6 99.9273 4.95783   3
   6  -5   6 93.7505 4.66067   1
  -7   5  -6 95.3681 5.00692   3
   7  -5   6 92.6024 4.79361   1
  -8   5  -6 11.3402 1.61535   3
   8  -5   6 9.56873 1.53778   1
  -9   5  -6 5.48082 1.29826   3
   9  -5   6 8.69616 1.56660   1
  10  -5   6 6.50779 1.57244   1
  11   4  -6 304.994 12.5433   1
 -11  -4   6 296.780 12.0941   2
  10   4  -6 424.087 16.8771   1
 -10  -4   6 440.124 16.3811   2
   9   4  -6 247.514 10.3854   1
  -9  -4   6 259.065 10.1534   2
   8   4  -6 966.775 34.0166   1
  -8  -4   6 892.503 32.8232   2
   7   4  -6 247.245 9.92583   1
  -7  -4   6 249.475 9.59907   2
   6   4  -6 63.9231 3.28161   1
  -6  -4   6 66.8686 3.20003   2
   5   4  -6 87.6991 4.01197   1
  -5  -4   6 88.7572 3.86105   2
   4   4  -6 187.386 7.51871   1
   4   4  -6 201.252 7.53282   3
  -4  -4   6 179.598 7.15989   2
   3   4  -6 560.875 21.0056   3
  -3  -4   6 560.953 19.3041   2
  -3  -4   6 529.432 20.0595   1
   2   4  -6 3060.08 115.813   3
  -2  -4   6 3132.79 105.584   2
  -2  -4   6 3014.23 108.159   1
   1   4  -6 1089.24 40.7010   3
  -1  -4   6 1025.19 38.3547   1
  -1  -4   6 1112.82 36.8402   2
   0   4  -6 557.868 21.3191   3
   0  -4   6 563.281 18.9741   2
   0  -4   6 534.779 20.0604   1
  -1   4  -6 5833.01 183.004   2
  -1   4  -6 5255.77 203.752   3
   1  -4   6 5053.63 191.194   1
   2  -4   6 29.4531 1.76957   1
  -3   4  -6 64.7859 3.39024   3
  -4   4  -6 534.640 20.7901   3
   4  -4   6 518.982 19.5231   1
  -5   4  -6 67.8599 3.65444   3
   5  -4   6 65.0530 3.41523   1
  -6   4  -6 9.23277 1.30343   3
   6  -4   6 11.0270 1.38947   1
  -7   4  -6 506.373 20.1746   3
   7  -4   6 494.412 19.1053   1
  -8   4  -6 9.02028 1.44218   3
   8  -4   6 11.8810 1.64417   1
   9  -4   6 60.2984 3.93150   1
  10  -4   6 197.570 9.11915   1
  12   3  -6 13.1219 2.01752   1
 -12  -3   6 13.8021 1.99659   2
  11   3  -6 259.361 10.9832   1
 -11  -3   6 255.973 10.5355   2
  10   3  -6 87.3192 4.72493   1
 -10  -3   6 90.3304 4.58252   2
   9   3  -6 131.218 6.00700   1
  -9  -3   6 126.468 5.76260   2
   8   3  -6 177.309 7.43355   1
  -8  -3   6 169.849 7.11491   2
   7   3  -6 83.1812 4.05013   1
  -7  -3   6 83.8329 3.92676   2
   6   3  -6 635.617 23.0273   1
  -6  -3   6 617.921 22.2664   2
   5   3  -6 955.593 34.2697   1
  -5  -3   6 947.141 33.1096   2
   4   3  -6 42.0983 1.87266   3
  -4  -3   6 38.0791 2.01437   2
   3   3  -6 2485.26 92.3380   3
  -3  -3   6 2466.92 83.7213   2
  -3  -3   6 2407.53 86.6397   1
   2   3  -6 1110.23 40.5619   3
  -2  -3   6 1025.51 38.3192   1
  -2  -3   6 1089.70 36.9165   2
   1   3  -6 631.218 24.2101   3
  -1  -3   6 639.881 21.8066   2
  -1  -3   6 629.828 22.8782   1
   0   3  -6 186.671 7.89026   3
   0  -3   6 200.146 6.75708   2
  -1   3  -6 12.7432 1.17666   3
   1  -3   6 12.8984 1.05639   1
  -2   3  -6 32.7563 1.98508   3
   2  -3   6 30.7741 1.79761   1
  -3   3  -6 20.9752 1.57406   3
   3  -3   6 14.8173 1.29185   1
  -4   3  -6 1835.57 70.1304   3
   4  -3   6 1875.02 66.0196   1
  -5   3  -6 522.528 21.0207   3
   5  -3   6 541.405 19.8671   1
  -6   3  -6 0.64274 0.63930   3
   6  -3   6 0.46217 0.59919   1
  -7   3  -6 1381.01 52.4585   3
   7  -3   6 1357.16 49.5060   1
  -8   3  -6 334.906 14.0006   3
   8  -3   6 332.973 13.4677   1
   9  -3   6 17.8065 2.20510   1
  10  -3   6 60.8896 4.07926   1
  12   2  -6 47.0071 3.55659   1
 -12  -2   6 42.9857 3.21201   2
  11   2  -6 27.5438 2.70226   1
 -11  -2   6 32.6921 2.54640   2
  10   2  -6 211.106 9.04251   1
 -10  -2   6 208.478 8.71179   2
   9   2  -6 264.439 10.5981   1
  -9  -2   6 253.301 10.2120   2
   8   2  -6 406.026 15.4703   1
  -8  -2   6 400.285 14.9266   2
   7   2  -6 461.807 17.3459   1
   6   2  -6 1415.99 51.6804   1
  -6  -2   6 1477.82 50.0285   2
  -5  -2   6 21.5322 1.47147   2
   4   2  -6 71.4742 3.27602   1
   4   2  -6 72.2180 2.95508   3
  -4  -2   6 68.5340 3.09784   2
   3   2  -6 2759.60 93.7867   3
  -3  -2   6 2298.46 85.0510   2
  -3  -2   6 2426.49 88.0286   1
   2   2  -6 129.475 5.19883   3
  -2  -2   6 120.487 4.68571   2
   1   2  -6 330.923 12.7453   3
  -1  -2   6 312.922 12.0092   1
  -1  -2   6 331.857 11.3753   2
   0   2  -6 856.602 33.4480   3
   0  -2   6 874.477 31.4694   1
   0  -2   6 909.108 30.0460   2
  -1   2  -6 122.541 5.54011   3
   1  -2   6 134.891 5.21099   1
  -2   2  -6 4.88960 0.88673   3
   3  -2   6 24.0057 1.58966   1
  -4   2  -6 279.232 11.5201   3
  -5   2  -6 1154.05 45.9169   3
   5  -2   6 1252.07 43.3557   1
  -6   2  -6 174.863 7.73367   3
   6  -2   6 171.719 7.36747   1
  -7   2  -6 4.89320 1.19066   3
  -8   2  -6 448.417 18.4270   3
   8  -2   6 456.850 17.6176   1
   9  -2   6 115.400 5.89996   1
  10  -2   6 63.0550 4.14587   1
  12   1  -6 238.402 10.5818   1
 -12  -1   6 248.133 10.1725   2
  11   1  -6 25.2582 2.55846   1
 -11  -1   6 27.1700 2.45052   2
  10   1  -6 358.036 14.5355   1
 -10  -1   6 376.916 14.1160   2
  -9  -1   6 8.99619 1.36682   2
   8   1  -6 186.751 7.88027   1
  -8  -1   6 189.811 7.64084   2
   7   1  -6 328.201 12.4263   1
  -7  -1   6 316.143 12.0354   2
   6   1  -6 2.44703 0.64991   1
  -6  -1   6 2.61324 0.63610   2
   5   1  -6 78.3921 3.63069   1
  -5  -1   6 83.2204 3.56640   2
   4   1  -6 350.239 13.2500   1
   4   1  -6 371.133 13.5980   3
  -4  -1   6 348.287 12.7821   2
   3   1  -6 3565.50 135.168   3
  -3  -1   6 3681.58 127.963   1
  -3  -1   6 3575.13 122.777   2
   2   1  -6 1065.25 38.9727   3
  -2  -1   6 1037.22 35.4838   2
  -2  -1   6 997.406 36.7784   1
   1   1  -6 16.3066 1.17802   3
  -1  -1   6 15.4595 0.92404   2
  -1  -1   6 16.8331 1.12950   1
   0   1  -6 1731.55 66.9603   3
   0  -1   6 1741.15 62.9632   1
   0  -1   6 1871.29 60.6496   2
  -1   1  -6 1866.39 67.9581   3
   1  -1   6 1737.12 63.8193   1
   1  -1   6 1809.47 61.5737   2
  -2   1  -6 123.166 5.68335   3
   2  -1   6 127.950 5.29074   1
   2  -1   6 139.953 4.67211   2
  -3   1  -6 111.325 5.38818   3
   3  -1   6 128.963 4.39128   2
   3  -1   6 121.011 5.07073   1
  -4   1  -6 737.945 28.4364   3
   4  -1   6 730.849 26.7209   1
  -5   1  -6 17.2942 1.64221   3
   5  -1   6 14.5812 1.41310   1
  -6   1  -6 3.12033 0.87405   3
   6  -1   6 -0.0598 0.49085   1
  -7   1  -6 273.708 11.6777   3
   7  -1   6 278.775 11.1766   1
  -8   1  -6 612.593 25.3458   3
   8  -1   6 673.594 24.3226   1
   9  -1   6 140.016 6.76479   1
  10  -1   6 136.357 6.85896   1
  12   0  -6 55.3642 3.80415   1
 -12   0   6 55.0494 3.65857   2
  11   0  -6 0.12917 0.86457   1
 -11   0   6 -0.0410 0.77473   2
  10   0  -6 1369.75 49.8680   1
 -10   0   6 1381.96 48.2649   2
   9   0  -6 57.0468 3.29746   1
  -9   0   6 53.0765 3.18405   2
   8   0  -6 453.150 17.1607   1
  -8   0   6 453.405 16.6624   2
   7   0  -6 444.346 16.9618   1
  -7   0   6 460.474 16.4969   2
   6   0  -6 300.257 11.8063   1
  -6   0   6 320.609 11.5268   2
   5   0  -6 134.028 5.65106   1
   5   0  -6 146.290 5.49032   3
  -5   0   6 133.351 5.50247   2
   4   0  -6 55.8335 2.51816   3
   4   0  -6 60.2546 2.70996   1
  -4   0   6 55.6493 2.61801   2
   3   0  -6 3576.39 125.854   3
  -3   0   6 3151.20 117.027   1
  -3   0   6 3254.34 113.806   2
   2   0  -6 1078.86 39.6104   3
  -2   0   6 1049.96 36.1027   2
  -2   0   6 1020.70 37.3063   1
   1   0  -6 130.010 5.40611   3
  -1   0   6 128.229 5.04582   1
  -1   0   6 128.130 4.81049   2
   0   0  -6 711.880 28.3674   3
   0   0   6 763.681 26.6465   1
   0   0   6 757.576 25.6192   2
  -1   0  -6 2.89243 0.56133   3
   1   0   6 3.18116 0.49619   1
  -2   0  -6 154.408 6.75194   3
   2   0   6 161.840 5.78106   2
   2   0   6 159.105 6.25245   1
  -3   0  -6 180.041 7.67735   3
   3   0   6 185.634 6.57850   2
   3   0   6 175.781 7.11565   1
  -4   0  -6 855.987 32.8388   3
   4   0   6 784.972 30.7858   1
   4   0   6 918.872 29.4683   2
  -5   0  -6 150.732 6.87944   3
   5   0   6 159.750 6.53811   1
  -6   0  -6 -0.0470 0.56552   3
   6   0   6 -0.0474 0.53250   1
  -7   0  -6 32.9864 2.44321   3
   7   0   6 29.3003 2.34138   1
  -8   0  -6 143.725 6.68368   3
   8   0   6 134.224 6.48469   1
   9   0   6 163.475 7.57169   1
  10   0   6 257.109 11.1452   1
  12  -1  -6 15.0747 2.03765   1
 -12   1   6 12.8307 1.85176   2
  11  -1  -6 58.4553 3.64888   1
 -11   1   6 53.5223 3.44814   2
  10  -1  -6 858.612 31.7522   1
 -10   1   6 859.522 30.7752   2
   9  -1  -6 30.6047 2.33443   1
  -9   1   6 32.6254 2.37977   2
   8  -1  -6 46.9389 2.74194   1
  -8   1   6 43.2140 2.71906   2
   7  -1  -6 326.839 12.6219   1
  -7   1   6 331.850 12.3164   2
   6  -1  -6 376.509 14.0748   1
  -6   1   6 373.914 13.7418   2
   5  -1  -6 149.049 6.24134   1
   5  -1  -6 165.745 6.30902   3
  -5   1   6 153.580 6.18198   2
   4  -1  -6 275.216 10.3754   3
   4  -1  -6 263.895 9.94243   1
  -4   1   6 252.873 9.73385   2
   3  -1  -6 196.703 7.89601   3
   2  -1  -6 146.298 6.10842   3
  -2   1   6 148.327 5.68148   1
  -2   1   6 146.849 5.59583   2
   1  -1  -6 193.044 7.74055   3
  -1   1   6 186.535 6.94883   2
  -1   1   6 187.606 7.11038   1
   0  -1  -6 1330.21 53.8164   3
   0   1   6 1456.93 50.4949   1
   0   1   6 1492.21 48.8908   2
  -1  -1  -6 2237.17 85.7736   3
   1   1   6 2272.87 77.8604   2
   1   1   6 2338.48 80.5159   1
  -2  -1  -6 658.559 24.3332   3
   2   1   6 614.102 21.8055   2
   2   1   6 610.649 22.6461   1
  -3  -1  -6 2028.30 76.0909   3
   3   1   6 1972.33 71.4226   1
   3   1   6 2052.95 68.9780   2
  -4  -1  -6 2162.66 78.3435   3
   4   1   6 2044.05 73.5644   1
   4   1   6 2018.27 70.9255   2
   5   1   6 3.01110 0.73701   1
  -6  -1  -6 415.363 16.1519   3
   6   1   6 377.442 15.0565   1
  -7  -1  -6 242.701 10.2140   3
   7   1   6 227.898 9.60915   1
  -8  -1  -6 86.2089 4.60093   3
   8   1   6 81.3520 4.45966   1
   9   1   6 36.8821 2.87096   1
  10   1   6 6.67453 1.51677   1
  12  -2  -6 25.5278 2.57335   1
 -12   2   6 22.2601 2.38665   2
  11  -2  -6 279.499 11.5059   1
 -11   2   6 271.528 11.1275   2
  10  -2  -6 515.100 19.6747   1
 -10   2   6 513.947 19.1063   2
   9  -2  -6 525.972 19.9359   1
  -9   2   6 530.033 19.4201   2
   8  -2  -6 1099.20 39.8936   1
  -8   2   6 1108.13 38.7570   2
   7  -2  -6 30.3627 2.00098   1
  -7   2   6 30.7044 2.09205   2
   6  -2  -6 262.694 10.1842   1
  -6   2   6 266.484 10.0797   2
   5  -2  -6 248.121 9.77118   1
   5  -2  -6 266.114 10.2302   3
  -5   2   6 258.608 9.73456   2
   4  -2  -6 131.640 5.26692   1
   4  -2  -6 133.177 5.55992   3
  -4   2   6 130.427 5.31867   2
   3  -2  -6 68.6113 2.94396   1
   3  -2  -6 68.6268 3.22708   3
  -3   2   6 69.1112 3.09485   2
   2  -2  -6 12.7195 1.06639   3
  -2   2   6 11.2436 0.83323   1
   1  -2  -6 877.025 33.7309   3
  -1   2   6 875.145 30.6625   2
  -1   2   6 901.450 31.4364   1
   0  -2  -6 81.4410 3.93005   3
   0   2   6 82.7696 3.36318   1
   0   2   6 82.7367 3.43670   2
  -1  -2  -6 470.123 18.7988   3
   1   2   6 489.075 17.3432   1
   1   2   6 478.019 16.9236   2
  -2  -2  -6 836.150 31.8618   3
   2   2   6 802.037 28.7214   2
   2   2   6 844.540 29.6387   1
  -3  -2  -6 2191.48 81.5192   3
   3   2   6 2166.15 73.9454   2
   3   2   6 2123.55 76.3765   1
  -4  -2  -6 29.8983 2.16424   3
   4   2   6 29.8748 1.74898   2
   4   2   6 29.5427 1.83563   1
  -5  -2  -6 30.2140 2.29403   3
   5   2   6 29.6865 1.78739   2
   5   2   6 29.6963 1.95328   1
  -6  -2  -6 16.0862 1.79707   3
   6   2   6 14.8483 1.52277   1
  -7  -2  -6 66.3800 3.92345   3
   7   2   6 67.1472 3.61375   1
   8   2   6 104.871 5.18727   1
   9   2   6 40.2892 2.97895   1
  12  -3  -6 143.508 6.82916   1
 -12   3   6 128.623 6.48012   2
  11  -3  -6 275.718 11.4126   1
 -11   3   6 271.009 11.1152   2
  10  -3  -6 28.7892 2.37066   1
 -10   3   6 27.9074 2.40308   2
   9  -3  -6 297.874 11.7900   1
  -9   3   6 293.850 11.5507   2
   8  -3  -6 61.4880 3.24110   1
  -8   3   6 57.3297 3.29004   2
   7  -3  -6 14.0017 1.38722   1
   6  -3  -6 733.127 27.7346   3
   6  -3  -6 705.324 26.2450   1
  -6   3   6 735.255 25.8017   2
   5  -3  -6 242.755 9.32967   1
   5  -3  -6 250.599 9.88520   3
  -5   3   6 240.616 9.36060   2
   4  -3  -6 1319.43 45.6004   1
   4  -3  -6 1310.07 48.5851   3
  -4   3   6 1222.38 44.4717   2
   3  -3  -6 788.951 26.9855   1
   3  -3  -6 743.216 28.9289   3
  -3   3   6 733.304 26.5006   2
   2  -3  -6 23.0096 1.24222   1
   2  -3  -6 23.7537 1.63453   3
  -2   3   6 22.3277 1.48150   2
   1  -3  -6 79.3351 3.87394   3
  -1   3   6 80.6665 3.20156   1
  -1   3   6 79.7286 3.49303   2
   0  -3  -6 168.394 7.71650   3
   0   3   6 180.132 6.98027   2
   0   3   6 196.717 6.83512   1
  -1  -3  -6 154.441 6.80684   3
   1   3   6 148.350 6.01013   2
   1   3   6 158.650 5.90804   1
  -2  -3  -6 610.108 26.1641   3
   2   3   6 725.286 24.2605   1
   2   3   6 686.018 23.7166   2
  -3  -3  -6 620.599 24.6940   3
   3   3   6 661.070 22.8398   1
   3   3   6 608.586 22.2230   2
  -4  -3  -6 22.4342 1.96483   3
   4   3   6 23.2383 1.57153   1
   4   3   6 22.3798 1.60262   2
  -5  -3  -6 80.1318 4.28930   3
   5   3   6 75.3015 3.59798   2
   5   3   6 79.2905 3.84297   1
  -6  -3  -6 1048.67 40.5640   3
  -7  -3  -6 358.265 14.9522   3
  12  -4  -6 170.543 7.97111   1
  11  -4  -6 6.28075 1.35160   1
 -11   4   6 7.23864 1.51621   2
  10  -4  -6 104.369 5.19026   1
 -10   4   6 104.891 5.25192   2
   9  -4  -6 6.74606 1.13857   1
  -9   4   6 5.86183 1.22874   2
   8  -4  -6 417.806 15.6911   1
  -8   4   6 407.708 15.5154   2
   7  -4  -6 200.660 8.18204   1
  -7   4   6 209.523 8.37600   2
   6  -4  -6 61.8284 3.12888   3
   6  -4  -6 58.1290 2.84826   1
  -6   4   6 54.2347 3.10708   2
   5  -4  -6 24.7962 1.75694   3
   5  -4  -6 24.1713 1.51436   1
  -5   4   6 23.5548 1.81759   2
   4  -4  -6 3171.73 118.765   3
  -4   4   6 3161.98 108.432   2
   3  -4  -6 56.2285 3.02430   3
  -3   4   6 57.6568 2.90890   2
   2  -4  -6 26.3488 1.89656   3
  -2   4   6 28.0005 1.82107   2
   1  -4  -6 320.963 13.1601   3
  -1   4   6 327.477 11.9872   2
   0  -4  -6 1768.11 69.4077   3
   0   4   6 1901.71 63.1806   2
  -1  -4  -6 83.7718 4.36840   3
   1   4   6 88.7719 3.89039   2
  -2  -4  -6 46.2651 2.87669   3
   2   4   6 43.6570 2.40744   2
  -3  -4  -6 25.3162 2.19065   3
   3   4   6 27.6683 1.81413   2
  -4  -4  -6 6.75438 1.25475   3
   4   4   6 7.08515 1.05269   2
  -5  -4  -6 52.5282 3.27901   3
   5   4   6 45.8505 2.69748   2
  -6  -4  -6 420.829 17.3155   3
  -7  -4  -6 218.975 9.84413   3
 -11   5   6 104.827 5.47536   2
 -10   5   6 148.248 6.88179   2
  -9   5   6 0.40422 0.81419   2
  -8   5   6 3.41503 1.09735   2
  -7   5   6 282.443 11.1261   2
   6  -5  -6 3.01365 0.78892   3
  -6   5   6 -0.4570 0.50201   2
   5  -5  -6 166.248 7.16506   3
  -5   5   6 159.994 6.82228   2
   4  -5  -6 13.9449 1.41356   3
  -4   5   6 14.5791 1.54946   2
   3  -5  -6 16.9859 1.59266   3
  -3   5   6 16.4404 1.57010   2
   2  -5  -6 504.990 20.2101   3
  -2   5   6 517.424 18.5181   2
   1  -5  -6 3257.02 125.023   3
  -1   5   6 3398.65 113.919   2
   0  -5  -6 5.36670 1.10680   3
  -1  -5  -6 22.8324 2.08971   3
   1   5   6 24.1305 1.88201   2
  -2  -5  -6 135.854 6.53369   3
   2   5   6 139.637 5.82348   2
  -3  -5  -6 85.4101 4.64331   3
   3   5   6 83.5889 4.01586   2
  -4  -5  -6 15.5400 1.95963   3
   4   5   6 15.7665 1.54301   2
  -5  -5  -6 5.07101 1.22135   3
   5   5   6 3.41131 0.86809   2
  -6  -5  -6 90.6515 5.03365   3
  -7  -5  -6 36.8052 2.99160   3
 -10   6   6 131.017 6.37375   2
  -9   6   6 48.2488 3.35287   2
  -8   6   6 73.2171 4.18286   2
  -7   6   6 104.967 5.15254   2
   6  -6  -6 106.047 5.21704   3
  -6   6   6 106.182 5.08984   2
   5  -6  -6 286.877 12.0431   3
  -5   6   6 290.129 11.2973   2
   4  -6  -6 869.937 33.6603   3
  -4   6   6 869.510 30.9009   2
   3  -6  -6 16.7266 1.80161   3
  -3   6   6 20.1728 1.77704   2
   2  -6  -6 46.6963 2.94334   3
  -2   6   6 42.6574 2.69079   2
   1  -6  -6 1817.69 66.8970   3
  -1   6   6 1698.44 60.8515   2
   0  -6  -6 892.270 35.0369   3
   0   6   6 910.751 31.8833   2
  -1  -6  -6 388.952 15.6843   3
   1   6   6 368.477 14.1548   2
  -2  -6  -6 3.56917 1.00609   3
   2   6   6 3.62078 0.92893   2
  -3  -6  -6 9.82472 1.50467   3
   3   6   6 12.6696 1.53214   2
  -4  -6  -6 43.6899 3.10986   3
   4   6   6 39.7193 2.62929   2
  -5  -6  -6 87.0809 4.89060   3
   5   6   6 79.5823 4.18190   2
  -6  -6  -6 29.0424 2.76758   3
 -10   7   6 2.64223 1.30680   2
  -9   7   6 55.2156 3.74879   2
  -8   7   6 246.658 10.3441   2
  -7   7   6 83.4263 4.63455   2
   6  -7  -6 2.43354 0.95633   3
  -6   7   6 2.20083 1.06049   2
   5  -7  -6 44.0782 3.06286   3
  -5   7   6 45.8600 3.00614   2
   4  -7  -6 66.8015 3.86842   3
  -4   7   6 67.7027 3.73277   2
   3  -7  -6 235.526 10.2323   3
  -3   7   6 234.142 9.45342   2
   2  -7  -6 44.2833 3.04523   3
  -2   7   6 44.5035 2.86005   2
  -1   7   6 5.54731 1.08193   2
   0  -7  -6 171.561 7.93387   3
   0   7   6 168.152 7.21056   2
  -1  -7  -6 37.7428 2.86270   3
   1   7   6 35.1229 2.50589   2
  -2  -7  -6 333.160 13.8614   3
   2   7   6 313.590 12.4804   2
  -3  -7  -6 735.778 29.0855   3
   3   7   6 726.581 26.3885   2
  -4  -7  -6 80.5602 4.70378   3
   4   7   6 73.8933 4.13669   2
  -5  -7  -6 428.091 18.0307   3
   5   7   6 434.530 16.3610   2
  -6  -7  -6 920.680 36.3290   3
  -8   8   6 739.075 27.2299   2
  -7   8   6 347.701 13.8171   2
   6  -8  -6 235.852 10.6181   3
  -6   8   6 244.484 10.0895   2
   5  -8  -6 9.57738 1.58272   3
  -5   8   6 9.02295 1.54287   2
   4  -8  -6 3.82131 1.10736   3
  -4   8   6 3.65992 1.09420   2
   3  -8  -6 153.839 7.45180   3
  -3   8   6 158.238 6.95271   2
   2  -8  -6 28.8964 2.50813   3
  -2   8   6 23.1533 2.21460   2
   1  -8  -6 0.01084 0.81114   3
  -1   8   6 1.90241 0.96264   2
   0  -8  -6 42.8118 3.38891   3
   0   8   6 46.4881 3.06673   2
  -1  -8  -6 384.503 16.1420   3
   1   8   6 376.943 14.6303   2
  -2  -8  -6 671.143 27.2385   3
   2   8   6 686.256 24.8398   2
  -3  -8  -6 267.006 12.1760   3
   3   8   6 280.840 11.1379   2
  -4  -8  -6 3.00028 1.25166   3
   4   8   6 2.79126 1.20185   2
  -5  -8  -6 112.097 6.22966   3
   5   8   6 109.016 5.61416   2
  -7   9   6 104.315 5.66932   2
   6  -9  -6 3.29104 1.31056   3
  -6   9   6 4.77253 1.44963   2
   5  -9  -6 463.928 19.3634   3
  -5   9   6 471.706 17.9696   2
   4  -9  -6 190.503 9.04287   3
  -4   9   6 187.226 8.32602   2
   3  -9  -6 7.22976 1.53920   3
  -3   9   6 8.34868 1.50381   2
   2  -9  -6 68.2762 4.33808   3
  -2   9   6 64.4987 4.03903   2
   1  -9  -6 147.321 7.41326   3
  -1   9   6 141.339 6.71108   2
   0  -9  -6 11.2012 1.86400   3
   0   9   6 11.8560 1.77350   2
  -1  -9  -6 38.7114 3.31887   3
   1   9   6 38.9818 2.99291   2
  -2  -9  -6 179.999 8.83740   3
   2   9   6 176.168 7.95046   2
   3   9   6 2.20296 1.12974   2
   6 -10  -6 239.120 11.1582   3
   5 -10  -6 228.856 10.6696   3
   4 -10  -6 417.064 17.8828   3
  -4  10   6 424.180 16.8257   2
   3 -10  -6 1.43913 1.16344   3
  -3  10   6 1.89435 1.05626   2
   2 -10  -6 126.480 6.82546   3
  -2  10   6 123.172 6.25447   2
   1 -10  -6 10.6325 1.98539   3
  -1  10   6 9.75985 1.73248   2
  -2 -13   7 90.5975 5.43083   3
  -1 -13   7 3.83822 1.43000   3
   0 -13   7 0.02512 1.17061   3
   1 -13   7 44.2185 3.95262   3
   5  12  -7 5.09484 1.45017   2
   4  12  -7 11.0384 1.76077   2
   3  12  -7 135.299 6.34173   2
  -2 -12   7 136.569 6.95728   3
  -1 -12   7 154.463 7.69448   3
   0 -12   7 42.2632 3.41507   3
   1 -12   7 21.4295 2.51517   3
   2 -12   7 40.9754 3.55716   3
  -4  12  -7 100.362 5.94887   3
   5  11  -7 28.3863 2.60278   2
   4  11  -7 584.614 21.5955   2
   3  11  -7 536.119 20.3926   2
  -3 -11   7 572.501 22.3871   3
   2  11  -7 84.1445 4.43489   2
  -2 -11   7 94.2206 5.02858   3
  -1 -11   7 425.589 17.6350   3
   0 -11   7 951.501 37.2732   3
   1 -11   7 54.2663 3.75749   3
   2 -11   7 20.0664 2.52318   3
  -4  11  -7 13.1088 2.04038   3
  -5  11  -7 13.3138 2.04004   3
  -6  11  -7 2.39313 1.23546   3
  -7 -10   7 161.541 7.47914   2
  -6 -10   7 10.9952 1.68192   2
  -5 -10   7 0.50873 0.74370   2
   3  10  -7 627.864 23.1256   2
  -3 -10   7 653.387 25.3277   3
   2  10  -7 153.281 6.42995   2
  -2 -10   7 149.387 7.06756   3
   1  10  -7 1.30889 0.66154   2
  -1 -10   7 -0.8336 0.77760   3
   0 -10   7 261.277 11.3504   3
   1 -10   7 29.3980 2.58914   3
   2 -10   7 106.631 5.72447   3
  -3  10  -7 8.15412 1.46773   3
  -4  10  -7 82.8932 4.97129   3
  -5  10  -7 26.9518 2.83723   3
  -6  10  -7 88.4778 5.29121   3
  -7  10  -7 34.6166 3.15545   3
  -8  -9   7 405.673 15.8580   2
  -7  -9   7 487.690 18.4651   2
  -6  -9   7 152.122 6.85306   2
  -5  -9   7 103.842 5.01478   2
   4   9  -7 377.228 14.2704   1
  -4  -9   7 371.295 14.0518   2
   3   9  -7 20.1756 1.66567   1
  -3  -9   7 19.4198 1.77233   3
  -3  -9   7 17.8995 1.65153   2
   2   9  -7 19.3077 1.59669   2
  -2  -9   7 22.5479 1.71158   1
  -2  -9   7 21.2313 1.90089   3
   1   9  -7 118.511 4.88182   2
  -1  -9   7 110.970 5.02882   1
  -1  -9   7 115.067 5.59578   3
   0  -9   7 666.148 26.9069   3
   0  -9   7 703.985 25.1085   1
   1  -9   7 87.4201 4.11587   1
   1  -9   7 82.5897 4.58660   3
   2  -9   7 1188.49 42.8428   1
  -3   9  -7 2441.93 93.3599   3
   3  -9   7 2482.39 87.4849   1
  -4   9  -7 56.9404 3.76446   3
   4  -9   7 54.3456 3.21533   1
  -5   9  -7 532.357 21.6372   3
   5  -9   7 527.929 20.0241   1
  -6   9  -7 4.21811 1.33831   3
   6  -9   7 5.61648 1.14342   1
  -7   9  -7 196.100 9.36668   3
   7  -9   7 198.616 8.60284   1
  -8   9  -7 2.92919 1.17788   3
   8  -9   7 3.65138 1.10631   1
   9   8  -7 40.6488 2.90764   1
  -9  -8   7 37.5879 3.13878   2
   8   8  -7 16.6990 1.90465   1
  -8  -8   7 13.1825 1.84745   2
   7   8  -7 157.721 7.00135   1
  -7  -8   7 164.319 7.19387   2
   6   8  -7 19.8428 1.79282   1
  -6  -8   7 20.1619 2.00693   2
   5   8  -7 8.33324 1.18119   1
  -5  -8   7 4.92951 1.03356   2
   4   8  -7 414.494 16.2176   1
  -4  -8   7 443.031 15.9250   2
  -4  -8   7 440.919 17.3336   3
  -3  -8   7 50.1303 2.81907   1
  -3  -8   7 58.1345 3.05426   3
  -3  -8   7 55.4947 2.84321   2
  -2  -8   7 0.63600 0.50727   1
  -2  -8   7 1.25817 0.51837   2
  -2  -8   7 3.71865 0.81480   3
   1   8  -7 55.7194 2.67569   2
  -1  -8   7 58.8419 2.94104   1
  -1  -8   7 53.1131 3.11844   3
   0  -8   7 318.476 12.9917   3
   0  -8   7 309.903 12.0330   1
   1  -8   7 74.6945 3.64711   1
  -2   8  -7 520.956 21.0766   3
   2  -8   7 532.049 19.6039   1
  -3   8  -7 46.4894 3.30890   3
   3  -8   7 55.6223 2.99673   1
  -4   8  -7 179.226 8.42167   3
   4  -8   7 189.939 7.76419   1
  -5   8  -7 173.323 7.93842   3
   5  -8   7 157.838 7.10568   1
  -6   8  -7 341.196 14.7745   3
   6  -8   7 351.160 13.7032   1
  -7   8  -7 77.2666 4.67867   3
   7  -8   7 80.1094 4.36838   1
  -8   8  -7 261.859 11.7166   3
   8  -8   7 257.263 10.9778   1
  -9   8  -7 222.837 10.4197   3
  10   7  -7 3.33724 1.12956   1
 -10  -7   7 3.33094 1.27586   2
   9   7  -7 25.1682 2.31760   1
  -9  -7   7 28.8965 2.57412   2
   8   7  -7 15.5529 1.96309   1
  -8  -7   7 20.8106 2.08502   2
   7   7  -7 813.228 29.7951   1
  -7  -7   7 807.491 29.0297   2
   6   7  -7 77.2527 3.86762   1
  -6  -7   7 75.4463 3.86853   2
   5   7  -7 656.946 24.1920   1
  -5  -7   7 657.281 23.5013   2
   4   7  -7 1234.02 44.8353   1
  -4  -7   7 1227.03 47.2966   3
  -4  -7   7 1288.07 43.4630   2
  -3  -7   7 182.899 7.67848   3
  -3  -7   7 183.651 7.41836   1
  -3  -7   7 180.686 7.09332   2
  -2  -7   7 515.004 20.3940   3
  -2  -7   7 522.354 18.5039   2
  -2  -7   7 528.981 19.2925   1
  -1  -7   7 26.2435 1.76949   1
   0   7  -7 182.611 8.09608   3
   0   7  -7 199.298 7.00911   2
   0  -7   7 180.743 7.52321   1
  -1   7  -7 150.512 6.68570   3
   1  -7   7 141.969 6.11348   1
  -2   7  -7 51.5615 3.08274   3
   2  -7   7 48.7449 2.72028   1
  -3   7  -7 154.241 7.09913   3
   3  -7   7 152.837 6.51805   1
  -4   7  -7 11.0649 1.51398   3
   4  -7   7 6.65993 1.01578   1
  -5   7  -7 281.140 11.9244   3
   5  -7   7 270.630 11.0261   1
  -6   7  -7 144.766 7.11254   3
   6  -7   7 147.406 6.62861   1
  -7   7  -7 286.573 12.4630   3
   7  -7   7 284.315 11.7169   1
  -8   7  -7 174.474 8.42760   3
   8  -7   7 177.364 8.01950   1
  -9   7  -7 529.748 21.8134   3
   9  -7   7 531.489 20.7477   1
  11   6  -7 68.1371 4.29408   1
  10   6  -7 51.2749 3.50644   1
 -10  -6   7 55.8840 3.60017   2
   9   6  -7 8.90647 1.44365   1
  -9  -6   7 9.48576 1.54642   2
   8   6  -7 156.074 6.96631   1
  -8  -6   7 157.033 6.85182   2
   7   6  -7 270.893 11.1399   1
  -7  -6   7 290.031 10.9489   2
   6   6  -7 4.24126 0.89166   1
  -6  -6   7 7.07639 1.09760   2
   5   6  -7 701.076 25.5654   1
  -5  -6   7 694.072 24.7442   2
   4   6  -7 1.82288 0.61763   1
  -4  -6   7 1.21563 0.56315   2
   3   6  -7 18.4781 1.37391   3
  -3  -6   7 19.7091 1.49216   1
  -3  -6   7 15.0929 1.31138   2
   2   6  -7 4.17489 0.70211   3
  -2  -6   7 1.72694 0.55429   1
  -2  -6   7 1.53038 0.44827   2
   1   6  -7 151.218 6.73898   3
  -1  -6   7 158.457 5.86120   2
  -1  -6   7 158.553 6.38281   1
   0   6  -7 691.655 27.5637   3
   0   6  -7 773.647 24.6847   2
   0  -6   7 673.545 25.8821   1
  -1   6  -7 1312.17 49.1964   3
   1  -6   7 1271.09 46.1955   1
  -2   6  -7 224.864 9.60272   3
   2  -6   7 228.001 8.96722   1
  -3   6  -7 624.066 24.2127   3
   3  -6   7 604.133 22.6221   1
  -4   6  -7 61.3381 3.52360   3
   4  -6   7 57.6756 3.18324   1
  -5   6  -7 113.620 5.59126   3
   5  -6   7 108.314 5.15422   1
  -6   6  -7 3.77755 0.99960   3
   6  -6   7 1.38140 0.78721   1
  -7   6  -7 35.7421 2.93273   3
   7  -6   7 42.0542 2.94602   1
  -8   6  -7 51.8995 3.78528   3
   8  -6   7 71.3556 4.02315   1
  -9   6  -7 -1.1370 0.89204   3
   9  -6   7 1.81708 1.07033   1
  11   5  -7 286.248 12.2796   1
 -11  -5   7 301.731 12.0617   2
  10   5  -7 86.0885 4.68610   1
 -10  -5   7 85.4859 4.60012   2
   9   5  -7 265.921 11.0369   1
  -9  -5   7 270.247 10.7240   2
   8   5  -7 55.9833 3.26936   1
  -8  -5   7 53.4069 3.10943   2
   7   5  -7 1.63571 0.70941   1
  -7  -5   7 2.34728 0.74412   2
   6   5  -7 116.741 5.24001   1
  -6  -5   7 116.126 5.02255   2
   5   5  -7 59.2243 3.05082   1
  -5  -5   7 57.9906 2.87753   2
   4   5  -7 39.7055 2.07092   3
  -4  -5   7 40.1273 2.16016   2
   3   5  -7 87.5799 3.88291   3
  -3  -5   7 86.4572 3.63148   2
  -3  -5   7 85.0169 3.92734   1
   2   5  -7 1584.10 58.2560   3
  -2  -5   7 1531.47 52.9250   2
  -2  -5   7 1520.43 54.9963   1
   1   5  -7 1399.26 53.2104   3
  -1  -5   7 1411.57 50.1915   1
  -1  -5   7 1409.84 48.1518   2
   0   5  -7 598.520 24.2757   3
   0  -5   7 620.916 22.9065   1
   0  -5   7 662.293 21.6438   2
  -1   5  -7 1946.99 74.0227   3
   1  -5   7 1976.55 69.6212   1
  -2   5  -7 2136.51 79.1683   3
   2  -5   7 2057.01 74.3896   1
  -3   5  -7 7.32073 1.08210   3
   3  -5   7 7.36258 1.02604   1
  -4   5  -7 399.778 16.1591   3
   4  -5   7 397.150 15.1480   1
  -5   5  -7 8.18962 1.22541   3
   5  -5   7 7.48161 1.12287   1
  -6   5  -7 4.86939 1.08601   3
   6  -5   7 6.32660 1.11948   1
  -7   5  -7 31.4347 2.61544   3
   7  -5   7 32.7384 2.56660   1
  -8   5  -7 189.329 8.99025   3
   8  -5   7 200.326 8.71237   1
  -9   5  -7 466.654 20.6344   3
   9  -5   7 545.312 19.9762   1
  11   4  -7 27.8670 2.74373   1
 -11  -4   7 26.1820 2.56449   2
  10   4  -7 28.0708 2.56079   1
 -10  -4   7 31.2726 2.54400   2
   9   4  -7 186.553 8.13881   1
  -9  -4   7 187.312 7.85626   2
   8   4  -7 0.92312 0.72213   1
  -8  -4   7 1.81056 0.76379   2
   7   4  -7 18.2100 1.72751   1
  -7  -4   7 18.0902 1.58443   2
   6   4  -7 0.13357 0.48395   1
  -6  -4   7 -0.2119 0.43939   2
   5   4  -7 6.92788 0.98938   1
  -5  -4   7 5.34879 0.81153   2
   4   4  -7 142.596 5.52574   3
  -4  -4   7 123.919 5.24548   2
   3   4  -7 957.951 35.7926   3
  -3  -4   7 941.279 32.6787   2
  -3  -4   7 936.034 33.9899   1
   2   4  -7 1353.20 50.7484   3
  -2  -4   7 1293.10 47.9076   1
  -2  -4   7 1387.94 46.0999   2
   1   4  -7 1013.70 38.5471   3
  -1  -4   7 982.333 36.3455   1
  -1  -4   7 1047.83 34.7675   2
   0   4  -7 47.4932 2.65089   3
   0  -4   7 52.6590 1.93495   2
   0  -4   7 47.5359 2.50551   1
  -1   4  -7 568.745 22.5588   3
   1  -4   7 593.018 21.2567   1
  -2   4  -7 798.840 29.8767   3
   2  -4   7 747.312 27.9983   1
  -3   4  -7 17.5046 1.58712   3
   3  -4   7 15.4614 1.40421   1
  -4   4  -7 44.1409 2.82572   3
   4  -4   7 46.5228 2.65011   1
  -5   4  -7 662.617 26.6873   3
   5  -4   7 698.578 25.2011   1
  -6   4  -7 27.9369 2.26178   3
   6  -4   7 25.7351 2.16911   1
  -7   4  -7 75.2516 4.34455   3
   7  -4   7 76.4256 4.23006   1
  -8   4  -7 1.39259 0.86363   3
   8  -4   7 -0.1806 0.79615   1
  -9   4  -7 43.9471 3.32286   3
   9  -4   7 47.3502 3.53729   1
  11   3  -7 2.02854 1.16394   1
 -11  -3   7 3.48743 1.14921   2
  10   3  -7 3.04378 1.08479   1
 -10  -3   7 3.67974 1.08495   2
   9   3  -7 649.077 24.2347   1
  -9  -3   7 641.500 23.3764   2
   8   3  -7 91.4179 4.56985   1
  -8  -3   7 95.1246 4.47392   2
   7   3  -7 18.0823 1.66157   1
  -7  -3   7 18.3047 1.56471   2
   6   3  -7 208.407 8.29370   1
  -6  -3   7 201.034 7.94425   2
   5   3  -7 144.343 5.96601   1
  -5  -3   7 140.494 5.69710   2
   4   3  -7 189.451 7.19808   3
  -4  -3   7 170.800 6.84067   2
   3   3  -7 596.275 21.6794   3
  -3  -3   7 558.895 19.8363   2
  -3  -3   7 544.283 20.6686   1
   2   3  -7 567.501 21.3323   3
  -2  -3   7 529.783 20.2054   1
  -2  -3   7 559.295 19.3197   2
   1   3  -7 508.569 19.8326   3
  -1  -3   7 487.487 18.7073   1
  -1  -3   7 541.390 17.7569   2
   0   3  -7 53.3835 2.83905   3
   0  -3   7 50.7508 2.63480   1
   0  -3   7 60.4169 2.10421   2
  -1   3  -7 1076.37 40.9239   3
   1  -3   7 1072.91 38.4670   1
  -2   3  -7 1792.17 68.2922   3
   2  -3   7 1823.98 64.2182   1
  -3   3  -7 1.08486 0.56956   3
   3  -3   7 0.91594 0.53711   1
  -4   3  -7 1158.39 42.8798   3
   4  -3   7 1076.17 40.2308   1
  -5   3  -7 1046.31 38.9740   3
   5  -3   7 970.417 36.5696   1
  -6   3  -7 85.1969 4.57946   3
   6  -3   7 86.7711 4.36697   1
  -7   3  -7 170.605 8.03387   3
   7  -3   7 179.313 7.80460   1
  -8   3  -7 11.1446 1.64121   3
   8  -3   7 10.7097 1.63274   1
   9  -3   7 115.623 6.01880   1
  12   2  -7 83.4173 5.15395   1
 -12  -2   7 99.1730 5.09920   2
  11   2  -7 22.9772 2.54560   1
 -11  -2   7 24.2267 2.33365   2
  10   2  -7 29.9772 2.53098   1
 -10  -2   7 29.2047 2.41643   2
   9   2  -7 1278.88 46.0229   1
  -9  -2   7 1257.72 44.4818   2
   8   2  -7 532.287 20.5171   1
  -8  -2   7 562.938 19.9495   2
   7   2  -7 1.71879 0.64754   1
  -7  -2   7 0.37447 0.52789   2
  -6  -2   7 70.5720 3.38057   2
   5   2  -7 500.672 18.4897   1
  -5  -2   7 500.344 17.8628   2
   4   2  -7 205.287 7.92578   3
  -4  -2   7 199.661 7.60804   2
   3   2  -7 0.43140 0.32854   3
  -3  -2   7 1.44516 0.43722   2
  -3  -2   7 0.58754 0.41679   1
   2   2  -7 567.360 21.1583   3
  -2  -2   7 537.029 20.0360   1
  -2  -2   7 549.193 19.1799   2
   1   2  -7 22.6019 1.47633   3
  -1  -2   7 20.8391 1.08418   2
  -1  -2   7 20.6008 1.36333   1
   0   2  -7 16.6844 1.38681   3
   0  -2   7 17.9159 0.89053   2
   0  -2   7 15.6314 1.22926   1
  -1   2  -7 833.285 31.7572   3
   1  -2   7 821.104 29.7777   1
  -2   2  -7 773.275 29.4865   3
   2  -2   7 754.258 27.6220   1
  -3   2  -7 79.0521 3.85709   3
   3  -2   7 69.0407 3.44874   1
  -4   2  -7 1058.36 40.0702   3
   4  -2   7 1028.37 37.6353   1
  -5   2  -7 10.3983 1.43477   3
   5  -2   7 7.36190 1.09088   1
  -6   2  -7 151.103 6.94669   3
   6  -2   7 143.312 6.51293   1
  -7   2  -7 19.2048 2.15310   3
   7  -2   7 17.5491 1.95889   1
  -8   2  -7 689.799 27.1297   3
   8  -2   7 674.560 25.7310   1
   9  -2   7 9.30768 1.71597   1
  12   1  -7 43.5048 3.50920   1
 -12  -1   7 49.0992 3.37065   2
  11   1  -7 45.5225 3.30806   1
 -11  -1   7 45.7300 3.13636   2
  10   1  -7 1.40057 0.86791   1
 -10  -1   7 3.35688 0.99920   2
   9   1  -7 54.2845 3.26041   1
  -9  -1   7 52.6834 3.14673   2
   8   1  -7 394.940 15.1116   1
  -8  -1   7 388.925 14.6464   2
   7   1  -7 72.7458 3.62696   1
  -7  -1   7 70.0406 3.51946   2
   6   1  -7 554.339 20.4705   1
   5   1  -7 3904.88 136.674   1
  -5  -1   7 3849.82 132.245   2
   4   1  -7 114.523 4.63308   3
   4   1  -7 111.347 4.78616   1
  -4  -1   7 113.517 4.57304   2
   3   1  -7 581.595 21.9913   3
  -3  -1   7 579.023 20.9859   1
  -3  -1   7 571.656 20.1982   2
   2   1  -7 3184.18 125.976   3
  -2  -1   7 3412.82 119.538   1
  -2  -1   7 3520.72 116.111   2
   1   1  -7 33.6881 1.94521   3
  -1  -1   7 31.8700 1.78941   1
  -1  -1   7 36.6257 1.59283   2
   0   1  -7 151.838 6.26109   3
   0  -1   7 151.986 5.28590   2
   0  -1   7 132.923 5.74295   1
  -1   1  -7 156.990 6.55216   3
   1  -1   7 141.416 5.98399   1
   1  -1   7 151.473 5.38709   2
  -2   1  -7 86.5008 4.04989   3
   2  -1   7 79.4402 3.63456   1
   2  -1   7 79.5790 3.01396   2
  -3   1  -7 426.148 17.6229   3
   3  -1   7 462.951 16.5574   1
  -4   1  -7 34.9658 2.37688   3
   4  -1   7 30.6511 2.04372   1
   5  -1   7 31.7538 2.12978   1
  -6   1  -7 19.1698 1.89693   3
   6  -1   7 18.4299 1.78980   1
  -7   1  -7 878.687 34.3477   3
   7  -1   7 884.761 32.4899   1
  -8   1  -7 749.880 29.2001   3
   8  -1   7 729.192 27.6972   1
   9  -1   7 189.901 8.64283   1
  12   0  -7 4.28128 1.30505   1
 -12   0   7 1.58264 1.10545   2
  11   0  -7 13.5562 1.86978   1
 -11   0   7 19.8694 2.09417   2
  10   0  -7 18.3476 2.02389   1
 -10   0   7 13.6306 1.75300   2
   9   0  -7 13.7611 1.67224   1
  -9   0   7 13.2096 1.64853   2
   8   0  -7 614.645 23.1236   1
  -8   0   7 630.882 22.4756   2
   7   0  -7 826.626 30.1512   1
  -7   0   7 829.005 29.2685   2
   6   0  -7 774.948 27.7853   1
  -6   0   7 752.232 26.9017   2
   5   0  -7 2843.83 96.7791   3
   5   0  -7 2444.48 91.4907   1
  -5   0   7 2476.67 88.5945   2
   4   0  -7 66.3519 2.90992   3
   4   0  -7 64.4140 3.00778   1
  -4   0   7 61.3424 2.91604   2
   3   0  -7 1543.65 56.7341   3
  -3   0   7 1524.12 53.5593   1
  -3   0   7 1458.51 51.8088   2
   2   0  -7 459.890 17.6062   3
  -2   0   7 453.319 16.0127   2
  -2   0   7 451.579 16.5916   1
   1   0  -7 16.6710 1.24706   3
  -1   0   7 15.0648 1.00232   2
  -1   0   7 17.4808 1.15511   1
   0   0  -7 270.373 11.1677   3
   0   0   7 281.661 9.90401   2
   0   0   7 284.241 10.4498   1
  -1   0  -7 1329.76 50.6356   3
   1   0   7 1337.77 47.5169   1
   1   0   7 1341.72 45.7093   2
   2   0   7 45.8529 1.96423   2
   2   0   7 44.0977 2.31788   1
  -3   0  -7 42.5358 2.58270   3
   3   0   7 41.6459 2.30975   1
  -4   0  -7 366.585 14.5348   3
   4   0   7 348.665 13.5395   1
  -5   0  -7 28.7998 2.16345   3
   5   0   7 26.3578 1.96247   1
  -6   0  -7 5.65330 1.13101   3
   6   0   7 4.28179 0.94107   1
  -7   0  -7 135.047 6.34603   3
   7   0   7 121.234 5.90916   1
  -8   0  -7 117.888 6.10755   3
   8   0   7 120.395 5.86562   1
   9   0   7 0.56720 0.93323   1
  12  -1  -7 221.523 9.84587   1
 -12   1   7 224.049 9.56967   2
  11  -1  -7 4.48691 1.25033   1
 -11   1   7 3.64188 1.18099   2
  10  -1  -7 9.53882 1.51602   1
 -10   1   7 9.83092 1.49987   2
   9  -1  -7 629.244 24.1793   1
  -9   1   7 670.216 23.6222   2
   8  -1  -7 108.599 5.08238   1
  -8   1   7 110.478 5.04708   2
   7  -1  -7 414.191 15.6559   1
  -7   1   7 415.567 15.2852   2
   6  -1  -7 141.336 5.87738   1
  -6   1   7 138.583 5.78659   2
   5  -1  -7 18.0086 1.39146   1
   5  -1  -7 21.8193 1.31396   3
  -5   1   7 18.8713 1.46301   2
   4  -1  -7 801.172 30.0013   1
   4  -1  -7 872.374 31.7848   3
  -4   1   7 836.279 29.2399   2
   3  -1  -7 156.395 6.68999   3
  -3   1   7 167.993 6.27664   2
  -3   1   7 162.707 6.33923   1
   2  -1  -7 464.355 18.1988   3
  -2   1   7 467.103 16.5752   2
  -2   1   7 474.698 17.0391   1
   1  -1  -7 4.76322 0.74481   3
  -1   1   7 4.21358 0.60845   1
  -1   1   7 4.55655 0.62086   2
   0  -1  -7 2514.67 94.6746   3
   0   1   7 2562.60 88.8853   1
   0   1   7 2485.15 85.9893   2
  -1  -1  -7 2932.15 114.062   3
   1   1   7 3098.13 103.588   2
   1   1   7 3089.61 107.120   1
  -2  -1  -7 1049.40 43.1336   3
   2   1   7 1218.39 39.0068   2
   2   1   7 1126.63 40.3968   1
  -3  -1  -7 745.486 28.1774   3
   3   1   7 709.157 26.2237   1
   3   1   7 718.538 25.1760   2
  -4  -1  -7 15.5641 1.62306   3
   4   1   7 17.6422 1.43382   1
  -5  -1  -7 12.5084 1.57562   3
   5   1   7 14.2562 1.41953   1
  -6  -1  -7 3.39877 0.96524   3
   6   1   7 3.79287 0.91047   1
  -7  -1  -7 254.944 10.7589   3
   7   1   7 235.348 10.0176   1
  -8  -1  -7 28.2525 2.60411   3
   8   1   7 28.5991 2.44928   1
   9   1   7 53.1246 3.58611   1
  12  -2  -7 353.769 14.3495   1
 -12   2   7 345.449 13.9735   2
  11  -2  -7 2.72294 1.03791   1
 -11   2   7 4.76960 1.29410   2
  10  -2  -7 609.693 23.2059   1
 -10   2   7 621.210 22.6514   2
   9  -2  -7 34.7599 2.50356   1
  -9   2   7 36.4824 2.66234   2
   8  -2  -7 130.681 6.02141   1
  -8   2   7 146.965 6.14485   2
   7  -2  -7 123.028 5.33891   1
  -7   2   7 119.707 5.33998   2
   6  -2  -7 47.6232 2.55264   1
  -6   2   7 48.7681 2.72079   2
   5  -2  -7 71.0143 3.25010   3
   5  -2  -7 69.7761 3.20480   1
  -5   2   7 64.8340 3.29067   2
   4  -2  -7 86.5218 3.95733   3
   4  -2  -7 87.5369 3.74207   1
  -4   2   7 85.5260 3.83839   2
   3  -2  -7 2228.45 83.2346   3
   3  -2  -7 2207.82 78.1743   1
  -3   2   7 2209.23 75.9327   2
   2  -2  -7 247.133 10.1237   3
  -2   2   7 253.023 9.28618   1
  -2   2   7 245.627 9.22748   2
   1  -2  -7 36.3579 2.18523   3
  -1   2   7 35.5815 1.76633   1
  -1   2   7 33.3992 1.85372   2
   0   2   7 1108.99 38.9215   2
   0   2   7 1144.81 40.0402   1
  -1  -2  -7 1309.98 52.8354   3
   1   2   7 1419.07 47.9114   2
   1   2   7 1444.60 49.3924   1
  -2  -2  -7 25.9893 2.05216   3
   2   2   7 26.7294 1.63206   1
   2   2   7 26.4608 1.61656   2
  -3  -2  -7 25.6148 2.08814   3
   3   2   7 25.3734 1.59518   2
   3   2   7 28.2768 1.71596   1
  -4  -2  -7 35.7218 2.51406   3
   4   2   7 31.6485 2.00923   1
  -5  -2  -7 480.329 19.3515   3
   5   2   7 478.132 17.8979   1
  -6  -2  -7 50.7337 3.43329   3
   6   2   7 55.5780 3.04456   1
  -7  -2  -7 22.3110 2.33891   3
   7   2   7 25.3474 2.14010   1
  12  -3  -7 41.4433 3.20615   1
  11  -3  -7 18.0606 2.07546   1
 -11   3   7 15.8859 2.06977   2
  10  -3  -7 12.2539 1.61999   1
 -10   3   7 12.7267 1.76209   2
   9  -3  -7 279.000 11.0874   1
  -9   3   7 270.952 10.9542   2
   8  -3  -7 36.7506 2.38383   1
  -8   3   7 37.2752 2.54161   2
   7  -3  -7 1236.37 43.6551   1
  -7   3   7 1193.97 42.5945   2
   6  -3  -7 827.883 29.3960   1
  -6   3   7 796.074 28.8153   2
   5  -3  -7 54.4784 2.83760   3
   5  -3  -7 55.6698 2.65709   1
  -5   3   7 50.3709 2.86358   2
   4  -3  -7 90.8167 4.29920   3
   4  -3  -7 95.5893 3.93352   1
  -4   3   7 92.4584 4.16885   2
   3  -3  -7 78.2681 3.27016   1
   3  -3  -7 76.2115 3.75283   3
  -3   3   7 75.4296 3.54260   2
   2  -3  -7 751.607 29.2550   3
  -2   3   7 766.317 26.6844   2
   1  -3  -7 210.406 8.98428   3
  -1   3   7 204.950 8.09816   2
  -1   3   7 222.788 7.96606   1
   0  -3  -7 256.328 10.9336   3
   0   3   7 280.502 9.92282   1
   0   3   7 253.120 9.79413   2
  -1  -3  -7 82.0481 4.37982   3
   1   3   7 93.5862 3.89102   2
  -2  -3  -7 689.185 27.6709   3
   2   3   7 727.378 24.9690   2
  -3  -3  -7 766.512 29.9502   3
   3   3   7 766.294 26.9252   2
  -4  -3  -7 1759.05 66.9670   3
   4   3   7 1758.60 60.5805   2
  -5  -3  -7 41.3785 2.98688   3
  -6  -3  -7 281.166 12.1596   3
  -7  -3  -7 354.375 15.0025   3
 -11   4   7 44.6521 3.35979   2
 -10   4   7 658.975 24.2363   2
  -9   4   7 61.1037 3.69099   2
  -8   4   7 0.60550 0.78823   2
  -7   4   7 281.079 11.0520   2
   6  -4  -7 477.910 18.3028   3
  -6   4   7 450.175 17.1068   2
   5  -4  -7 61.9960 3.25882   3
  -5   4   7 61.5208 3.27344   2
   4  -4  -7 35.6646 2.25657   3
  -4   4   7 35.2217 2.26996   2
   3  -4  -7 159.130 7.04058   3
  -3   4   7 161.611 6.57302   2
   2  -4  -7 580.628 23.0246   3
  -2   4   7 594.291 21.0155   2
   1  -4  -7 144.515 6.61519   3
  -1   4   7 145.802 5.97887   2
   0  -4  -7 3.66224 0.91699   3
   0   4   7 2.92476 0.73687   2
  -1  -4  -7 204.415 8.70537   3
   1   4   7 188.452 7.66782   2
  -2  -4  -7 541.062 22.1935   3
   2   4   7 574.211 20.0334   2
  -3  -4  -7 10.4373 1.58973   3
   3   4   7 10.6665 1.25663   2
  -4  -4  -7 247.739 10.7413   3
   4   4   7 242.052 9.42748   2
  -5  -4  -7 16.6209 2.07084   3
  -6  -4  -7 103.651 5.62062   3
  -7  -4  -7 60.9323 4.01717   3
 -11   5   7 168.978 8.08502   2
 -10   5   7 80.1634 4.59114   2
  -9   5   7 184.315 8.08319   2
  -8   5   7 6.44106 1.33591   2
  -7   5   7 40.8434 2.87072   2
   6  -5  -7 82.8846 4.14646   3
  -6   5   7 76.1379 4.09139   2
   5  -5  -7 23.5216 1.87971   3
  -5   5   7 19.6091 1.91421   2
   4  -5  -7 222.913 9.47486   3
  -4   5   7 220.771 8.87325   2
   3  -5  -7 1025.16 39.9673   3
  -3   5   7 1056.40 36.6062   2
   2  -5  -7 119.565 5.69030   3
  -2   5   7 115.834 5.22137   2
   1  -5  -7 18.0864 1.88444   3
  -1   5   7 17.0394 1.69074   2
   0  -5  -7 1742.65 67.2659   3
   0   5   7 1794.14 61.1899   2
  -1  -5  -7 4.88856 1.14328   3
   1   5   7 3.30489 0.83725   2
  -2  -5  -7 174.990 8.09375   3
   2   5   7 173.597 7.14138   2
  -3  -5  -7 5.80417 1.24922   3
   3   5   7 6.14030 1.05350   2
  -4  -5  -7 6.94679 1.44960   3
   4   5   7 12.1401 1.42523   2
  -5  -5  -7 220.960 10.0714   3
  -6  -5  -7 41.3812 3.32449   3
  -7  -5  -7 389.468 16.5482   3
 -10   6   7 11.5854 1.81491   2
  -9   6   7 248.780 10.4709   2
  -8   6   7 10.8871 1.73016   2
  -7   6   7 157.241 7.07787   2
   6  -6  -7 216.480 9.41039   3
  -6   6   7 211.446 8.91761   2
   5  -6  -7 423.560 17.4441   3
  -5   6   7 441.898 16.3318   2
   4  -6  -7 605.629 23.9710   3
  -4   6   7 607.684 22.1201   2
   3  -6  -7 813.460 31.8978   3
  -3   6   7 822.862 29.2214   2
   2  -6  -7 73.2573 4.09372   3
  -2   6   7 71.5133 3.76990   2
   1  -6  -7 251.638 10.7546   3
  -1   6   7 242.406 9.74281   2
   0  -6  -7 44.1232 3.05902   3
   0   6   7 43.6721 2.75286   2
  -1  -6  -7 0.94286 0.79139   3
   1   6   7 3.73234 0.91663   2
  -2  -6  -7 10.0895 1.59468   3
   2   6   7 14.1721 1.59655   2
  -3  -6  -7 56.5216 3.77356   3
   3   6   7 55.1851 3.21276   2
  -4  -6  -7 52.6209 3.69214   3
   4   6   7 50.3132 3.09253   2
  -5  -6  -7 0.80505 1.02012   3
  -6  -6  -7 188.280 9.09622   3
  -9   7   7 27.6717 2.84438   2
  -8   7   7 2.29890 1.20121   2
  -7   7   7 248.986 10.3919   2
   6  -7  -7 228.470 10.1504   3
  -6   7   7 231.678 9.63703   2
   5  -7  -7 18.0169 1.95946   3
  -5   7   7 11.8374 1.68601   2
   4  -7  -7 138.482 6.75485   3
  -4   7   7 143.606 6.42312   2
   3  -7  -7 38.5126 2.87241   3
  -3   7   7 37.8770 2.67739   2
   2  -7  -7 102.241 5.39035   3
  -2   7   7 101.870 4.97752   2
   1  -7  -7 131.690 6.44841   3
  -1   7   7 124.828 5.82998   2
   0  -7  -7 781.597 30.0865   3
   0   7   7 733.611 27.2327   2
  -1  -7  -7 40.1386 3.10704   3
   1   7   7 32.4315 2.58727   2
  -2  -7  -7 968.166 37.5542   3
   2   7   7 942.449 34.0242   2
  -3  -7  -7 98.5622 5.61577   3
   3   7   7 96.5529 4.92068   2
  -4  -7  -7 13.1853 2.02794   3
   4   7   7 12.8893 1.75275   2
  -5  -7  -7 231.747 10.7785   3
  -8   8   7 75.9508 4.76958   2
  -7   8   7 46.3921 3.54004   2
   6  -8  -7 3.70141 1.23790   3
  -6   8   7 2.59637 1.25508   2
   5  -8  -7 146.488 7.24041   3
  -5   8   7 144.506 6.81582   2
   4  -8  -7 -0.0760 0.80161   3
  -4   8   7 -0.0139 0.89127   2
   3  -8  -7 27.0600 2.59085   3
  -3   8   7 28.4787 2.51589   2
   2  -8  -7 191.255 9.06854   3
  -2   8   7 198.052 8.39698   2
   1  -8  -7 492.021 20.4448   3
  -1   8   7 498.782 18.6185   2
   0  -8  -7 130.525 6.74665   3
   0   8   7 123.259 6.02201   2
  -1  -8  -7 10.9905 1.82361   3
   1   8   7 11.2423 1.69727   2
  -2  -8  -7 353.097 14.9223   3
   2   8   7 331.018 13.3980   2
  -3  -8  -7 195.484 9.34201   3
   3   8   7 189.397 8.36740   2
   4   8   7 30.6646 2.73179   2
   6  -9  -7 4.26132 1.38171   3
  -6   9   7 0.54115 1.38483   2
   5  -9  -7 278.645 12.5307   3
  -5   9   7 285.374 11.7645   2
   4  -9  -7 20.0408 2.61204   3
  -4   9   7 23.8674 2.49238   2
   3  -9  -7 -0.3469 0.89679   3
  -3   9   7 0.44397 0.87199   2
   2  -9  -7 210.967 9.87766   3
  -2   9   7 206.748 9.04846   2
   1  -9  -7 4.04415 1.41475   3
  -1   9   7 4.78834 1.31471   2
   0  -9  -7 136.080 7.24375   3
   0   9   7 139.170 6.60636   2
  -1  -9  -7 0.52528 1.10119   3
   1   9   7 -0.0323 0.84543   2
  -2 -13   8 32.0207 2.97867   3
  -1 -13   8 -0.1061 1.04688   3
   0 -13   8 92.5552 5.72295   3
   5  12  -8 15.7848 2.13165   2
   4  12  -8 66.4535 4.05742   2
  -2 -12   8 39.9882 3.19768   3
  -1 -12   8 204.878 9.59766   3
   0 -12   8 32.1783 3.01438   3
  -2  12  -8 22.4324 2.64366   3
  -3  12  -8 108.294 6.24283   3
  -6 -11   8 419.482 16.3639   2
   4  11  -8 24.8791 2.41741   2
   3  11  -8 1816.07 63.0973   2
  -2 -11   8 334.874 14.1903   3
  -1 -11   8 66.5017 4.20563   3
   0 -11   8 25.3587 2.65367   3
  -2  11  -8 3.26453 1.11332   3
  -3  11  -8 5.82515 1.51912   3
  -4  11  -8 0.05887 0.95440   3
  -5  11  -8 75.8051 4.96904   3
  -7 -10   8 140.053 6.75815   2
  -6 -10   8 341.006 13.4482   2
  -5 -10   8 105.973 5.15140   2
  -4 -10   8 751.294 27.0275   2
   3  10  -8 24.8191 2.13042   2
  -3 -10   8 22.8428 2.16704   3
  -2 -10   8 263.797 11.3245   3
  -1 -10   8 86.3873 4.75844   3
  -1  10  -8 534.974 21.7516   3
   1 -10   8 536.797 20.1628   1
  -2  10  -8 17.0115 2.10299   3
   2 -10   8 15.6753 1.73058   1
  -3  10  -8 178.129 8.40866   3
   3 -10   8 168.325 7.49197   1
  -4  10  -8 171.659 8.23844   3
   4 -10   8 162.890 7.31182   1
  -5  10  -8 98.5593 5.60984   3
   5 -10   8 94.4124 4.89676   1
  -6  10  -8 115.986 6.38961   3
   6 -10   8 109.038 5.53666   1
   7 -10   8 101.862 5.29733   1
  -8  -9   8 21.5294 2.34118   2
  -7  -9   8 108.545 5.44974   2
   6   9  -8 109.514 5.22492   1
  -6  -9   8 111.861 5.34576   2
   5   9  -8 64.3147 3.51564   1
  -5  -9   8 62.9420 3.55690   2
   4   9  -8 75.5955 3.81532   1
  -4  -9   8 74.6147 3.80325   2
  -3  -9   8 61.1036 3.09777   2
  -3  -9   8 60.3301 3.36920   3
  -3  -9   8 53.2230 3.15031   1
   2   9  -8 327.642 11.9969   2
  -2  -9   8 317.195 12.4696   1
  -2  -9   8 319.431 13.2966   3
  -1  -9   8 1267.87 45.6123   1
   0   9  -8 561.738 21.8724   3
   0  -9   8 528.950 20.2861   1
  -1   9  -8 405.906 17.1840   3
   1  -9   8 431.499 15.9763   1
  -2   9  -8 44.9337 3.19015   3
   2  -9   8 38.9613 2.67270   1
  -3   9  -8 167.646 8.14750   3
   3  -9   8 174.729 7.40353   1
  -4   9  -8 185.535 8.59258   3
   4  -9   8 173.771 7.73316   1
  -5   9  -8 536.607 21.7682   3
   5  -9   8 520.184 20.0741   1
  -6   9  -8 97.1595 5.56904   3
   6  -9   8 96.2365 4.96047   1
  -7   9  -8 1.50072 1.05324   3
   7  -9   8 0.25769 0.67051   1
   8  -9   8 10.5505 1.68779   1
  10   8  -8 152.963 7.24583   1
   9   8  -8 26.2140 2.47164   1
  -9  -8   8 27.2293 2.72349   2
   8   8  -8 54.3962 3.36869   1
  -8  -8   8 51.3586 3.49332   2
   7   8  -8 2.33334 0.92174   1
  -7  -8   8 2.10638 0.99319   2
   6   8  -8 468.696 18.1484   1
  -6  -8   8 488.957 17.8012   2
   5   8  -8 209.707 8.77532   1
  -5  -8   8 220.048 8.64521   2
   4   8  -8 211.447 8.68648   1
  -4  -8   8 214.088 8.39728   2
  -3  -8   8 3.47927 0.73075   2
  -3  -8   8 3.61836 0.86486   1
   2   8  -8 78.2362 3.96892   3
  -2  -8   8 78.8888 3.83016   1
  -2  -8   8 73.2802 3.41004   2
   1   8  -8 445.790 17.7655   3
  -1  -8   8 439.641 16.6666   1
   0   8  -8 1147.14 44.3661   3
   0  -8   8 1162.55 41.6301   1
  -1   8  -8 -0.4080 0.73012   3
   1  -8   8 0.27867 0.54653   1
  -2   8  -8 192.202 8.76175   3
   2  -8   8 196.767 8.07842   1
   3  -8   8 121.923 5.57642   1
  -4   8  -8 176.425 8.38965   3
   4  -8   8 180.334 7.66054   1
  -5   8  -8 13.8327 2.01094   3
   5  -8   8 13.3547 1.67322   1
  -6   8  -8 637.363 25.5751   3
   6  -8   8 628.140 23.8656   1
  -7   8  -8 2.68780 1.09278   3
   7  -8   8 3.68140 1.10261   1
  -8   8  -8 43.6337 3.38555   3
   8  -8   8 36.4197 3.15284   1
  10   7  -8 43.6874 3.26939   1
 -10  -7   8 45.9685 3.36204   2
   9   7  -8 96.0132 5.01291   1
  -9  -7   8 94.5152 5.02729   2
   8   7  -8 915.932 34.4490   1
  -8  -7   8 961.445 33.5769   2
   7   7  -8 297.934 11.9722   1
  -7  -7   8 301.239 11.6800   2
   6   7  -8 439.292 16.8913   1
  -6  -7   8 448.331 16.4336   2
   5   7  -8 50.9925 2.92850   1
  -5  -7   8 53.5087 2.92333   2
  -4  -7   8 368.399 13.5372   2
   3   7  -8 79.1937 3.90049   3
  -3  -7   8 81.2139 3.88893   1
  -3  -7   8 80.0665 3.57753   2
   2   7  -8 69.8195 3.56895   3
  -2  -7   8 70.1914 3.45673   1
  -2  -7   8 67.9505 3.07628   2
   1   7  -8 15.1629 1.49181   3
  -1  -7   8 16.9191 1.46099   1
  -1  -7   8 16.4070 1.13440   2
   0   7  -8 18.5673 1.69213   3
   0  -7   8 16.7182 1.50797   1
  -1   7  -8 1.14132 0.63743   3
   1  -7   8 0.04005 0.44143   1
  -2   7  -8 75.0986 4.11809   3
   2  -7   8 73.2035 3.73062   1
  -3   7  -8 3321.16 120.203   3
   3  -7   8 3052.47 112.805   1
  -4   7  -8 10.1919 1.56763   3
  -5   7  -8 130.941 6.47159   3
   5  -7   8 123.737 5.88603   1
  -6   7  -8 1370.77 53.2032   3
   6  -7   8 1386.49 49.9924   1
  -7   7  -8 168.274 8.26842   3
   7  -7   8 174.966 7.80469   1
  -8   7  -8 62.0436 4.22972   3
   8  -7   8 64.1768 4.04744   1
  -9   7  -8 26.5644 2.86303   3
  10   6  -8 15.0916 2.00291   1
 -10  -6   8 17.3070 2.13770   2
   9   6  -8 34.4346 2.68652   1
  -9  -6   8 35.3359 2.69325   2
   8   6  -8 432.141 16.9503   1
  -8  -6   8 445.242 16.4975   2
   7   6  -8 705.232 26.1497   1
  -7  -6   8 704.304 25.3203   2
   6   6  -8 4.12244 0.91010   1
  -6  -6   8 0.82589 0.65352   2
   5   6  -8 35.3426 2.33162   1
  -5  -6   8 35.1088 2.19552   2
   4   6  -8 228.805 9.21263   3
  -4  -6   8 224.058 9.05274   1
  -4  -6   8 226.572 8.63428   2
   3   6  -8 111.361 4.71961   3
  -3  -6   8 99.1650 4.64595   1
  -3  -6   8 99.5692 4.26040   2
   2   6  -8 69.1788 3.47509   3
  -2  -6   8 71.7003 3.02789   2
  -2  -6   8 70.0067 3.46058   1
   1   6  -8 1591.32 63.2403   3
  -1  -6   8 1781.91 57.2809   2
  -1  -6   8 1647.56 59.6440   1
   0   6  -8 34.0325 2.23244   3
   0  -6   8 32.9294 2.11136   1
  -1   6  -8 183.979 8.07561   3
   1  -6   8 184.199 7.52953   1
  -2   6  -8 26.6941 2.05773   3
   2  -6   8 22.8872 1.81529   1
  -3   6  -8 1124.00 41.2064   3
   3  -6   8 1008.82 38.5133   1
  -4   6  -8 1.16914 0.74154   3
   4  -6   8 0.81421 0.58936   1
  -5   6  -8 66.2049 3.96735   3
   5  -6   8 65.4689 3.63388   1
  -6   6  -8 512.564 21.8255   3
   6  -6   8 567.570 20.6440   1
  -7   6  -8 0.87184 0.99498   3
   7  -6   8 2.09511 0.94744   1
  -8   6  -8 2.00883 1.10807   3
   8  -6   8 2.20667 1.09010   1
  -9   6  -8 206.002 9.80051   3
  11   5  -8 118.103 6.26450   1
 -11  -5   8 128.907 6.24984   2
  10   5  -8 42.2890 3.16480   1
 -10  -5   8 39.9215 2.94370   2
   9   5  -8 6.69075 1.31966   1
  -9  -5   8 8.70204 1.42167   2
   8   5  -8 67.3973 3.77509   1
  -8  -5   8 66.4928 3.63752   2
   7   5  -8 3.67708 0.94363   1
  -7  -5   8 3.59594 0.89274   2
   6   5  -8 187.478 7.73050   1
  -6  -5   8 179.608 7.34142   2
   5   5  -8 622.926 22.8386   1
  -5  -5   8 612.055 21.9347   2
   4   5  -8 6678.62 238.366   3
  -4  -5   8 5810.20 216.280   2
  -4  -5   8 6539.49 225.349   1
   3   5  -8 555.223 20.6909   3
  -3  -5   8 498.089 19.7057   1
  -3  -5   8 548.293 18.8427   2
   2   5  -8 200.893 8.23580   3
  -2  -5   8 199.465 7.28664   2
  -2  -5   8 193.245 7.90542   1
   1   5  -8 1761.63 67.3750   3
  -1  -5   8 1827.42 60.9295   2
  -1  -5   8 1767.25 63.5039   1
   0   5  -8 929.867 36.8880   3
   0  -5   8 998.289 34.8130   1
  -1   5  -8 132.381 6.24365   3
   1  -5   8 145.577 5.91561   1
  -2   5  -8 25.0447 1.95655   3
   2  -5   8 25.6556 1.84530   1
  -3   5  -8 434.859 17.7369   3
   3  -5   8 446.268 16.6505   1
  -4   5  -8 74.6298 4.19979   3
   4  -5   8 79.4433 3.92400   1
  -5   5  -8 59.0392 3.65962   3
   5  -5   8 63.3160 3.48026   1
  -6   5  -8 318.035 13.5852   3
   6  -5   8 321.919 12.8505   1
  -7   5  -8 629.478 27.5851   3
   7  -5   8 763.177 26.3608   1
  -8   5  -8 607.802 24.9018   3
   8  -5   8 622.508 23.6165   1
  -9   5  -8 138.724 7.16943   3
   9  -5   8 141.608 7.07502   1
  11   4  -8 11.4212 1.83232   1
 -11  -4   8 12.8906 1.95085   2
  10   4  -8 23.3247 2.36833   1
 -10  -4   8 21.5490 2.23604   2
   9   4  -8 55.5571 3.52461   1
  -9  -4   8 59.3111 3.39696   2
   8   4  -8 11.1717 1.51572   1
  -8  -4   8 15.9995 1.62959   2
   7   4  -8 69.6652 3.75882   1
  -7  -4   8 73.1174 3.58595   2
   6   4  -8 119.252 5.39309   1
  -6  -4   8 120.068 5.10809   2
   5   4  -8 2.81182 0.71251   1
  -5  -4   8 2.62462 0.63510   2
   4   4  -8 1805.50 63.2896   3
  -4  -4   8 1631.95 59.9996   1
  -4  -4   8 1612.72 57.8300   2
   3   4  -8 536.730 19.6483   3
  -3  -4   8 489.960 17.8326   2
  -3  -4   8 494.618 18.7484   1
   2   4  -8 368.065 14.3019   3
  -2  -4   8 371.828 12.8134   2
  -2  -4   8 345.431 13.5966   1
   1   4  -8 71.9012 3.54511   3
  -1  -4   8 69.9644 3.40034   1
  -1  -4   8 74.1197 2.82749   2
   0   4  -8 47.4378 2.63514   3
   0  -4   8 43.3666 2.42908   1
  -1   4  -8 156.604 7.03891   3
   1  -4   8 164.727 6.62091   1
  -2   4  -8 218.279 9.40127   3
   2  -4   8 223.519 8.80030   1
  -3   4  -8 1240.75 48.1379   3
   3  -4   8 1277.10 45.2704   1
  -4   4  -8 175.956 7.91380   3
   4  -4   8 175.946 7.41687   1
  -5   4  -8 27.9851 2.35342   3
   5  -4   8 27.8749 2.18469   1
  -6   4  -8 85.0666 4.80681   3
   6  -4   8 89.0358 4.57244   1
  -7   4  -8 41.9593 3.10603   3
   7  -4   8 37.5482 2.91476   1
  -8   4  -8 23.2535 2.46373   3
   8  -4   8 24.7765 2.54007   1
  -9   4  -8 55.3839 3.85701   3
   9  -4   8 48.9558 3.67238   1
  11   3  -8 1176.38 42.8822   1
 -11  -3   8 1152.29 41.4175   2
  10   3  -8 -0.1421 0.82084   1
 -10  -3   8 -0.0684 0.73299   2
   9   3  -8 6.37059 1.29044   1
  -9  -3   8 4.01590 1.01756   2
   8   3  -8 245.693 9.90212   1
  -8  -3   8 234.583 9.49925   2
   7   3  -8 1.81626 0.67496   1
  -7  -3   8 1.49737 0.61696   2
   6   3  -8 10.8277 1.24802   1
  -6  -3   8 8.66661 1.10488   2
   5   3  -8 17.8875 1.49860   1
  -5  -3   8 17.5059 1.39170   2
   4   3  -8 179.597 6.95589   3
  -4  -3   8 163.220 6.57411   2
   3   3  -8 682.625 25.2867   3
  -3  -3   8 636.651 23.0151   2
  -3  -3   8 661.536 24.0836   1
   2   3  -8 23.9455 1.61315   3
  -2  -3   8 24.9591 1.32937   2
   1   3  -8 973.594 37.3333   3
  -1  -3   8 933.319 35.1670   1
  -1  -3   8 1030.14 33.6118   2
   0   3  -8 397.070 16.0926   3
   0  -3   8 439.852 14.0158   2
   0  -3   8 380.714 15.1103   1
  -1   3  -8 1518.30 58.1499   3
   1  -3   8 1550.10 54.6935   1
  -2   3  -8 766.792 29.3798   3
   2  -3   8 747.832 27.5318   1
  -3   3  -8 600.101 23.6408   3
   3  -3   8 600.496 22.1556   1
  -4   3  -8 28.5150 2.24478   3
   4  -3   8 29.3673 2.08644   1
  -5   3  -8 122.348 6.06018   3
   5  -3   8 128.398 5.74109   1
  -6   3  -8 9.14110 1.45718   3
   6  -3   8 15.5019 1.73534   1
  -7   3  -8 234.184 10.4451   3
   7  -3   8 233.249 9.90500   1
  -8   3  -8 241.916 11.1442   3
   8  -3   8 260.170 10.7735   1
  -9   3  -8 9.86064 1.91671   3
   9  -3   8 13.2878 1.94674   1
  11   2  -8 412.709 16.7629   1
 -11  -2   8 431.754 16.3157   2
  10   2  -8 113.885 5.66282   1
 -10  -2   8 112.399 5.45448   2
   9   2  -8 463.861 17.6235   1
  -9  -2   8 447.699 17.0013   2
   8   2  -8 8.65487 1.30133   1
  -8  -2   8 7.25391 1.18055   2
   7   2  -8 72.2167 3.74543   1
  -7  -2   8 74.7815 3.63874   2
   6   2  -8 186.287 7.66764   1
  -6  -2   8 185.915 7.39301   2
   5   2  -8 828.065 30.3912   1
  -5  -2   8 847.729 29.3494   2
   4   2  -8 590.795 22.3869   3
  -4  -2   8 574.988 20.7225   2
  -4  -2   8 599.975 21.5950   1
   3   2  -8 701.986 26.8691   3
  -3  -2   8 704.319 24.5496   2
  -3  -2   8 706.822 25.5929   1
   2   2  -8 667.821 25.8598   3
  -2  -2   8 676.702 23.4059   2
  -2  -2   8 679.353 24.4977   1
   1   2  -8 72.7447 3.64371   3
  -1  -2   8 80.9657 3.05173   2
  -1  -2   8 77.4150 3.51192   1
   0   2  -8 284.360 11.5210   3
   0  -2   8 297.146 9.94393   2
   0  -2   8 270.024 10.7797   1
  -1   2  -8 677.230 26.7552   3
   1  -2   8 705.476 25.1529   1
  -2   2  -8 486.952 18.7480   3
   2  -2   8 457.326 17.4897   1
  -3   2  -8 106.960 5.36015   3
   3  -2   8 119.519 5.04430   1
  -4   2  -8 0.86878 0.65843   3
   4  -2   8 1.26732 0.58371   1
  -5   2  -8 242.455 10.5883   3
   5  -2   8 247.304 9.91351   1
   6  -2   8 979.698 35.8569   1
  -7   2  -8 0.71641 0.86808   3
   7  -2   8 0.57875 0.78272   1
  -8   2  -8 249.903 11.0553   3
   8  -2   8 245.968 10.5453   1
   9  -2   8 113.665 5.97360   1
  12   1  -8 1.45985 1.11588   1
 -12  -1   8 1.88100 1.13696   2
  11   1  -8 42.3311 3.17736   1
 -11  -1   8 44.5447 3.12433   2
  10   1  -8 22.4710 2.25149   1
 -10  -1   8 23.8173 2.21086   2
   9   1  -8 191.501 8.12269   1
  -9  -1   8 182.792 7.85341   2
   8   1  -8 409.426 15.7998   1
  -8  -1   8 414.047 15.3601   2
   7   1  -8 213.531 8.71717   1
   6   1  -8 2898.02 105.345   1
  -6  -1   8 3057.98 102.015   2
   5   1  -8 11.0977 1.20835   1
  -5  -1   8 9.45916 1.14188   2
   4   1  -8 1416.62 53.5371   3
  -4  -1   8 1437.04 49.0887   2
  -4  -1   8 1421.98 50.8130   1
   3   1  -8 393.419 15.3162   3
  -3  -1   8 398.028 14.0723   2
  -3  -1   8 393.243 14.6799   1
  -2  -1   8 5.58605 0.66276   2
  -2  -1   8 7.90737 0.86578   1
   1   1  -8 205.380 8.74049   3
  -1  -1   8 209.966 8.23840   1
  -1  -1   8 222.761 7.72280   2
   0   1  -8 43.9103 2.56921   3
   0  -1   8 45.8035 1.93614   2
   0  -1   8 45.7112 2.35706   1
   1  -1   8 41.8867 1.76497   2
   1  -1   8 43.6606 2.28805   1
  -2   1  -8 173.933 7.70128   3
   2  -1   8 178.477 7.11424   1
   3  -1   8 47.8934 2.62263   1
  -4   1  -8 79.3615 4.24621   3
   4  -1   8 80.0350 3.88232   1
  -5   1  -8 1563.00 61.6858   3
   5  -1   8 1675.35 58.0598   1
  -6   1  -8 52.6394 3.37688   3
   6  -1   8 46.8431 3.02391   1
  -7   1  -8 2.72826 0.98679   3
   7  -1   8 -0.4136 0.69457   1
  -8   1  -8 576.714 22.4572   3
   8  -1   8 527.181 21.1245   1
   9  -1   8 6.99589 1.52514   1
  12   0  -8 19.7206 2.41521   1
 -12   0   8 17.5865 2.22060   2
  11   0  -8 2.55542 1.11852   1
 -11   0   8 3.88264 1.22299   2
  10   0  -8 7.06218 1.36865   1
 -10   0   8 2.98445 1.07696   2
   9   0  -8 828.370 30.7631   1
  -9   0   8 839.734 29.8899   2
   8   0  -8 89.8569 4.36574   1
  -8   0   8 84.8939 4.26506   2
   7   0  -8 518.755 19.1857   1
  -7   0   8 506.958 18.6220   2
   6   0  -8 553.563 20.3351   1
  -6   0   8 545.309 19.7072   2
   5   0  -8 1176.41 42.7791   1
   5   0  -8 1196.40 45.0000   3
  -5   0   8 1211.50 41.4761   2
   4   0  -8 189.985 7.69602   1
   4   0  -8 198.917 7.89665   3
  -4   0   8 196.535 7.46897   2
   3   0  -8 114.596 4.94292   3
  -3   0   8 114.105 4.61663   2
  -3   0   8 113.891 4.77841   1
   2   0  -8 3.07343 0.59299   3
  -2   0   8 1.38951 0.46312   1
  -2   0   8 2.45935 0.50829   2
   1   0  -8 546.972 21.5327   3
  -1   0   8 550.598 20.1980   1
  -1   0   8 568.963 19.4174   2
   0   0  -8 89.0966 4.37856   3
   0   0   8 96.2995 3.71437   2
   0   0   8 96.4168 4.07005   1
  -1   0  -8 219.672 9.37726   3
   1   0   8 226.618 8.09943   2
   1   0   8 227.365 8.71458   1
  -2   0  -8 236.869 10.1341   3
   2   0   8 248.008 9.42111   1
  -3   0  -8 372.296 15.3600   3
   3   0   8 387.530 14.3278   1
  -4   0  -8 190.373 8.61467   3
   4   0   8 203.323 8.04102   1
  -5   0  -8 121.717 5.85562   3
   5   0   8 114.478 5.30643   1
  -6   0  -8 2.42216 1.01952   3
   6   0   8 3.90263 0.97423   1
  -7   0  -8 0.87886 0.86148   3
   7   0   8 0.12762 0.66223   1
  -8   0  -8 21.9825 2.42959   3
   8   0   8 25.0161 2.33794   1
   9   0   8 31.0254 2.78843   1
  12  -1  -8 105.023 5.62843   1
  11  -1  -8 19.1955 2.22186   1
 -11   1   8 19.4060 2.23172   2
  10  -1  -8 140.696 6.54291   1
 -10   1   8 140.347 6.49828   2
   9  -1  -8 2.71697 0.89540   1
  -9   1   8 2.14933 0.92969   2
   8  -1  -8 851.350 31.4145   1
  -8   1   8 866.672 30.5849   2
   7  -1  -8 12.7802 1.36203   1
  -7   1   8 13.4899 1.50991   2
   6  -1  -8 249.445 9.90576   1
  -6   1   8 258.018 9.75595   2
   5  -1  -8 20.8401 1.55125   1
   5  -1  -8 21.2796 1.45295   3
  -5   1   8 21.3701 1.66347   2
   4  -1  -8 118.463 4.94443   1
   4  -1  -8 116.708 5.11297   3
  -4   1   8 119.960 4.96078   2
   3  -1  -8 103.546 4.63232   3
  -3   1   8 102.751 4.38416   1
  -3   1   8 104.518 4.33176   2
   2  -1  -8 3835.09 144.470   3
  -2   1   8 3869.14 131.220   2
  -2   1   8 3847.91 135.496   1
   1  -1  -8 77.9550 3.78477   3
  -1   1   8 76.1223 3.33917   1
  -1   1   8 74.2947 3.25278   2
   0  -1  -8 68.4983 3.41926   3
   0   1   8 64.1174 2.96772   1
   0   1   8 60.1613 2.78200   2
  -1  -1  -8 2897.13 112.171   3
   1   1   8 3008.14 105.293   1
   1   1   8 3049.13 101.789   2
  -2  -1  -8 16.8105 1.69223   3
   2   1   8 16.8011 1.19991   2
   2   1   8 17.8378 1.37582   1
  -3  -1  -8 34.9384 2.55490   3
   3   1   8 39.2418 2.21269   1
  -4  -1  -8 1.74542 0.76620   3
   4   1   8 1.13379 0.51827   1
  -5  -1  -8 258.930 11.5754   3
   5   1   8 282.170 10.7404   1
  -6  -1  -8 48.2656 3.33126   3
   6   1   8 52.0183 3.03800   1
  -7  -1  -8 188.027 8.87951   3
   7   1   8 196.612 8.30306   1
  -8  -1  -8 308.568 13.3637   3
   8   1   8 302.243 12.4295   1
   9   1   8 217.816 9.59217   1
  12  -2  -8 386.016 15.6011   1
  11  -2  -8 8.06591 1.52310   1
 -11   2   8 6.29104 1.40144   2
  10  -2  -8 15.3616 1.84352   1
 -10   2   8 13.7295 1.85744   2
   9  -2  -8 177.251 7.70369   1
  -9   2   8 181.728 7.73274   2
   8  -2  -8 70.3149 3.65575   1
  -8   2   8 67.5771 3.71127   2
   7  -2  -8 86.5618 4.09235   1
  -7   2   8 82.5848 4.14268   2
   6  -2  -8 0.75870 0.54120   1
  -6   2   8 1.85415 0.75452   2
   5  -2  -8 1593.02 58.4817   3
   5  -2  -8 1517.08 55.1348   1
  -5   2   8 1539.48 53.6876   2
   4  -2  -8 73.9622 3.39942   1
   4  -2  -8 78.0277 3.69904   3
  -4   2   8 76.4716 3.56788   2
   3  -2  -8 386.870 15.4033   3
  -3   2   8 391.698 14.1604   2
   2  -2  -8 1079.88 41.1505   3
  -2   2   8 1055.51 37.4505   2
  -2   2   8 1101.37 38.4505   1
   1  -2  -8 478.177 19.2574   3
  -1   2   8 503.299 17.7824   1
  -1   2   8 483.988 17.4028   2
   0  -2  -8 397.299 15.7885   3
   0   2   8 386.196 14.0937   2
   0   2   8 391.991 14.3894   1
   1   2   8 8.74368 0.95240   1
   1   2   8 8.65410 0.96297   2
   2   2   8 88.5359 3.86139   1
   2   2   8 84.6012 3.71902   2
   3   2   8 109.717 4.75868   1
  -4  -2  -8 963.173 37.3037   3
   4   2   8 955.259 34.6505   1
  -5  -2  -8 18.1699 2.12621   3
   5   2   8 17.3992 1.69862   1
  -6  -2  -8 250.940 11.1465   3
  -7  -2  -8 385.029 16.2843   3
  12  -3  -8 2.97367 1.13893   1
  11  -3  -8 6.62067 1.36402   1
 -11   3   8 4.39261 1.39632   2
  10  -3  -8 138.090 6.38260   1
 -10   3   8 135.056 6.46459   2
   9  -3  -8 384.910 15.2809   1
  -9   3   8 407.278 15.2269   2
   8  -3  -8 53.3971 3.09180   1
  -8   3   8 59.6401 3.38343   2
   7  -3  -8 29.5801 2.01834   1
  -7   3   8 29.0826 2.25012   2
   6  -3  -8 312.483 11.7844   1
  -6   3   8 303.912 11.8242   2
   5  -3  -8 4.79104 0.84081   3
   5  -3  -8 5.59843 0.82840   1
  -5   3   8 6.21749 1.03689   2
   4  -3  -8 160.552 7.15534   3
   4  -3  -8 172.395 6.60051   1
  -4   3   8 167.258 6.79289   2
   3  -3  -8 483.146 19.2983   3
   3  -3  -8 505.309 18.0309   1
  -3   3   8 482.116 17.7050   2
   2  -3  -8 191.324 8.29606   3
  -2   3   8 192.589 7.52582   2
   1  -3  -8 103.315 5.04777   3
  -1   3   8 105.544 4.51119   2
   0  -3  -8 706.610 27.4676   3
   0   3   8 698.700 24.7907   2
  -1  -3  -8 1239.33 46.1555   3
   1   3   8 1164.08 41.6753   2
  -2  -3  -8 45.8524 3.09038   3
   2   3   8 47.3384 2.52910   2
  -3  -3  -8 752.932 29.7467   3
   3   3   8 759.371 26.7080   2
  -4  -3  -8 43.1443 3.13328   3
  -5  -3  -8 574.241 23.1924   3
  -6  -3  -8 9.37197 1.64091   3
  -7  -3  -8 50.0885 3.63531   3
 -11   4   8 40.7226 3.33244   2
 -10   4   8 99.1068 5.21367   2
  -9   4   8 958.230 34.3641   2
  -8   4   8 9.03870 1.46394   2
  -7   4   8 138.754 6.27828   2
  -6   4   8 5.83429 1.15825   2
   5  -4  -8 23.4427 1.83504   3
  -5   4   8 21.6516 1.90393   2
   4  -4  -8 0.33434 0.50061   3
  -4   4   8 -1.2593 0.54168   2
   3  -4  -8 172.909 7.58325   3
  -3   4   8 170.748 7.04411   2
   2  -4  -8 169.902 7.85893   3
  -2   4   8 186.565 7.26278   2
   1  -4  -8 260.741 11.2184   3
  -1   4   8 269.343 10.1672   2
   0  -4  -8 670.993 25.7861   3
   0   4   8 631.873 23.2005   2
  -1  -4  -8 189.073 8.23812   3
   1   4   8 169.843 7.16334   2
  -2  -4  -8 846.722 33.1680   3
   2   4   8 846.589 29.8716   2
  -3  -4  -8 130.083 6.28240   3
   3   4   8 115.773 5.26304   2
  -4  -4  -8 285.840 12.4571   3
  -5  -4  -8 165.535 8.05458   3
  -6  -4  -8 65.9704 4.30570   3
  -7  -4  -8 54.7721 4.00938   3
 -10   5   8 82.0130 4.74580   2
  -9   5   8 41.4122 3.17586   2
  -8   5   8 19.6306 2.26052   2
  -7   5   8 549.162 20.4086   2
   6  -5  -8 1001.90 38.1839   3
  -6   5   8 982.618 35.2853   2
   5  -5  -8 463.751 18.7925   3
  -5   5   8 478.993 17.5576   2
   4  -5  -8 489.333 19.7537   3
  -4   5   8 502.629 18.3228   2
   3  -5  -8 390.050 15.8973   3
  -3   5   8 389.902 14.6236   2
   2  -5  -8 599.909 23.9954   3
  -2   5   8 611.481 21.8915   2
   1  -5  -8 352.084 14.6007   3
  -1   5   8 349.451 13.2243   2
   0  -5  -8 2.24401 0.92425   3
   0   5   8 4.46219 0.94674   2
  -1  -5  -8 126.318 6.15027   3
   1   5   8 114.127 5.29431   2
  -2  -5  -8 42.4967 3.10319   3
   2   5   8 38.9155 2.51179   2
  -3  -5  -8 149.589 7.32951   3
   3   5   8 144.324 6.28284   2
  -4  -5  -8 106.500 5.92482   3
  -5  -5  -8 117.491 6.37216   3
  -6  -5  -8 22.0086 2.76390   3
  -9   6   8 0.31037 1.01560   2
  -8   6   8 34.7701 2.93035   2
  -7   6   8 915.910 33.0013   2
   6  -6  -8 557.793 22.2218   3
  -6   6   8 556.370 20.6987   2
   5  -6  -8 417.253 17.1438   3
  -5   6   8 426.448 16.0554   2
   4  -6  -8 333.456 14.0374   3
  -4   6   8 339.797 13.0698   2
   3  -6  -8 154.519 7.20691   3
  -3   6   8 152.072 6.69969   2
   2  -6  -8 19.8637 2.07171   3
  -2   6   8 19.5196 1.85135   2
   1  -6  -8 8.91176 1.41381   3
  -1   6   8 12.4846 1.55289   2
   0  -6  -8 18.3466 2.07755   3
   0   6   8 16.5983 1.73618   2
  -1  -6  -8 67.2714 4.12421   3
   1   6   8 59.7332 3.47016   2
  -2  -6  -8 57.9572 4.05517   3
   2   6   8 63.5297 3.46563   2
  -3  -6  -8 29.5312 2.87202   3
   3   6   8 29.6860 2.34116   2
  -4  -6  -8 121.522 6.60404   3
  -5  -6  -8 153.391 7.88806   3
  -8   7   8 135.049 6.74246   2
  -7   7   8 71.0303 4.38180   2
   6  -7  -8 207.137 9.45750   3
  -6   7   8 211.730 9.06052   2
   5  -7  -8 39.5595 2.92408   3
  -5   7   8 37.7333 2.94442   2
   4  -7  -8 253.024 11.3026   3
  -4   7   8 268.188 10.6965   2
   3  -7  -8 115.519 5.97641   3
  -3   7   8 114.981 5.58574   2
   2  -7  -8 78.0019 4.66278   3
  -2   7   8 80.2787 4.29079   2
   1  -7  -8 245.741 10.8044   3
  -1   7   8 232.872 9.78912   2
   0  -7  -8 1150.11 45.1262   3
   0   7   8 1167.50 41.0264   2
  -1  -7  -8 53.5776 3.81153   3
   1   7   8 51.6385 3.33272   2
  -2  -7  -8 59.1367 4.07445   3
   2   7   8 54.7039 3.45494   2
  -3  -7  -8 116.916 6.31989   3
   3   7   8 105.902 5.37816   2
  -4  -7  -8 18.8028 2.67931   3
  -7   8   8 162.092 8.12022   2
   6  -8  -8 216.180 9.97389   3
  -6   8   8 217.915 9.49984   2
   5  -8  -8 112.879 6.02773   3
  -5   8   8 112.025 5.86014   2
   4  -8  -8 105.744 5.85492   3
  -4   8   8 112.313 5.68187   2
   3  -8  -8 286.571 12.5656   3
  -3   8   8 283.144 11.5966   2
   2  -8  -8 7.31562 1.56848   3
  -2   8   8 6.67520 1.41373   2
   1  -8  -8 73.9884 4.73819   3
  -1   8   8 75.3702 4.32393   2
   0  -8  -8 840.691 32.8655   3
   0   8   8 803.710 29.7609   2
  -1  -8  -8 37.6480 3.36625   3
   1   8   8 37.8797 2.96759   2
   2   8   8 127.132 6.16247   2
   3   8   8 179.567 8.01336   2
   6  -9  -8 24.2668 2.70297   3
   5  -9  -8 81.4825 5.13849   3
   4  -9  -8 7.76959 1.66138   3
   3  -9  -8 180.962 8.84188   3
  -3   9   8 181.014 8.32155   2
   2  -9  -8 26.4811 3.22877   3
  -2   9   8 26.6334 2.63693   2
  -1   9   8 2.28198 1.16891   2
   0  12  -9 22.6011 2.59613   3
  -1  12  -9 4.32672 1.43733   3
  -2  12  -9 61.2156 4.39062   3
  -3  12  -9 12.4960 2.36879   3
  -6 -11   9 386.234 15.1548   2
   1  11  -9 377.891 15.9130   3
   0  11  -9 0.08187 0.71718   3
  -1  11  -9 26.2392 2.66438   3
  -2  11  -9 77.8758 4.86190   3
  -3  11  -9 45.9044 3.58463   3
  -4  11  -9 882.908 35.2448   3
  -7 -10   9 4.12627 1.25988   2
  -6 -10   9 202.538 8.70551   2
  -5 -10   9 48.9387 3.15448   2
  -4 -10   9 165.041 7.06148   2
   2  10  -9 222.493 9.93979   3
  -2 -10   9 229.143 9.32643   1
   1  10  -9 143.077 7.01349   3
  -1 -10   9 149.700 6.53205   1
   0  10  -9 700.784 27.7824   3
   0 -10   9 694.372 25.8779   1
  -1  10  -9 52.4693 3.50848   3
   1 -10   9 43.1597 2.93306   1
  -2  10  -9 58.2942 3.86645   3
   2 -10   9 52.7045 3.28683   1
  -3  10  -9 3.25309 1.11936   3
   3 -10   9 1.84140 0.86373   1
  -4  10  -9 10.9911 1.79987   3
   4 -10   9 9.86887 1.49779   1
  -5  10  -9 0.14789 1.05129   3
   5 -10   9 0.03368 0.81586   1
  -6  10  -9 37.8997 3.45640   3
   6 -10   9 42.1851 3.08048   1
   8   9  -9 29.0049 2.50659   1
  -8  -9   9 29.6222 2.72422   2
   7   9  -9 -0.1466 0.75343   1
  -7  -9   9 0.42133 0.83495   2
   6   9  -9 22.8328 2.19305   1
  -6  -9   9 25.6506 2.20700   2
   5   9  -9 8.09744 1.29689   1
  -5  -9   9 6.45423 1.18458   2
   4   9  -9 78.1816 4.06325   1
  -4  -9   9 75.3285 3.83561   2
   3   9  -9 1787.94 69.2361   3
  -3  -9   9 1800.96 65.3215   1
  -3  -9   9 1888.96 63.3398   2
   2   9  -9 361.209 15.1431   3
  -2  -9   9 377.438 14.3417   1
   1   9  -9 40.5756 2.89974   3
  -1  -9   9 39.0841 2.63556   1
   0   9  -9 158.318 7.40353   3
   0  -9   9 153.739 6.78045   1
  -1   9  -9 704.118 28.2818   3
   1  -9   9 724.982 26.4436   1
  -2   9  -9 30.5484 2.63837   3
   2  -9   9 31.7555 2.33617   1
  -3   9  -9 4.06674 1.21107   3
   3  -9   9 4.76571 1.04268   1
  -4   9  -9 98.7043 5.43902   3
   4  -9   9 85.4603 4.68303   1
  -5   9  -9 192.795 9.24017   3
   5  -9   9 190.843 8.36879   1
  -6   9  -9 29.0079 2.89301   3
   6  -9   9 28.7515 2.52117   1
  -7   9  -9 47.8486 3.67948   3
   7  -9   9 38.8684 3.16882   1
   9   8  -9 22.6408 2.52316   1
  -9  -8   9 29.1242 2.74044   2
   8   8  -9 88.2721 4.82769   1
  -8  -8   9 97.2101 4.97354   2
   7   8  -9 219.457 9.39449   1
  -7  -8   9 226.755 9.24626   2
   6   8  -9 189.231 8.20131   1
  -6  -8   9 194.812 8.01647   2
   5   8  -9 1.26427 0.73448   1
  -5  -8   9 0.74939 0.66473   2
  -4  -8   9 52.5150 2.84538   2
   3   8  -9 226.686 9.55339   3
  -3  -8   9 224.618 9.23374   1
  -3  -8   9 226.276 8.67584   2
   2   8  -9 541.250 21.4620   3
  -2  -8   9 545.014 20.3338   1
   1   8  -9 239.990 9.98137   3
  -1  -8   9 223.309 9.35461   1
   0   8  -9 150.987 7.16262   3
   0  -8   9 160.849 6.77313   1
  -1   8  -9 66.9249 3.95999   3
   1  -8   9 69.3425 3.64832   1
  -2   8  -9 0.45712 0.78751   3
   2  -8   9 3.62991 0.93571   1
  -3   8  -9 40.2494 3.11367   3
   3  -8   9 36.7183 2.62953   1
  -4   8  -9 230.493 10.5656   3
   4  -8   9 237.171 9.75289   1
  -5   8  -9 57.0010 3.91098   3
   5  -8   9 51.5188 3.44580   1
  -6   8  -9 62.6830 4.19955   3
   6  -8   9 59.0976 3.72852   1
  -7   8  -9 35.7508 3.13842   3
   7  -8   9 36.8968 2.93497   1
  -8   8  -9 16.6181 2.54752   3
  10   7  -9 634.093 24.3382   1
 -10  -7   9 638.235 23.8054   2
   9   7  -9 172.861 7.92336   1
  -9  -7   9 175.831 7.76776   2
   8   7  -9 23.9919 2.31526   1
  -8  -7   9 26.7709 2.38101   2
   7   7  -9 171.767 7.45216   1
  -7  -7   9 164.032 7.16521   2
   6   7  -9 213.278 8.94433   1
  -6  -7   9 214.740 8.60615   2
   5   7  -9 129.821 5.85994   1
  -5  -7   9 128.970 5.55033   2
  -4  -7   9 25.4266 1.76889   2
  -4  -7   9 24.3397 1.92043   1
   3   7  -9 0.61803 0.48380   3
  -3  -7   9 -0.0296 0.49218   1
  -3  -7   9 0.55078 0.43991   2
   2   7  -9 23.0183 1.74762   3
  -2  -7   9 19.1337 1.69560   1
   1   7  -9 18.7732 1.73661   3
  -1  -7   9 22.8998 1.81643   1
   0   7  -9 4.17923 1.00791   3
   0  -7   9 3.09917 0.84511   1
  -1   7  -9 1799.87 71.1897   3
   1  -7   9 1950.43 67.0196   1
  -2   7  -9 585.512 22.6540   3
   2  -7   9 544.590 21.1012   1
  -3   7  -9 224.800 10.0806   3
   3  -7   9 228.695 9.36787   1
  -4   7  -9 273.591 11.7024   3
   4  -7   9 259.089 10.7896   1
  -5   7  -9 11.3832 1.72715   3
   5  -7   9 9.14353 1.47726   1
  -6   7  -9 3.21288 1.28995   3
   6  -7   9 3.04403 1.00599   1
  -7   7  -9 106.428 5.97984   3
   7  -7   9 109.071 5.62165   1
  -8   7  -9 45.1623 3.65855   3
   8  -7   9 51.1492 3.59934   1
  10   6  -9 126.825 6.51907   1
 -10  -6   9 139.168 6.50803   2
   9   6  -9 255.132 10.8153   1
  -9  -6   9 261.488 10.5641   2
   8   6  -9 250.051 10.2454   1
  -8  -6   9 237.558 9.81088   2
   7   6  -9 47.3851 3.03647   1
  -7  -6   9 45.7881 2.86931   2
   6   6  -9 41.7003 2.77169   1
  -6  -6   9 42.0228 2.62936   2
   5   6  -9 41.2826 2.63753   1
  -5  -6   9 41.5449 2.44081   2
  -4  -6   9 57.6305 2.83408   2
  -4  -6   9 55.7465 3.13630   1
   3   6  -9 21.7781 1.62496   3
  -3  -6   9 21.3561 1.76718   1
  -3  -6   9 21.5219 1.43924   2
   2   6  -9 114.042 5.23944   3
  -2  -6   9 117.336 4.50709   2
  -2  -6   9 110.052 5.07925   1
   1   6  -9 215.738 9.12982   3
  -1  -6   9 214.242 8.67631   1
   0  -6   9 7.59952 1.04661   1
  -1   6  -9 2.91824 0.80624   3
   1  -6   9 1.76486 0.62765   1
  -2   6  -9 1.04141 0.69507   3
   2  -6   9 -0.0021 0.52809   1
  -3   6  -9 247.213 10.9191   3
   3  -6   9 254.471 10.1565   1
  -4   6  -9 108.111 5.62794   3
   4  -6   9 107.639 5.18324   1
  -5   6  -9 169.702 8.10901   3
   5  -6   9 171.734 7.58123   1
  -6   6  -9 135.742 7.18673   3
   6  -6   9 148.233 6.74129   1
  -7   6  -9 257.799 11.5655   3
   7  -6   9 254.685 10.9039   1
  -8   6  -9 235.348 11.4581   3
   8  -6   9 271.622 11.1052   1
  -9   6  -9 322.289 14.6408   3
  11   5  -9 30.5856 2.90149   1
 -11  -5   9 30.2183 2.91816   2
  10   5  -9 408.170 16.4826   1
 -10  -5   9 421.126 15.9824   2
   9   5  -9 3.19648 1.06769   1
  -9  -5   9 3.33291 1.08187   2
   8   5  -9 50.2020 3.25586   1
  -8  -5   9 51.1005 3.06305   2
   7   5  -9 576.297 21.6441   1
  -7  -5   9 571.165 20.7816   2
   6   5  -9 993.236 35.8329   1
  -6  -5   9 972.343 34.4808   2
   5   5  -9 381.750 14.7386   1
  -5  -5   9 384.535 14.0159   2
   4   5  -9 2528.53 88.8070   3
  -4  -5   9 2311.46 80.7268   2
  -4  -5   9 2231.01 83.7161   1
   3   5  -9 669.410 25.6698   3
  -3  -5   9 666.039 23.2958   2
  -3  -5   9 662.479 24.4987   1
   2   5  -9 48.6353 2.71357   3
  -2  -5   9 52.1887 2.25823   2
  -2  -5   9 46.2494 2.70890   1
   1   5  -9 273.415 11.4499   3
  -1  -5   9 285.600 10.9100   1
   0   5  -9 9.78763 1.23657   3
   0  -5   9 9.75928 1.21552   1
  -1   5  -9 189.597 8.26954   3
   1  -5   9 188.149 7.75056   1
  -2   5  -9 29.1653 2.20382   3
   2  -5   9 27.5407 2.01122   1
  -3   5  -9 88.1933 4.90090   3
   3  -5   9 102.527 4.64295   1
  -4   5  -9 300.356 12.7645   3
   4  -5   9 299.912 11.9375   1
  -5   5  -9 36.3295 2.85784   3
   5  -5   9 38.2541 2.68482   1
  -6   5  -9 2160.85 82.3864   3
   6  -5   9 2165.02 77.5180   1
  -7   5  -9 259.258 11.5155   3
   7  -5   9 248.409 10.7713   1
  -8   5  -9 52.3481 3.82377   3
   8  -5   9 57.5868 3.91687   1
  -9   5  -9 132.762 7.08763   3
  11   4  -9 13.9248 2.06815   1
 -11  -4   9 13.1976 1.91793   2
  10   4  -9 -0.4181 0.91489   1
 -10  -4   9 -0.0168 0.84686   2
   9   4  -9 183.630 7.96284   1
  -9  -4   9 170.992 7.53356   2
   8   4  -9 297.524 11.8974   1
  -8  -4   9 288.833 11.3347   2
   7   4  -9 371.638 14.3584   1
  -7  -4   9 362.978 13.7299   2
   6   4  -9 488.933 18.4611   1
  -6  -4   9 488.620 17.7301   2
  -5  -4   9 13.5229 1.30767   2
   4   4  -9 2618.91 91.8098   3
  -4  -4   9 2258.86 86.7721   1
  -4  -4   9 2461.41 83.7765   2
   3   4  -9 12.1710 1.18382   3
  -3  -4   9 12.2458 1.06489   2
  -3  -4   9 10.6095 1.25111   1
   2   4  -9 91.8174 4.28369   3
  -2  -4   9 96.1030 3.65003   2
  -2  -4   9 84.1295 4.15503   1
   1   4  -9 15.9703 1.49749   3
  -1  -4   9 19.2037 1.54099   1
   0   4  -9 689.051 27.1458   3
   0  -4   9 710.614 25.6167   1
  -1   4  -9 68.6888 3.69624   3
   1  -4   9 71.1064 3.48644   1
  -2   4  -9 229.848 9.80413   3
   2  -4   9 226.222 9.14666   1
  -3   4  -9 22.5919 2.10071   3
   3  -4   9 22.0205 1.84052   1
  -4   4  -9 18.8052 1.96058   3
   4  -4   9 19.2652 1.76390   1
  -5   4  -9 7.86532 1.42038   3
   5  -4   9 9.46017 1.41171   1
  -6   4  -9 -1.1242 0.93968   3
   6  -4   9 1.71003 0.85833   1
  -7   4  -9 127.244 6.52098   3
   7  -4   9 122.055 6.13020   1
  -8   4  -9 34.6587 3.04873   3
   8  -4   9 34.6277 2.96690   1
  -9   4  -9 198.784 9.60127   3
  11   3  -9 336.893 14.2581   1
 -11  -3   9 360.429 13.8235   2
  10   3  -9 88.7096 4.97406   1
 -10  -3   9 96.3086 4.87947   2
   9   3  -9 0.12301 0.69061   1
  -9  -3   9 0.60675 0.75125   2
   8   3  -9 59.0088 3.48006   1
  -8  -3   9 56.6898 3.25000   2
   7   3  -9 229.793 9.24364   1
  -7  -3   9 215.885 8.77455   2
   6   3  -9 31.8863 2.21284   1
  -6  -3   9 32.4341 2.07865   2
   5   3  -9 272.632 10.7195   1
  -5  -3   9 270.534 10.1623   2
   4   3  -9 7.43443 0.88392   3
  -4  -3   9 10.3089 1.05703   2
   3   3  -9 1106.95 40.4691   3
  -3  -3   9 1029.95 38.3653   1
  -3  -3   9 1060.57 36.8180   2
   2   3  -9 8.41168 1.03859   3
  -2  -3   9 3.93682 0.87520   1
  -2  -3   9 6.76272 0.75475   2
   1   3  -9 4074.22 153.267   3
  -1  -3   9 3868.00 144.235   1
  -1  -3   9 4336.34 139.773   2
   0   3  -9 1380.24 53.4054   3
   0  -3   9 1430.45 50.2674   1
   1  -3   9 82.6589 3.89004   1
  -2   3  -9 237.829 10.1411   3
   2  -3   9 235.688 9.41898   1
  -3   3  -9 772.989 29.4515   3
   3  -3   9 731.471 27.5507   1
  -4   3  -9 52.2659 3.23552   3
   4  -3   9 49.1149 2.92601   1
  -5   3  -9 42.6888 2.99460   3
   5  -3   9 40.7229 2.72590   1
  -6   3  -9 121.481 6.20840   3
   6  -3   9 117.989 5.74910   1
  -7   3  -9 25.8536 2.63282   3
   7  -3   9 26.0287 2.44478   1
  -8   3  -9 10.3280 1.86505   3
   8  -3   9 11.8167 1.86541   1
  -9   3  -9 249.338 11.4154   3
  11   2  -9 619.511 23.7734   1
 -11  -2   9 620.486 23.0659   2
  10   2  -9 50.8299 3.40639   1
 -10  -2   9 47.2290 3.18157   2
   9   2  -9 1.55073 0.88742   1
  -9  -2   9 1.27324 0.77925   2
   8   2  -9 257.854 10.5392   1
  -8  -2   9 258.156 10.1663   2
   7   2  -9 116.923 5.42433   1
  -7  -2   9 118.404 5.23929   2
  -6  -2   9 19.1129 1.61062   2
   5   2  -9 2.31441 0.75350   1
  -5  -2   9 3.10856 0.72827   2
   4   2  -9 1367.53 50.7788   3
  -4  -2   9 1310.64 46.5045   2
  -4  -2   9 1367.35 48.3278   1
   3   2  -9 446.687 17.3565   3
  -3  -2   9 451.106 15.8427   2
  -3  -2   9 440.735 16.6277   1
   2   2  -9 3.33874 0.68983   3
  -2  -2   9 4.11438 0.58035   2
  -2  -2   9 3.75272 0.71614   1
   1   2  -9 272.810 11.1973   3
  -1  -2   9 269.071 10.5550   1
  -1  -2   9 280.855 9.77340   2
   0   2  -9 70.8081 3.63350   3
   0  -2   9 67.1224 3.31581   1
  -1   2  -9 4.63620 0.88276   3
   1  -2   9 5.59459 0.83947   1
  -2   2  -9 394.302 16.2764   3
   2  -2   9 411.322 15.2319   1
  -3   2  -9 142.379 6.86786   3
   3  -2   9 155.392 6.40987   1
  -4   2  -9 23.0698 2.10400   3
   4  -2   9 19.1992 1.75680   1
  -5   2  -9 273.539 12.1649   3
   5  -2   9 294.106 11.4215   1
  -6   2  -9 177.744 8.56913   3
   6  -2   9 189.818 8.06398   1
  -7   2  -9 27.2693 2.53836   3
   7  -2   9 20.4330 2.28035   1
  -8   2  -9 298.277 12.9027   3
   8  -2   9 289.660 12.2765   1
  11   1  -9 189.532 8.74755   1
 -11  -1   9 200.997 8.63072   2
  10   1  -9 9.40989 1.54603   1
 -10  -1   9 9.67382 1.58550   2
   9   1  -9 34.0897 2.64902   1
  -9  -1   9 38.9111 2.74721   2
   8   1  -9 1346.88 48.9864   1
  -8  -1   9 1367.08 47.4671   2
   7   1  -9 787.163 28.7809   1
  -7  -1   9 780.647 27.8483   2
   6   1  -9 287.331 11.3649   1
  -6  -1   9 294.426 11.0026   2
   5   1  -9 1065.13 38.5846   1
  -5  -1   9 1076.53 37.2749   2
   4   1  -9 344.833 13.2480   3
  -4  -1   9 334.767 12.3001   2
  -4  -1   9 334.507 12.8474   1
   3   1  -9 604.325 23.8531   3
  -3  -1   9 633.059 22.7449   1
  -3  -1   9 627.162 21.8025   2
   2   1  -9 229.454 9.40310   3
  -2  -1   9 227.086 8.42038   2
  -2  -1   9 233.330 8.96318   1
   1   1  -9 92.3177 4.42641   3
  -1  -1   9 97.5273 4.19368   1
  -1  -1   9 93.9319 3.73940   2
   0   1  -9 48.6589 2.65278   3
   0  -1   9 38.3336 2.27713   1
   0  -1   9 41.4809 1.88482   2
  -1   1  -9 123.635 5.84672   3
   1  -1   9 129.850 5.40761   1
  -2   1  -9 974.476 38.4633   3
   2  -1   9 1023.97 36.0849   1
  -3   1  -9 1344.19 49.9657   3
   3  -1   9 1263.57 46.7714   1
  -4   1  -9 15.8112 1.78724   3
   4  -1   9 14.5771 1.58050   1
  -5   1  -9 252.694 10.4331   3
   5  -1   9 218.382 9.52109   1
  -6   1  -9 825.259 30.8005   3
   6  -1   9 732.355 28.7605   1
  -7   1  -9 4.29116 1.18425   3
   7  -1   9 5.58981 1.27939   1
  -8   1  -9 18.3253 2.33094   3
   8  -1   9 18.3644 2.22180   1
  11   0  -9 387.460 15.4849   1
 -11   0   9 384.620 15.0884   2
  10   0  -9 25.0673 2.30723   1
 -10   0   9 26.0660 2.40173   2
   9   0  -9 284.807 11.6830   1
  -9   0   9 294.126 11.4766   2
   8   0  -9 227.270 9.24871   1
  -8   0   9 220.975 9.03673   2
   7   0  -9 147.242 6.41575   1
  -7   0   9 148.737 6.28583   2
   6   0  -9 345.519 13.2583   1
  -6   0   9 347.371 12.8944   2
   5   0  -9 1013.35 36.4628   1
  -5   0   9 1010.68 35.3305   2
   4   0  -9 10.3578 1.03897   3
  -4   0   9 9.44380 1.06457   2
   3   0  -9 132.325 5.70462   3
  -3   0   9 127.554 5.44227   1
  -3   0   9 132.687 5.25812   2
   2   0  -9 136.522 5.95123   3
  -2   0   9 132.908 5.58151   1
  -2   0   9 137.138 5.31320   2
   1   0  -9 1102.02 42.0271   3
  -1   0   9 1099.08 39.4427   1
  -1   0   9 1104.29 37.9687   2
   0   0  -9 87.5251 4.31130   3
   0   0   9 86.0345 3.91313   1
   0   0   9 88.6031 3.54714   2
  -1   0  -9 357.995 14.4661   3
   1   0   9 353.785 13.4052   1
  -2   0  -9 255.579 10.6140   3
   2   0   9 243.510 9.72895   1
  -3   0  -9 300.727 12.3451   3
   3   0   9 285.340 11.3466   1
  -4   0  -9 19.0012 1.96803   3
   4   0   9 17.8532 1.59777   1
  -5   0  -9 42.2856 3.06872   3
   5   0   9 41.8764 2.66928   1
  -6   0  -9 194.026 8.87531   3
   6   0   9 186.295 8.11402   1
  -7   0  -9 31.1959 2.87023   3
   7   0   9 33.8346 2.62487   1
  -8   0  -9 84.0163 5.06697   3
   8   0   9 83.2279 4.69209   1
  12  -1  -9 7.15749 1.65916   1
  11  -1  -9 3.04573 1.09454   1
 -11   1   9 2.22843 1.11114   2
  10  -1  -9 217.463 9.40668   1
 -10   1   9 225.899 9.38434   2
   9  -1  -9 106.410 5.25015   1
  -9   1   9 111.903 5.35355   2
   8  -1  -9 65.4071 3.54906   1
  -8   1   9 62.9113 3.54569   2
   7  -1  -9 18.3229 1.65754   1
  -7   1   9 16.7613 1.76789   2
   6  -1  -9 196.890 8.22755   1
  -6   1   9 213.418 8.19841   2
   5  -1  -9 2590.94 93.4985   3
   5  -1  -9 2430.42 88.1945   1
  -5   1   9 2452.95 85.5437   2
   4  -1  -9 2209.79 81.7141   3
   4  -1  -9 2142.91 76.9865   1
  -4   1   9 2167.38 74.6763   2
   3  -1  -9 423.557 16.5712   3
  -3   1   9 410.615 15.1330   2
  -3   1   9 426.198 15.5797   1
   2  -1  -9 460.056 18.2703   3
  -2   1   9 469.096 16.5488   2
  -2   1   9 460.808 17.0258   1
   1  -1  -9 517.981 20.2205   3
  -1   1   9 510.409 18.1586   2
  -1   1   9 510.101 18.7515   1
   0  -1  -9 11.7978 1.41150   3
   0   1   9 10.7224 1.09857   1
   0   1   9 9.73335 0.96124   2
  -1  -1  -9 194.066 8.74621   3
   1   1   9 200.363 7.56519   2
   1   1   9 210.516 8.00470   1
  -2  -1  -9 269.662 11.5529   3
   2   1   9 276.454 10.5653   1
  -3  -1  -9 53.1863 3.42081   3
   3   1   9 58.4710 3.00010   1
  -4  -1  -9 283.537 11.7707   3
   4   1   9 259.764 10.6503   1
  -5  -1  -9 573.059 23.1597   3
   5   1   9 577.732 21.4879   1
  -6  -1  -9 805.461 30.3643   3
   6   1   9 721.162 28.1109   1
  -7  -1  -9 18.3005 2.32461   3
   7   1   9 17.9618 2.01311   1
  -8  -1  -9 626.126 25.5356   3
  12  -2  -9 41.0740 3.57058   1
  11  -2  -9 1.66260 0.99537   1
 -11   2   9 2.71927 1.16223   2
  10  -2  -9 100.924 5.12680   1
 -10   2   9 103.632 5.31361   2
   9  -2  -9 40.9090 2.74708   1
  -9   2   9 42.2228 2.91711   2
   8  -2  -9 0.10922 0.61923   1
  -8   2   9 0.20521 0.70790   2
   7  -2  -9 20.7241 1.72174   1
  -7   2   9 20.4548 1.88716   2
   6  -2  -9 330.793 12.7439   1
  -6   2   9 336.473 12.6752   2
   5  -2  -9 1660.84 60.5147   3
   5  -2  -9 1569.20 56.9888   1
  -5   2   9 1573.71 55.5046   2
   4  -2  -9 535.237 19.8202   1
   4  -2  -9 538.058 21.1528   3
  -4   2   9 553.889 19.5214   2
   3  -2  -9 102.759 4.78040   3
  -3   2   9 98.8998 4.40584   2
   2  -2  -9 571.296 22.7208   3
  -2   2   9 570.724 20.6451   2
  -2   2   9 598.839 21.1122   1
   1  -2  -9 500.368 20.1357   3
  -1   2   9 489.976 18.1122   2
  -1   2   9 533.416 18.5841   1
   0  -2  -9 16.7938 1.71443   3
   0   2   9 16.0777 1.29305   2
   0   2   9 16.2929 1.28253   1
  -1  -2  -9 54.0675 3.35258   3
   1   2   9 55.9557 2.72932   2
   1   2   9 55.5390 2.77494   1
   2   2   9 405.513 15.3244   1
  -3  -2  -9 33.3790 2.70567   3
  -4  -2  -9 45.0378 3.28016   3
  -5  -2  -9 262.323 11.6729   3
  -6  -2  -9 23.3166 2.65475   3
  -7  -2  -9 1.25384 1.07100   3
  -8  -2  -9 3.65896 1.57942   3
 -11   3   9 245.426 10.5560   2
 -10   3   9 28.3962 2.63683   2
   9  -3  -9 0.41579 0.71455   1
  -9   3   9 -0.1786 0.86004   2
   8  -3  -9 2.56169 0.84942   1
  -8   3   9 2.73839 1.01374   2
  -7   3   9 123.379 5.70584   2
  -6   3   9 202.415 8.33105   2
   5  -3  -9 661.696 25.4680   3
  -5   3   9 649.700 23.5742   2
   4  -3  -9 66.5094 3.52258   3
  -4   3   9 66.7736 3.42454   2
   3  -3  -9 273.246 11.5040   3
  -3   3   9 282.184 10.6215   2
   2  -3  -9 617.517 24.2947   3
  -2   3   9 617.500 22.0695   2
   1  -3  -9 259.457 11.0666   3
  -1   3   9 262.739 9.94479   2
   0  -3  -9 0.95646 0.76355   3
   0   3   9 2.26863 0.71235   2
  -1  -3  -9 664.725 26.5235   3
   1   3   9 676.386 23.8160   2
  -2  -3  -9 353.521 14.8318   3
  -3  -3  -9 56.0689 3.73725   3
  -4  -3  -9 407.697 17.0818   3
  -5  -3  -9 3.22455 1.20974   3
  -6  -3  -9 303.598 13.4123   3
  -7  -3  -9 14.6539 2.14197   3
 -10   4   9 36.0824 3.08927   2
  -9   4   9 2.21875 1.15774   2
  -8   4   9 332.545 13.1162   2
  -7   4   9 1.60021 1.03082   2
  -6   4   9 7.02052 1.30659   2
  -5   4   9 3.50561 1.01514   2
   4  -4  -9 55.7357 3.19742   3
  -4   4   9 52.6681 3.08369   2
   3  -4  -9 17.3361 1.73338   3
  -3   4   9 16.6677 1.72780   2
   2  -4  -9 817.624 31.6685   3
  -2   4   9 806.093 28.8065   2
   1  -4  -9 97.2448 5.18204   3
  -1   4   9 101.722 4.57481   2
   0  -4  -9 86.9014 4.79795   3
   0   4   9 85.8427 4.09802   2
  -1  -4  -9 163.023 7.50347   3
   1   4   9 149.644 6.46071   2
  -2  -4  -9 2.15139 1.04322   3
   2   4   9 5.60543 1.00365   2
  -3  -4  -9 38.1605 3.08070   3
  -4  -4  -9 724.566 29.0249   3
  -5  -4  -9 59.2308 4.21779   3
  -6  -4  -9 18.2099 2.43202   3
  -9   5   9 241.948 10.3098   2
  -8   5   9 425.143 16.4633   2
  -7   5   9 23.8637 2.39907   2
  -6   5   9 827.009 29.8125   2
   5  -5  -9 136.340 6.42668   3
  -5   5   9 134.405 6.17374   2
   4  -5  -9 11.6591 1.57984   3
  -4   5   9 14.2699 1.71778   2
   3  -5  -9 248.617 10.8587   3
  -3   5   9 256.762 10.0808   2
   2  -5  -9 44.8012 3.08665   3
  -2   5   9 45.1858 2.84758   2
   1  -5  -9 241.375 10.7243   3
  -1   5   9 244.856 9.65659   2
   0  -5  -9 13.2361 1.81773   3
   0   5   9 13.6631 1.57202   2
  -1  -5  -9 307.760 13.0455   3
   1   5   9 290.000 11.4983   2
  -2  -5  -9 67.4459 4.29333   3
   2   5   9 65.6501 3.55606   2
  -3  -5  -9 57.0000 4.01845   3
  -4  -5  -9 602.247 24.6488   3
  -5  -5  -9 897.262 35.7212   3
  -8   6   9 159.687 7.51657   2
  -7   6   9 73.6045 4.40948   2
  -6   6   9 343.492 13.5627   2
   5  -6  -9 4.53153 1.08143   3
  -5   6   9 5.40045 1.29426   2
   4  -6  -9 16.3662 2.01844   3
  -4   6   9 19.1101 2.11668   2
   3  -6  -9 200.683 9.21282   3
  -3   6   9 209.145 8.62186   2
   2  -6  -9 22.0053 2.27871   3
  -2   6   9 17.5191 2.04670   2
   1  -6  -9 74.8415 4.46528   3
  -1   6   9 71.3129 3.94529   2
   0  -6  -9 7.20242 1.49999   3
   0   6   9 13.5941 1.70757   2
  -1  -6  -9 26.6457 2.69287   3
   1   6   9 23.1703 2.14873   2
  -2  -6  -9 131.024 6.88852   3
   2   6   9 126.899 5.89592   2
  -3  -6  -9 0.03470 0.98574   3
  -4  -6  -9 3.87170 1.43788   3
  -7   7   9 0.50945 1.21149   2
  -6   7   9 391.330 15.3974   2
   5  -7  -9 0.95314 0.92799   3
  -5   7   9 4.30253 1.37365   2
   4  -7  -9 1.99581 1.05038   3
  -4   7   9 1.55232 1.07758   2
   3  -7  -9 709.864 28.5653   3
  -3   7   9 722.285 26.1935   2
   2  -7  -9 745.343 29.9522   3
  -2   7   9 759.103 27.3749   2
   1  -7  -9 1.90505 1.18613   3
  -1   7   9 3.21703 1.25329   2
   0  -7  -9 245.242 11.4450   3
   0   7   9 255.764 10.3209   2
  -1  -7  -9 30.4226 3.05220   3
   1   7   9 28.8877 2.46228   2
  -2  -7  -9 74.8170 4.91792   3
   2   7   9 74.2631 4.15627   2
   5  -8  -9 344.844 14.9043   3
  -5   8   9 349.023 14.0147   2
   4  -8  -9 73.1826 4.69792   3
  -4   8   9 82.5663 4.75998   2
   3  -8  -9 141.246 7.25728   3
  -3   8   9 141.683 6.79441   2
   2  -8  -9 148.934 7.72157   3
  -2   8   9 149.813 7.01814   2
   1  -8  -9 1.85037 1.09739   3
  -1   8   9 2.40325 1.14581   2
   0   8   9 66.9840 4.05658   2
   1   8   9 100.427 5.23882   2
   2  12 -10 29.1036 2.97271   3
   1  12 -10 51.6661 3.91903   3
   0  12 -10 49.9486 3.78831   3
  -1  12 -10 218.473 10.4030   3
  -2  12 -10 13.4515 2.37816   3
  -6 -11  10 8.74702 1.78198   2
   2  11 -10 403.352 16.8339   3
   1  11 -10 0.74655 0.92480   3
   0  11 -10 2.36524 1.06827   3
  -1  11 -10 244.473 11.1680   3
  -2  11 -10 604.464 24.7423   3
  -3  11 -10 3.96689 1.34529   3
  -4  11 -10 109.103 7.10769   3
  -7 -10  10 6.60245 1.52914   2
  -6 -10  10 87.9837 4.74075   2
   5  10 -10 34.0483 2.63391   1
   4  10 -10 134.173 6.27402   1
  -3 -10  10 126.159 5.95771   1
   2  10 -10 585.763 24.3937   3
  -2 -10  10 641.571 23.1297   1
   1  10 -10 16.1751 1.95212   3
  -1 -10  10 16.9635 1.83299   1
   0  10 -10 8.60577 1.52279   3
   0 -10  10 7.36797 1.28583   1
  -1  10 -10 0.53890 0.79880   3
   1 -10  10 2.47638 0.91295   1
  -2  10 -10 9.82091 1.73106   3
   2 -10  10 12.2789 1.61958   1
  -3  10 -10 18.7134 2.47605   3
   3 -10  10 17.8176 2.00405   1
  -4  10 -10 180.400 8.93366   3
   4 -10  10 175.801 7.96546   1
  -5  10 -10 302.194 13.7416   3
   5 -10  10 303.978 12.4932   1
   6 -10  10 15.5864 2.08037   1
   8   9 -10 11.0987 1.75775   1
  -8  -9  10 13.0294 1.94261   2
   7   9 -10 23.0180 2.36648   1
  -7  -9  10 24.5710 2.38824   2
   6   9 -10 306.554 12.6837   1
  -6  -9  10 322.712 12.3630   2
   5   9 -10 1016.69 37.8104   1
  -5  -9  10 1052.33 36.5830   2
  -3  -9  10 358.693 14.1045   1
   2   9 -10 517.710 21.4993   3
  -2  -9  10 563.982 20.5203   1
   1   9 -10 306.660 12.9123   3
  -1  -9  10 304.609 12.1796   1
   0   9 -10 84.9051 4.72796   3
   0  -9  10 83.6499 4.32118   1
  -1   9 -10 40.6825 3.20355   3
   1  -9  10 47.2977 2.93851   1
  -2   9 -10 299.620 12.9868   3
   2  -9  10 292.404 11.9407   1
  -3   9 -10 47.3385 3.40770   3
   3  -9  10 39.6512 2.86339   1
  -4   9 -10 6.20544 1.44592   3
   4  -9  10 5.66702 1.24578   1
  -5   9 -10 334.866 14.6993   3
   5  -9  10 332.908 13.5594   1
  -6   9 -10 91.4013 5.50954   3
   6  -9  10 85.9081 4.92245   1
   9   8 -10 89.7488 5.05093   1
  -9  -8  10 92.4432 5.03933   2
   8   8 -10 153.909 7.31960   1
  -8  -8  10 164.246 7.25044   2
   7   8 -10 26.0539 2.38527   1
  -7  -8  10 28.5167 2.38976   2
   6   8 -10 89.9404 4.70291   1
  -6  -8  10 88.7052 4.43285   2
   5   8 -10 89.0466 4.58074   1
  -5  -8  10 89.6142 4.30388   2
  -4  -8  10 38.7823 2.39223   2
  -4  -8  10 40.6649 2.74562   1
   3   8 -10 285.970 11.9623   3
  -3  -8  10 290.474 11.5624   1
   2   8 -10 35.1565 2.55737   3
  -2  -8  10 38.6502 2.57913   1
   1   8 -10 22.2549 2.04167   3
  -1  -8  10 20.6127 1.95287   1
   0   8 -10 296.577 12.7389   3
   0  -8  10 304.228 11.9813   1
  -1   8 -10 862.844 33.4687   3
   1  -8  10 843.341 31.3585   1
  -2   8 -10 374.017 16.1690   3
   2  -8  10 401.189 15.1903   1
  -3   8 -10 34.6476 2.87291   3
   3  -8  10 33.7562 2.54138   1
  -4   8 -10 40.7393 3.25914   3
   4  -8  10 40.4378 2.97688   1
  -5   8 -10 181.710 9.06441   3
   5  -8  10 195.875 8.44211   1
  -6   8 -10 6.15718 1.52838   3
   6  -8  10 6.60394 1.37734   1
  -7   8 -10 7.08874 1.66576   3
   7  -8  10 6.40706 1.47356   1
  10   7 -10 46.2974 3.96675   1
   9   7 -10 223.092 9.82646   1
  -9  -7  10 227.896 9.54444   2
   8   7 -10 0.63421 0.84340   1
  -8  -7  10 0.93863 0.89605   2
   7   7 -10 27.1410 2.37126   1
  -7  -7  10 27.2186 2.24896   2
   6   7 -10 282.284 11.5016   1
  -6  -7  10 285.419 11.0084   2
   5   7 -10 5.69028 1.15351   1
  -5  -7  10 6.90277 1.05515   2
  -4  -7  10 14.1428 1.63390   1
  -4  -7  10 12.5469 1.27061   2
   3   7 -10 133.288 5.99253   3
  -3  -7  10 128.794 5.95303   1
   2   7 -10 165.887 7.40255   3
  -2  -7  10 167.244 7.19317   1
   1   7 -10 116.967 5.57751   3
  -1  -7  10 113.081 5.33018   1
   0   7 -10 1281.10 49.3228   3
   0  -7  10 1291.62 46.4531   1
  -1   7 -10 617.861 24.8983   3
   1  -7  10 636.961 23.4415   1
  -2   7 -10 172.065 7.99700   3
   2  -7  10 169.524 7.40425   1
  -3   7 -10 9.82277 1.61520   3
   3  -7  10 8.10725 1.29746   1
  -4   7 -10 13.0549 1.86482   3
   4  -7  10 18.1825 1.95357   1
  -5   7 -10 71.7120 4.61985   3
   5  -7  10 75.5211 4.21561   1
  -6   7 -10 68.9850 4.46005   3
   6  -7  10 66.2265 4.10739   1
  -7   7 -10 82.7795 5.10438   3
   7  -7  10 81.2752 4.73351   1
  10   6 -10 196.178 8.87643   1
 -10  -6  10 189.895 8.49304   2
   9   6 -10 43.0207 3.24984   1
  -9  -6  10 41.3205 3.10030   2
   8   6 -10 44.1534 3.09759   1
  -8  -6  10 40.3277 2.82184   2
   7   6 -10 -0.1770 0.74432   1
  -7  -6  10 0.07838 0.67677   2
   6   6 -10 739.941 28.1146   1
  -6  -6  10 779.972 27.0865   2
   5   6 -10 270.666 11.1147   1
  -5  -6  10 279.573 10.4721   2
  -4  -6  10 60.0333 2.93013   2
  -4  -6  10 59.8004 3.36981   1
   3   6 -10 11.7629 1.24152   3
  -3  -6  10 8.07052 1.18359   1
  -3  -6  10 11.6864 1.05370   2
   2   6 -10 24.6226 1.84812   3
  -2  -6  10 24.1076 1.93781   1
   1   6 -10 56.9001 3.24396   3
  -1  -6  10 57.1916 3.16676   1
   0   6 -10 77.3845 4.10918   3
   0  -6  10 74.3548 3.84342   1
  -1   6 -10 149.567 7.24534   3
   1  -6  10 165.247 6.90204   1
  -2   6 -10 134.017 6.73668   3
   2  -6  10 147.331 6.33572   1
  -3   6 -10 362.486 15.3141   3
   3  -6  10 367.963 14.3085   1
  -4   6 -10 707.932 28.1349   3
   4  -6  10 703.872 26.3580   1
  -5   6 -10 554.544 22.9338   3
   5  -6  10 573.001 21.5639   1
  -6   6 -10 70.0492 4.52101   3
   6  -6  10 71.7193 4.23304   1
  -7   6 -10 495.408 21.0613   3
   7  -6  10 515.721 19.8516   1
  -8   6 -10 13.3697 1.99879   3
  10   5 -10 187.294 8.62018   1
 -10  -5  10 185.623 8.22672   2
   9   5 -10 307.038 12.6730   1
  -9  -5  10 307.592 12.1395   2
   8   5 -10 64.6040 3.87192   1
  -8  -5  10 65.7567 3.60603   2
   7   5 -10 805.222 30.2530   1
  -7  -5  10 829.476 29.1111   2
   6   5 -10 1006.25 36.9301   1
  -6  -5  10 1017.37 35.5251   2
  -5  -5  10 86.6549 3.95631   2
  -4  -5  10 24.8707 2.00211   1
  -4  -5  10 27.5306 1.73373   2
   3   5 -10 0.81268 0.48129   3
  -3  -5  10 0.86329 0.60423   1
  -3  -5  10 0.68914 0.43315   2
   2   5 -10 106.951 4.98732   3
  -2  -5  10 104.157 4.87463   1
   1   5 -10 39.7279 2.52362   3
  -1  -5  10 38.8072 2.45164   1
   0   5 -10 867.536 33.0557   3
   0  -5  10 837.778 31.1016   1
  -1   5 -10 24.8045 2.12185   3
   1  -5  10 25.5984 1.96019   1
  -2   5 -10 2.33382 0.88366   3
   2  -5  10 1.34303 0.70484   1
  -3   5 -10 698.435 27.6868   3
   3  -5  10 699.501 25.9532   1
  -4   5 -10 1033.82 39.7882   3
   4  -5  10 1006.31 37.2961   1
  -5   5 -10 0.35957 0.98013   3
   5  -5  10 0.36594 0.84609   1
  -6   5 -10 13.5228 2.00553   3
   6  -5  10 18.9338 2.14034   1
  -7   5 -10 49.1865 3.76989   3
   7  -5  10 47.3846 3.45613   1
  -8   5 -10 37.3048 3.27001   3
  11   4 -10 2.25511 1.24497   1
 -11  -4  10 2.73811 1.15815   2
  10   4 -10 1214.06 44.0968   1
 -10  -4  10 1182.56 42.4811   2
   9   4 -10 266.707 10.9188   1
  -9  -4  10 248.394 10.3020   2
   8   4 -10 -0.1761 0.71125   1
  -8  -4  10 -0.1845 0.59300   2
   7   4 -10 99.4791 5.04221   1
  -7  -4  10 105.762 4.81103   2
   6   4 -10 525.137 19.9792   1
  -6  -4  10 534.089 19.1782   2
  -5  -4  10 229.127 8.80831   2
  -4  -4  10 161.113 6.32184   2
  -4  -4  10 158.610 6.86489   1
   3   4 -10 282.710 11.3838   3
  -3  -4  10 268.062 10.9680   1
  -3  -4  10 286.899 10.2496   2
   2   4 -10 643.199 24.2418   3
  -2  -4  10 598.917 22.9189   1
   1   4 -10 988.561 37.1482   3
  -1  -4  10 943.357 34.9791   1
   0   4 -10 2.46915 0.77280   3
   0  -4  10 4.68436 0.86102   1
  -1   4 -10 356.862 14.3163   3
   1  -4  10 336.700 13.3532   1
  -2   4 -10 3.53019 1.01990   3
   2  -4  10 4.57385 0.92427   1
  -3   4 -10 328.634 13.7045   3
   3  -4  10 318.489 12.7100   1
  -4   4 -10 94.8739 5.13828   3
   4  -4  10 91.3243 4.66072   1
  -5   4 -10 53.0583 3.55039   3
   5  -4  10 47.6771 3.17508   1
  -6   4 -10 34.6470 2.94228   3
   6  -4  10 30.2491 2.59273   1
  -7   4 -10 772.226 32.1515   3
   7  -4  10 845.217 30.4445   1
  -8   4 -10 7.62911 1.66671   3
   8  -4  10 10.8921 1.97615   1
  11   3 -10 6.69200 1.58105   1
 -11  -3  10 7.79087 1.51586   2
  10   3 -10 -0.7701 0.80268   1
 -10  -3  10 -0.2274 0.83237   2
   9   3 -10 349.021 13.8887   1
  -9  -3  10 339.461 13.3035   2
   8   3 -10 37.2355 2.69191   1
  -8  -3  10 34.2003 2.42102   2
   7   3 -10 462.592 17.6300   1
  -7  -3  10 457.572 16.9170   2
   6   3 -10 138.474 6.12508   1
  -6  -3  10 135.818 5.76608   2
  -5  -3  10 47.3002 2.52747   2
   4   3 -10 1074.78 38.6218   3
  -4  -3  10 1001.97 36.8227   1
  -4  -3  10 971.493 35.2844   2
   3   3 -10 1300.67 48.0119   3
  -3  -3  10 1239.18 45.4683   1
  -3  -3  10 1255.72 43.6229   2
   2   3 -10 1.31158 0.58432   3
  -2  -3  10 2.25469 0.49113   2
  -2  -3  10 2.09361 0.72099   1
   1   3 -10 20.3536 1.69938   3
  -1  -3  10 17.7657 1.58106   1
   0   3 -10 835.209 31.2641   3
   0  -3  10 776.526 29.3394   1
  -1   3 -10 24.2379 1.97865   3
   1  -3  10 23.1258 1.77894   1
  -2   3 -10 263.275 11.4172   3
   2  -3  10 275.372 10.7282   1
  -3   3 -10 88.1529 4.69090   3
   3  -3  10 85.3826 4.27109   1
  -4   3 -10 12.4405 1.72491   3
   4  -3  10 14.4748 1.68642   1
  -5   3 -10 99.6795 5.33217   3
   5  -3  10 93.0326 4.84076   1
   6  -3  10 269.132 11.1816   1
  -7   3 -10 951.202 38.1310   3
   7  -3  10 984.317 35.9159   1
  -8   3 -10 47.0492 3.60181   3
   8  -3  10 42.7943 3.41603   1
  11   2 -10 2.35504 1.16221   1
 -11  -2  10 1.86305 1.10242   2
  10   2 -10 63.6558 3.98600   1
 -10  -2  10 61.1638 3.83467   2
   9   2 -10 22.5352 2.21908   1
  -9  -2  10 18.7505 1.98694   2
   8   2 -10 6.34740 1.28820   1
  -8  -2  10 11.1354 1.44001   2
   7   2 -10 21.5633 2.01403   1
  -7  -2  10 24.7412 1.94003   2
   6   2 -10 512.831 19.3239   1
  -6  -2  10 516.196 18.6199   2
   5   2 -10 12.6384 1.43233   1
  -5  -2  10 13.4694 1.28686   2
   4   2 -10 41.6865 2.30030   3
  -4  -2  10 43.0834 2.58112   1
   3   2 -10 2497.50 90.6936   3
  -3  -2  10 2336.20 85.6112   1
  -3  -2  10 2408.22 82.5455   2
   2   2 -10 122.143 5.55533   3
  -2  -2  10 121.695 5.35749   1
  -2  -2  10 125.456 4.80747   2
   1   2 -10 95.6296 4.52519   3
  -1  -2  10 86.8109 4.16420   1
   0   2 -10 672.446 26.2232   3
   0  -2  10 669.175 24.6010   1
   1  -2  10 20.4376 1.66598   1
   2  -2  10 10.4096 1.31075   1
  -3   2 -10 162.099 7.61417   3
   3  -2  10 165.246 7.03035   1
  -4   2 -10 120.178 6.01261   3
   4  -2  10 114.815 5.45532   1
  -5   2 -10 8.13436 1.52832   3
   5  -2  10 7.16039 1.26359   1
  -6   2 -10 17.2132 2.18949   3
   6  -2  10 17.9232 2.02230   1
  -7   2 -10 51.1081 3.87176   3
   7  -2  10 54.1133 3.57535   1
  -8   2 -10 85.2548 5.05127   3
   8  -2  10 81.2804 4.82493   1
  11   1 -10 259.607 11.2869   1
 -11  -1  10 272.376 11.1016   2
  10   1 -10 959.018 35.4184   1
 -10  -1  10 954.859 34.3070   2
   9   1 -10 14.4743 1.80770   1
  -9  -1  10 12.2029 1.67937   2
   8   1 -10 255.623 10.5299   1
  -8  -1  10 259.505 10.2370   2
   7   1 -10 100.976 4.80126   1
  -7  -1  10 96.5264 4.59257   2
   6   1 -10 75.0771 3.81409   1
  -6  -1  10 76.7644 3.68956   2
   5   1 -10 105.302 4.91272   1
  -5  -1  10 112.528 4.70788   2
   4   1 -10 194.185 7.83605   3
  -4  -1  10 186.022 7.71841   1
  -4  -1  10 186.958 7.29179   2
   3   1 -10 389.501 15.5816   3
  -3  -1  10 403.390 14.9043   1
  -3  -1  10 390.646 14.1508   2
   2   1 -10 182.686 7.83169   3
  -2  -1  10 182.152 7.44547   1
  -2  -1  10 186.573 6.92602   2
   1   1 -10 636.631 25.0406   3
  -1  -1  10 665.153 22.5346   2
  -1  -1  10 628.706 23.5549   1
   0   1 -10 2153.76 81.0740   3
   0  -1  10 2139.09 76.2012   1
  -1   1 -10 336.521 13.8978   3
   1  -1  10 340.259 12.9688   1
  -2   1 -10 997.477 37.8854   3
   2  -1  10 960.639 35.4660   1
  -3   1 -10 17.7410 1.87694   3
   3  -1  10 13.3156 1.46826   1
  -4   1 -10 69.6517 4.04288   3
   4  -1  10 65.5618 3.61078   1
  -5   1 -10 75.3780 4.31263   3
   5  -1  10 67.5377 3.82668   1
  -6   1 -10 17.5696 2.19039   3
   6  -1  10 20.2543 1.99646   1
  -7   1 -10 18.1189 2.40678   3
   7  -1  10 25.7755 2.35413   1
  -8   1 -10 69.4575 4.62018   3
   8  -1  10 72.9847 4.39275   1
  11   0 -10 219.506 9.73992   1
 -11   0  10 227.243 9.68139   2
  10   0 -10 339.754 13.4522   1
 -10   0  10 323.109 13.0939   2
   9   0 -10 95.7961 4.98128   1
  -9   0  10 101.382 4.97669   2
   8   0 -10 70.7895 3.72037   1
  -8   0  10 59.8338 3.55173   2
   7   0 -10 277.099 10.8923   1
  -7   0  10 268.542 10.5882   2
   6   0 -10 2.87401 0.77330   1
  -6   0  10 -0.3023 0.59322   2
   5   0 -10 80.4854 3.81155   1
  -5   0  10 75.7229 3.67677   2
   4   0 -10 20.6701 1.56991   3
  -4   0  10 24.3443 1.67297   1
  -4   0  10 17.4974 1.48403   2
   3   0 -10 66.0427 3.44264   3
  -3   0  10 68.7693 3.15877   2
  -3   0  10 69.0557 3.32591   1
   2   0 -10 168.214 7.30560   3
  -2   0  10 165.648 6.83837   1
  -2   0  10 170.709 6.50110   2
   1   0 -10 310.086 12.6561   3
  -1   0  10 310.425 11.1464   2
  -1   0  10 303.151 11.7391   1
   0   0 -10 46.4801 2.91182   3
   0   0  10 44.7412 2.52469   1
  -1   0 -10 93.4054 4.78810   3
   1   0  10 93.7599 4.30992   1
  -2   0 -10 2.55745 0.94563   3
   2   0  10 0.83107 0.55833   1
  -3   0 -10 137.759 6.84263   3
   3   0  10 150.198 6.28468   1
  -4   0 -10 236.413 10.4951   3
   4   0  10 236.935 9.62254   1
  -5   0 -10 559.746 21.9635   3
   5   0  10 515.686 20.2497   1
  -6   0 -10 271.141 11.8804   3
   6   0  10 257.724 10.8099   1
  -7   0 -10 306.155 12.9436   3
   7   0  10 270.472 11.7552   1
   8   0  10 170.804 8.19374   1
  11  -1 -10 3.43671 1.13803   1
 -11   1  10 4.37376 1.36155   2
  10  -1 -10 243.804 10.3665   1
 -10   1  10 251.723 10.3316   2
   9  -1 -10 112.301 5.53168   1
  -9   1  10 121.184 5.71285   2
   8  -1 -10 610.303 23.2402   1
  -8   1  10 637.754 22.7783   2
   7  -1 -10 1512.64 54.2188   1
  -7   1  10 1509.59 52.6744   2
   6  -1 -10 44.8199 2.67312   1
  -6   1  10 49.7323 2.85147   2
   5  -1 -10 785.480 28.6625   1
  -5   1  10 791.922 27.9462   2
   4  -1 -10 177.608 7.54780   3
   4  -1 -10 177.166 7.19438   1
  -4   1  10 175.773 7.07817   2
   3  -1 -10 111.952 5.30437   3
  -3   1  10 115.995 4.97760   1
  -3   1  10 118.789 4.91111   2
   2  -1 -10 15.2841 1.58763   3
  -2   1  10 18.2357 1.40602   1
  -2   1  10 14.3812 1.29647   2
   1  -1 -10 766.839 30.1723   3
  -1   1  10 771.177 27.1546   2
  -1   1  10 790.471 28.1158   1
   0  -1 -10 68.7599 3.87598   3
   0   1  10 70.5852 3.36554   1
  -1  -1 -10 159.186 7.54666   3
   1   1  10 172.016 6.86361   1
  -2  -1 -10 800.236 31.3476   3
   2   1  10 799.742 29.1204   1
  -3  -1 -10 282.723 12.1509   3
   3   1  10 280.245 11.0473   1
  -4  -1 -10 166.854 7.84993   3
   4   1  10 158.988 6.96944   1
  -5  -1 -10 707.790 28.3649   3
   5   1  10 711.662 26.4050   1
  -6  -1 -10 542.011 22.3022   3
  -7  -1 -10 77.7233 4.96273   3
  11  -2 -10 14.8378 1.97883   1
  10  -2 -10 35.2772 2.71797   1
 -10   2  10 34.1070 2.96130   2
  -9   2  10 4.72990 1.24205   2
   8  -2 -10 393.180 15.3361   1
  -8   2  10 403.059 15.2040   2
   7  -2 -10 548.057 20.5277   1
  -7   2  10 552.868 20.2161   2
   6  -2 -10 15.2730 1.46948   1
  -6   2  10 15.6937 1.74762   2
   5  -2 -10 745.284 27.4135   1
   5  -2 -10 748.737 29.0707   3
  -5   2  10 767.911 26.9225   2
   4  -2 -10 46.6597 2.52297   1
   4  -2 -10 49.9322 2.81668   3
  -4   2  10 46.0283 2.71474   2
   3  -2 -10 806.074 32.1640   3
  -3   2  10 839.529 29.3807   2
  -3   2  10 853.895 30.0818   1
   2  -2 -10 496.271 19.7815   3
  -2   2  10 497.570 17.9201   2
   1  -2 -10 118.532 5.78920   3
  -1   2  10 119.721 5.04639   2
   0  -2 -10 134.401 6.63917   3
   0   2  10 145.923 5.74830   2
  -1  -2 -10 17.7735 1.96796   3
  -2  -2 -10 18.1477 2.11048   3
  -3  -2 -10 166.610 8.02385   3
  -4  -2 -10 6.48291 1.52686   3
  -5  -2 -10 19.7247 2.49064   3
  -6  -2 -10 132.758 7.12503   3
 -10   3  10 0.67473 1.03276   2
  -9   3  10 54.9561 3.61288   2
  -8   3  10 22.2546 2.19921   2
  -7   3  10 29.3089 2.40680   2
  -6   3  10 1.51008 0.82579   2
   5  -3 -10 205.926 8.66193   3
  -5   3  10 196.854 8.23645   2
   4  -3 -10 101.949 5.13279   3
  -4   3  10 112.077 4.94967   2
   3  -3 -10 38.0014 2.64323   3
  -3   3  10 38.8560 2.49591   2
   2  -3 -10 441.633 18.0393   3
  -2   3  10 449.753 16.3715   2
   1  -3 -10 1398.45 54.2247   3
  -1   3  10 1433.88 49.1966   2
   0  -3 -10 22.5666 2.18355   3
   0   3  10 21.6226 1.71187   2
  -1  -3 -10 16.7622 2.04421   3
  -2  -3 -10 53.8863 3.69408   3
  -3  -3 -10 31.3878 2.83586   3
  -4  -3 -10 33.7254 3.12967   3
  -5  -3 -10 20.0653 2.57773   3
  -6  -3 -10 494.278 20.7428   3
  -9   4  10 183.115 8.25512   2
  -8   4  10 42.7556 3.18185   2
  -7   4  10 138.182 6.47227   2
  -6   4  10 43.8940 2.97006   2
   5  -4 -10 16.3092 1.70909   3
  -5   4  10 19.5772 1.91306   2
   4  -4 -10 187.594 8.38464   3
  -4   4  10 189.446 7.88635   2
   3  -4 -10 9.98754 1.51454   3
  -3   4  10 15.5851 1.67817   2
   2  -4 -10 43.3300 3.02099   3
  -2   4  10 41.0855 2.66135   2
   1  -4 -10 156.043 7.42781   3
  -1   4  10 154.691 6.58057   2
   0  -4 -10 5.36073 1.33703   3
   0   4  10 5.27958 0.97991   2
  -1  -4 -10 1.04790 0.92249   3
  -2  -4 -10 255.435 11.4923   3
  -3  -4 -10 3.15602 1.29112   3
  -4  -4 -10 61.0526 4.32117   3
  -5  -4 -10 36.7775 3.46585   3
  -9   5  10 241.934 10.4422   2
  -8   5  10 812.363 29.7016   2
  -7   5  10 45.1719 3.29250   2
  -6   5  10 5.43278 1.35537   2
   5  -5 -10 14.5071 1.82257   3
  -5   5  10 14.0818 1.83000   2
   4  -5 -10 160.119 7.58256   3
  -4   5  10 168.305 7.26215   2
   3  -5 -10 9.32139 1.48410   3
  -3   5  10 9.43052 1.46203   2
   2  -5 -10 43.7736 3.13332   3
  -2   5  10 41.3957 2.75693   2
   1  -5 -10 326.746 14.3365   3
  -1   5  10 345.980 12.9703   2
   0  -5 -10 92.3899 5.29181   3
   0   5  10 93.4981 4.59124   2
  -1  -5 -10 416.951 17.5675   3
   1   5  10 415.286 15.8111   2
  -2  -5 -10 345.993 15.0677   3
  -3  -5 -10 20.5363 2.67213   3
  -4  -5 -10 382.161 16.9887   3
  -8   6  10 189.112 9.22631   2
  -7   6  10 -0.5035 1.02167   2
  -6   6  10 49.1268 3.47971   2
   5  -6 -10 94.6142 5.08718   3
  -5   6  10 95.2982 5.05082   2
   4  -6 -10 1.43478 0.90879   3
  -4   6  10 -0.6976 1.00679   2
   3  -6 -10 185.987 8.72149   3
  -3   6  10 187.373 8.12742   2
   2  -6 -10 117.760 6.30994   3
  -2   6  10 125.935 5.86738   2
   1  -6 -10 11.4330 1.89039   3
  -1   6  10 11.4626 1.64946   2
   0  -6 -10 22.2752 2.59379   3
   0   6  10 24.2907 2.24312   2
  -1  -6 -10 289.571 13.1567   3
   1   6  10 299.382 11.7078   2
  -2  -6 -10 51.7200 4.06047   3
  -6   7  10 292.836 12.1491   2
   5  -7 -10 711.084 28.7991   3
  -5   7  10 737.016 26.7579   2
   4  -7 -10 4.60784 1.37500   3
  -4   7  10 2.95585 1.29477   2
   3  -7 -10 505.096 20.8141   3
  -3   7  10 501.632 19.1041   2
   2  -7 -10 54.0629 3.94379   3
  -2   7  10 49.7431 3.49491   2
   1  -7 -10 9.13470 1.75537   3
  -1   7  10 6.87309 1.37811   2
   0  -7 -10 92.7945 5.66332   3
   0   7  10 96.2352 4.99915   2
   1   7  10 -1.2860 0.81026   2
   1  12 -11 215.270 10.1243   3
   0  12 -11 4.33848 1.43544   3
   2  11 -11 23.9034 2.48211   3
   1  11 -11 106.677 5.81623   3
   0  11 -11 445.042 19.1622   3
   0 -11  11 475.289 18.2565   1
  -1  11 -11 277.355 12.7868   3
   1 -11  11 292.371 11.8283   1
  -2  11 -11 100.482 6.12167   3
   2 -11  11 112.231 5.58336   1
  -3  11 -11 215.006 11.0205   3
   3 -11  11 211.547 9.33153   1
   4 -11  11 32.5000 2.83690   1
   7  10 -11 30.8432 2.73188   1
  -7 -10  11 29.6227 2.78860   2
   6  10 -11 4.03344 1.25464   1
   5  10 -11 51.8837 3.44860   1
  -3 -10  11 84.4205 4.57769   1
   2  10 -11 291.382 12.7807   3
  -2 -10  11 306.671 12.2321   1
   1  10 -11 1.13179 0.86767   3
  -1 -10  11 1.38968 0.83354   1
   0  10 -11 11.2037 1.72907   3
   0 -10  11 15.7294 1.88983   1
  -1  10 -11 132.655 7.05336   3
   1 -10  11 142.442 6.55647   1
  -2  10 -11 11.8508 1.93516   3
   2 -10  11 16.6080 1.88566   1
  -3  10 -11 336.944 14.6542   3
   3 -10  11 321.567 13.3707   1
  -4  10 -11 266.979 12.2314   3
   4 -10  11 257.646 11.1246   1
   5 -10  11 394.854 15.8944   1
   8   9 -11 348.741 14.4539   1
  -8  -9  11 362.480 14.1450   2
   7   9 -11 504.018 20.4082   1
  -7  -9  11 555.844 19.9190   2
   6   9 -11 502.357 20.0566   1
  -6  -9  11 541.144 19.4416   2
   5   9 -11 352.092 14.0938   1
  -4  -9  11 546.434 20.8441   1
  -3  -9  11 6.15473 1.24043   1
   2   9 -11 156.548 7.67475   3
  -2  -9  11 177.345 7.53313   1
   1   9 -11 129.533 6.65379   3
  -1  -9  11 145.094 6.44498   1
   0   9 -11 81.6398 4.67609   3
   0  -9  11 81.9565 4.36386   1
  -1   9 -11 166.406 7.97572   3
   1  -9  11 160.686 7.35170   1
  -2   9 -11 561.338 23.2560   3
   2  -9  11 577.938 21.7310   1
  -3   9 -11 99.5416 5.68231   3
   3  -9  11 97.7684 5.14718   1
  -4   9 -11 3.09074 1.23418   3
   4  -9  11 4.90417 1.23970   1
  -5   9 -11 1327.96 51.4964   3
   5  -9  11 1301.64 48.0908   1
   9   8 -11 568.146 22.5823   1
  -9  -8  11 579.962 21.5770   2
   8   8 -11 1.81376 1.04635   1
  -8  -8  11 -0.0481 0.89032   2
   7   8 -11 35.6684 2.88096   1
  -7  -8  11 40.8587 2.82667   2
   6   8 -11 8.51966 1.46251   1
  -6  -8  11 7.02719 1.26558   2
   5   8 -11 0.58632 0.84256   1
  -4  -8  11 54.8163 3.40517   1
  -3  -8  11 69.3832 3.93110   1
   2   8 -11 389.309 16.2201   3
  -2  -8  11 406.773 15.5581   1
   1   8 -11 31.0466 2.50887   3
  -1  -8  11 31.0546 2.50191   1
   0   8 -11 25.9500 2.34483   3
   0  -8  11 24.2978 2.24786   1
  -1   8 -11 226.830 10.1642   3
   1  -8  11 224.233 9.46899   1
  -2   8 -11 469.519 19.2363   3
   2  -8  11 458.898 17.9363   1
  -3   8 -11 127.865 6.58509   3
   3  -8  11 121.666 6.00900   1
  -4   8 -11 32.4953 2.96138   3
   4  -8  11 27.1911 2.48140   1
  -5   8 -11 -0.6131 1.00191   3
   5  -8  11 1.17361 0.94672   1
  -6   8 -11 50.2516 3.95802   3
   6  -8  11 45.6189 3.44718   1
   9   7 -11 81.6905 4.89821   1
  -9  -7  11 86.5699 4.69095   2
   8   7 -11 269.627 11.4231   1
  -8  -7  11 272.846 10.9343   2
   7   7 -11 84.8389 4.76763   1
  -7  -7  11 91.7871 4.50633   2
   6   7 -11 214.031 9.31599   1
  -6  -7  11 223.402 8.83182   2
   5   7 -11 723.640 27.1257   1
  -5  -7  11 727.970 25.8284   2
  -4  -7  11 58.9033 3.56176   1
   3   7 -11 7.50879 1.12416   3
  -3  -7  11 5.53576 1.23172   1
   2   7 -11 1349.19 52.7655   3
  -2  -7  11 1416.42 49.9993   1
   1   7 -11 166.937 7.70962   3
  -1  -7  11 171.960 7.40203   1
   0   7 -11 5.17301 1.16929   3
  -1   7 -11 323.953 14.1731   3
   1  -7  11 349.244 13.3947   1
  -2   7 -11 3.14602 1.11911   3
   2  -7  11 3.84377 1.00849   1
  -3   7 -11 43.4300 3.26475   3
   3  -7  11 40.2637 2.92549   1
  -4   7 -11 217.749 10.1696   3
   4  -7  11 219.085 9.45647   1
  -5   7 -11 74.1644 4.65407   3
   5  -7  11 66.0670 4.14545   1
  -6   7 -11 7.27599 1.68266   3
   6  -7  11 8.31938 1.58754   1
  10   6 -11 65.6995 4.58059   1
 -10  -6  11 69.1273 4.16276   2
   9   6 -11 36.9955 3.05311   1
  -9  -6  11 36.2522 2.80896   2
   8   6 -11 355.002 14.0193   1
  -8  -6  11 334.265 13.2468   2
   7   6 -11 3.49433 1.12220   1
  -7  -6  11 1.20988 0.79460   2
   6   6 -11 759.934 27.9571   1
  -6  -6  11 739.362 26.6732   2
  -5  -6  11 270.861 10.3112   2
  -4  -6  11 0.32657 0.64687   1
   3   6 -11 1.19217 0.58623   3
  -3  -6  11 1.53091 0.78592   1
  -2  -6  11 3.47922 0.94830   1
   1   6 -11 0.94833 0.67992   3
  -1  -6  11 0.41446 0.61525   1
   0   6 -11 53.2503 3.41384   3
   0  -6  11 55.0623 3.19087   1
  -1   6 -11 697.380 27.6407   3
   1  -6  11 700.815 26.0167   1
  -2   6 -11 489.888 20.1547   3
   2  -6  11 500.682 18.9401   1
  -3   6 -11 6.88970 1.44017   3
  -4   6 -11 409.043 17.5559   3
   4  -6  11 428.077 16.4860   1
  -5   6 -11 646.526 26.8031   3
   5  -6  11 679.633 25.1960   1
  -6   6 -11 40.7251 3.44892   3
   6  -6  11 38.6914 3.16316   1
  -7   6 -11 113.589 6.41740   3
  10   5 -11 57.2744 4.00951   1
 -10  -5  11 59.7904 3.71124   2
   9   5 -11 1185.45 43.2514   1
  -9  -5  11 1167.63 41.6163   2
   8   5 -11 0.73221 0.89907   1
  -8  -5  11 0.13511 0.73084   2
   7   5 -11 2.85346 1.06457   1
  -7  -5  11 2.81088 0.89321   2
   6   5 -11 524.493 20.0674   1
  -6  -5  11 528.636 19.1047   2
  -5  -5  11 194.243 7.65467   2
  -4  -5  11 143.379 5.73465   2
  -4  -5  11 140.452 6.38319   1
   3   5 -11 63.7837 3.37936   3
  -3  -5  11 59.1972 3.41993   1
   2   5 -11 622.538 23.9804   3
  -2  -5  11 598.051 22.7460   1
   1   5 -11 1.72386 0.72983   3
  -1  -5  11 3.34681 0.88925   1
   0   5 -11 296.887 12.4542   3
   0  -5  11 294.441 11.7309   1
  -1   5 -11 1227.39 47.2966   3
   1  -5  11 1229.92 44.4956   1
  -2   5 -11 647.944 25.2476   3
   2  -5  11 614.570 23.5903   1
  -3   5 -11 259.001 11.2874   3
   3  -5  11 248.154 10.4517   1
  -4   5 -11 41.7017 3.35643   3
   4  -5  11 46.3626 3.12639   1
  -5   5 -11 77.6035 4.82197   3
   5  -5  11 73.4151 4.29446   1
  -6   5 -11 23.1108 2.57528   3
   6  -5  11 21.2301 2.42966   1
  -7   5 -11 39.2846 3.38088   3
   7  -5  11 38.8553 3.12800   1
  10   4 -11 44.8423 3.46848   1
 -10  -4  11 44.0958 3.12090   2
   9   4 -11 84.3203 4.78948   1
  -9  -4  11 84.6494 4.45873   2
   8   4 -11 111.520 5.52032   1
  -8  -4  11 105.054 5.09899   2
   7   4 -11 73.8955 4.12254   1
  -7  -4  11 72.2406 3.77336   2
   6   4 -11 474.528 18.1492   1
  -6  -4  11 472.514 17.2819   2
  -5  -4  11 14.6852 1.45054   2
  -4  -4  11 2.60683 0.67155   2
  -4  -4  11 3.36817 0.86931   1
   3   4 -11 51.4981 2.83972   3
  -3  -4  11 46.6618 2.88065   1
   2   4 -11 89.4710 4.39420   3
  -2  -4  11 84.8049 4.27050   1
   1   4 -11 6.20203 1.06317   3
  -1  -4  11 3.64632 0.90132   1
   0   4 -11 558.969 21.9880   3
   0  -4  11 545.584 20.6625   1
  -1   4 -11 181.643 8.45282   3
   1  -4  11 194.929 7.99634   1
  -2   4 -11 1.37825 0.86407   3
   2  -4  11 1.86320 0.74450   1
  -3   4 -11 44.3240 3.21456   3
   3  -4  11 46.3608 2.93043   1
  -4   4 -11 98.2235 5.56559   3
   4  -4  11 109.708 5.27977   1
  -5   4 -11 875.109 35.4159   3
   5  -4  11 920.429 33.3142   1
  -6   4 -11 222.316 10.3278   3
   6  -4  11 217.320 9.60902   1
  -7   4 -11 359.565 15.7981   3
   7  -4  11 364.620 14.8361   1
 -11  -3  11 165.686 7.91972   2
  10   3 -11 126.954 6.32332   1
 -10  -3  11 119.629 5.97752   2
   9   3 -11 25.4286 2.51594   1
  -9  -3  11 22.7635 2.21191   2
   8   3 -11 4.72258 1.18182   1
  -8  -3  11 3.67267 0.98319   2
   7   3 -11 662.505 24.8055   1
  -7  -3  11 660.548 23.8014   2
   6   3 -11 220.528 9.15555   1
  -6  -3  11 217.750 8.60120   2
  -5  -3  11 1520.44 52.5780   2
  -4  -3  11 760.433 26.6421   2
  -4  -3  11 756.503 27.9332   1
   3   3 -11 242.374 9.79645   3
  -3  -3  11 220.512 9.43038   1
  -3  -3  11 239.777 8.78609   2
   2   3 -11 370.610 14.3987   3
  -2  -3  11 337.802 13.6246   1
   1   3 -11 887.300 34.0138   3
  -1  -3  11 870.881 32.0445   1
   0   3 -11 6.52440 1.12880   3
  -1   3 -11 378.629 15.7319   3
   1  -3  11 386.557 14.7517   1
  -2   3 -11 139.940 6.67296   3
   2  -3  11 133.361 6.09309   1
  -3   3 -11 44.9194 3.22411   3
   3  -3  11 46.2832 2.93071   1
  -4   3 -11 338.516 14.3612   3
   4  -3  11 333.040 13.3448   1
  -5   3 -11 258.295 11.3260   3
   5  -3  11 236.642 10.3332   1
  -6   3 -11 70.7080 4.53044   3
   6  -3  11 63.6192 4.05478   1
  -7   3 -11 1162.41 44.7735   3
   7  -3  11 1121.53 42.0651   1
  11   2 -11 1.85494 1.14844   1
 -11  -2  11 0.00596 1.04024   2
  10   2 -11 73.6979 4.52903   1
 -10  -2  11 80.6682 4.39674   2
   9   2 -11 39.6039 2.98932   1
  -9  -2  11 42.0437 2.86331   2
   8   2 -11 210.892 8.88143   1
  -8  -2  11 201.893 8.46928   2
   7   2 -11 776.808 28.4138   1
  -7  -2  11 755.770 27.3476   2
   6   2 -11 118.124 5.57645   1
  -6  -2  11 125.587 5.34396   2
  -5  -2  11 16.6395 1.45573   2
   4   2 -11 63.6392 3.19318   3
  -4  -2  11 64.0660 3.38920   1
  -4  -2  11 60.0029 2.97946   2
  -3  -2  11 39.9784 2.52717   1
  -3  -2  11 41.5662 2.15329   2
   2   2 -11 787.845 30.2666   3
  -2  -2  11 778.104 28.6323   1
   1   2 -11 587.245 23.2885   3
  -1  -2  11 597.732 21.9818   1
   0   2 -11 225.299 9.87029   3
   0  -2  11 232.658 9.25674   1
  -1   2 -11 52.6867 3.27787   3
   1  -2  11 49.1078 2.93397   1
  -2   2 -11 129.357 6.31121   3
   2  -2  11 125.507 5.74001   1
  -3   2 -11 285.639 12.1612   3
   3  -2  11 275.066 11.2177   1
  -4   2 -11 189.589 8.78168   3
   4  -2  11 186.232 8.09009   1
  -5   2 -11 7.45313 1.63525   3
   5  -2  11 7.63096 1.34629   1
  -6   2 -11 0.70280 1.08063   3
   6  -2  11 0.90600 0.82530   1
  -7   2 -11 212.414 9.85063   3
   7  -2  11 199.041 9.09264   1
  11   1 -11 297.462 12.6041   1
 -11  -1  11 304.386 12.3434   2
  10   1 -11 73.2821 4.37866   1
 -10  -1  11 76.4644 4.30372   2
   9   1 -11 20.7164 2.14463   1
  -9  -1  11 23.0414 2.23623   2
   8   1 -11 91.9746 4.63228   1
  -8  -1  11 85.0210 4.40938   2
   7   1 -11 15.5036 1.71176   1
  -7  -1  11 16.1215 1.69395   2
   6   1 -11 174.216 7.42052   1
  -6  -1  11 175.690 7.15366   2
   5   1 -11 13.1981 1.46163   1
  -5  -1  11 15.1516 1.37276   2
   4   1 -11 325.159 13.1503   3
  -4  -1  11 325.808 12.0821   2
  -4  -1  11 335.244 12.7758   1
   3   1 -11 270.339 11.1229   3
  -3  -1  11 269.469 10.6510   1
  -3  -1  11 271.939 10.0260   2
   2   1 -11 22.2370 1.87066   3
  -2  -1  11 26.9329 1.93922   1
   1   1 -11 42.3202 2.73326   3
  -1  -1  11 39.7211 2.53647   1
   0   1 -11 2983.27 112.370   3
   0  -1  11 2984.40 105.645   1
  -1   1 -11 128.358 6.15762   3
   1  -1  11 126.290 5.66622   1
  -2   1 -11 152.513 7.25274   3
   2  -1  11 156.882 6.69103   1
  -3   1 -11 3.47012 1.12544   3
   3  -1  11 1.58868 0.72992   1
  -4   1 -11 5.83852 1.35510   3
   4  -1  11 6.94498 1.18115   1
  -5   1 -11 44.8857 3.38177   3
   5  -1  11 43.5656 2.97650   1
  -6   1 -11 5.47063 1.47989   3
   6  -1  11 6.48997 1.27841   1
  -7   1 -11 20.2540 2.63243   3
   7  -1  11 21.3005 2.29314   1
  11   0 -11 39.3500 3.10101   1
  10   0 -11 32.1646 2.72131   1
 -10   0  11 32.9990 2.81943   2
   9   0 -11 164.474 7.43836   1
  -9   0  11 169.588 7.39026   2
   8   0 -11 64.5770 3.68940   1
  -8   0  11 68.8934 3.77533   2
   7   0 -11 155.401 6.79773   1
  -7   0  11 154.567 6.65333   2
   6   0 -11 31.2831 2.25735   1
  -6   0  11 34.7479 2.28746   2
   5   0 -11 58.6629 3.18211   1
  -5   0  11 61.1432 3.12955   2
   4   0 -11 58.0787 3.03359   3
  -4   0  11 50.7712 2.77660   2
  -4   0  11 55.4616 2.99341   1
   3   0 -11 371.186 15.1120   3
  -3   0  11 384.951 14.3094   1
  -3   0  11 372.053 13.6899   2
   2   0 -11 0.85838 0.64939   3
  -2   0  11 2.57138 0.69856   1
  -2   0  11 1.60654 0.55243   2
   1   0 -11 75.6897 4.09573   3
  -1   0  11 76.5509 3.70726   1
   0   0 -11 126.450 6.01144   3
   0   0  11 117.208 5.32170   1
  -1   0 -11 100.424 5.24434   3
   1   0  11 100.447 4.68007   1
  -2   0 -11 19.3017 2.12064   3
   2   0  11 17.1973 1.72536   1
  -3   0 -11 1734.00 67.7507   3
   3   0  11 1810.45 63.4777   1
  -4   0 -11 257.872 11.2228   3
   4   0  11 238.085 10.0934   1
  -5   0 -11 -0.1756 0.92327   3
   5   0  11 -0.6100 0.73334   1
  -6   0 -11 49.1975 3.69258   3
   6   0  11 45.2218 3.16280   1
  11  -1 -11 352.379 14.3099   1
  10  -1 -11 114.395 5.80297   1
 -10   1  11 121.264 5.98157   2
   9  -1 -11 68.3488 3.91040   1
  -9   1  11 68.2292 4.01434   2
   8  -1 -11 54.2312 3.30980   1
  -8   1  11 61.3065 3.55409   2
   7  -1 -11 1883.34 68.7644   1
  -7   1  11 1968.41 66.8349   2
   6  -1 -11 123.505 5.50117   1
  -6   1  11 123.587 5.50766   2
   5  -1 -11 11.6335 1.29544   1
  -5   1  11 10.9943 1.37786   2
   4  -1 -11 19.5915 1.66126   3
  -4   1  11 18.0939 1.65894   2
   3  -1 -11 4.23013 0.91580   3
  -3   1  11 3.36720 0.77403   1
  -3   1  11 4.94059 0.88025   2
   2  -1 -11 324.898 13.6144   3
  -2   1  11 328.284 12.1709   2
  -2   1  11 336.673 12.6178   1
   1  -1 -11 33.5743 2.49901   3
  -1   1  11 30.7827 2.07684   1
   0  -1 -11 984.343 39.6501   3
   0   1  11 1063.72 36.9982   1
  -1  -1 -11 5.28871 1.22512   3
   1   1  11 9.35271 1.21532   1
  -2  -1 -11 418.397 17.3900   3
   2   1  11 420.724 16.1509   1
  -3  -1 -11 1059.34 41.3410   3
  -4  -1 -11 812.174 32.2820   3
  -5  -1 -11 205.186 9.77449   3
  -6  -1 -11 55.5198 4.09047   3
 -10   2  11 1191.91 42.5644   2
  -9   2  11 1.77006 1.06124   2
  -8   2  11 3.93429 1.20108   2
  -7   2  11 300.947 11.8131   2
  -6   2  11 24.0813 2.06761   2
  -5   2  11 1.93171 0.86648   2
   4  -2 -11 748.941 29.5366   3
  -4   2  11 772.290 27.1259   2
   3  -2 -11 3.57724 0.93558   3
  -3   2  11 4.30450 0.95091   2
   2  -2 -11 31.8291 2.43643   3
  -2   2  11 30.0128 2.07713   2
   1  -2 -11 193.233 8.84721   3
  -1   2  11 199.939 7.95188   2
   0  -2 -11 26.8776 2.53069   3
  -1  -2 -11 272.470 11.9565   3
  -2  -2 -11 220.506 10.1247   3
  -3  -2 -11 22.2959 2.60360   3
  -4  -2 -11 1.21035 1.14500   3
  -5  -2 -11 38.1036 3.35988   3
  -9   3  11 77.5322 4.53507   2
  -8   3  11 19.0843 2.13944   2
  -7   3  11 485.792 18.2630   2
  -6   3  11 25.7734 2.25196   2
   5  -3 -11 144.466 6.84848   3
  -5   3  11 144.502 6.41002   2
   4  -3 -11 865.831 33.8441   3
  -4   3  11 878.629 31.0507   2
   3  -3 -11 1113.89 43.6240   3
  -3   3  11 1151.76 39.8143   2
   2  -3 -11 507.505 20.6120   3
  -2   3  11 512.563 18.6417   2
   1  -3 -11 48.0263 3.41690   3
  -1   3  11 53.4952 2.91425   2
   0  -3 -11 -0.8230 0.67629   3
  -1  -3 -11 75.7067 4.58063   3
  -2  -3 -11 3.72998 1.30169   3
  -3  -3 -11 21.4949 2.64163   3
  -4  -3 -11 62.0894 4.34324   3
  -9   4  11 34.0007 3.13889   2
  -8   4  11 120.123 6.01505   2
  -7   4  11 23.4703 2.48856   2
  -6   4  11 258.751 10.6049   2
   5  -4 -11 294.256 12.6526   3
  -5   4  11 311.579 11.9918   2
   4  -4 -11 16.6734 1.97885   3
  -4   4  11 21.2393 2.04410   2
   3  -4 -11 118.751 6.15602   3
  -3   4  11 130.282 5.77291   2
   2  -4 -11 0.66275 0.78834   3
  -2   4  11 1.83209 0.81376   2
   1  -4 -11 149.809 7.56893   3
  -1   4  11 161.887 6.74183   2
   0  -4 -11 196.098 9.27455   3
  -1  -4 -11 3.47598 1.27569   3
  -2  -4 -11 75.2843 4.81096   3
  -3  -4 -11 109.214 6.31207   3
  -8   5  11 1.89591 1.26897   2
  -7   5  11 12.2840 1.94779   2
  -6   5  11 78.5325 4.51789   2
   5  -5 -11 23.0612 2.24286   3
  -5   5  11 26.1165 2.40500   2
   4  -5 -11 3.58004 1.06483   3
  -4   5  11 2.24082 1.04732   2
   3  -5 -11 3.70139 1.12857   3
  -3   5  11 5.48970 1.29007   2
   2  -5 -11 364.301 15.4878   3
  -2   5  11 366.724 14.1061   2
   1  -5 -11 540.350 22.3180   3
  -1   5  11 548.453 20.1260   2
   0  -5 -11 290.890 12.9699   3
  -1  -5 -11 8.87328 1.73551   3
  -2  -5 -11 288.905 13.1328   3
  -6   6  11 -1.5068 0.94901   2
   5  -6 -11 0.39961 0.92402   3
  -5   6  11 0.93707 1.08036   2
   4  -6 -11 34.2839 3.02780   3
  -4   6  11 36.8792 3.03983   2
   3  -6 -11 4.39522 1.36263   3
  -3   6  11 3.51135 1.25824   2
   2  -6 -11 11.2121 1.85434   3
  -2   6  11 14.5603 1.90463   2
   1  -6 -11 607.630 25.0074   3
  -1   6  11 615.523 22.6020   2
   0  -6 -11 5.94961 1.52041   3
   5  -7 -11 124.013 6.53338   3
   4  -7 -11 28.5041 2.82827   3
  -4   7  11 31.6509 3.14243   2
   3  -7 -11 2.32968 1.28286   3
  -3   7  11 3.17812 1.18991   2
  -2   7  11 175.448 7.94763   2
  -1   7  11 1.60076 1.03613   2
   1  12 -12 358.935 15.6537   3
  -3 -11  12 49.2224 3.72608   1
  -2 -11  12 35.5675 2.99223   1
   1  11 -12 304.867 14.3420   3
  -1 -11  12 363.824 13.8076   1
   0  11 -12 22.2287 2.76383   3
   0 -11  12 27.7998 2.69127   1
  -1  11 -12 19.5399 2.57185   3
   1 -11  12 17.9426 2.15780   1
   2 -11  12 1.67105 1.09854   1
   3 -11  12 9.51615 1.66177   1
   7  10 -12 67.9385 4.51670   1
   6  10 -12 8.28164 1.61244   1
   5  10 -12 151.797 7.21427   1
  -3 -10  12 0.31172 0.86765   1
   2  10 -12 16.3200 2.07950   3
  -2 -10  12 19.3982 2.18502   1
   1  10 -12 72.4173 4.56808   3
  -1 -10  12 83.9747 4.53811   1
   0  10 -12 0.03566 0.89093   3
   0 -10  12 1.15450 0.93950   1
  -1  10 -12 69.3585 4.62618   3
   1 -10  12 69.9354 4.20082   1
  -2  10 -12 290.793 13.3615   3
   2 -10  12 305.372 12.4078   1
  -3  10 -12 297.594 13.5191   3
   3 -10  12 296.600 12.4408   1
   4 -10  12 40.4206 3.42891   1
  -8  -9  12 337.606 13.4821   2
   7   9 -12 51.4728 3.66713   1
   6   9 -12 96.9640 5.25426   1
   5   9 -12 132.577 6.49609   1
  -4  -9  12 116.030 5.82762   1
  -3  -9  12 46.0803 3.21893   1
   2   9 -12 64.6483 3.95555   3
  -2  -9  12 67.6455 3.99645   1
   1   9 -12 14.7208 1.92215   3
  -1  -9  12 12.2625 1.77316   1
   0   9 -12 334.038 14.3979   3
   0  -9  12 339.912 13.6061   1
  -1   9 -12 438.302 18.7615   3
   1  -9  12 462.644 17.7103   1
  -2   9 -12 207.820 9.88310   3
   2  -9  12 208.814 9.15444   1
  -3   9 -12 466.604 19.7200   3
   3  -9  12 466.176 18.3307   1
  -4   9 -12 67.6033 4.81633   3
   4  -9  12 68.3199 4.29017   1
   8   8 -12 182.389 8.57387   1
  -8  -8  12 190.810 8.18345   2
   7   8 -12 116.577 6.02138   1
  -7  -8  12 116.448 5.58378   2
   6   8 -12 21.0503 2.31332   1
   5   8 -12 89.9804 4.89331   1
  -4  -8  12 21.8839 2.26499   1
  -3  -8  12 4.01011 1.14322   1
   2   8 -12 3.10260 0.98459   3
  -2  -8  12 4.93563 1.13622   1
   1   8 -12 490.244 20.3395   3
  -1  -8  12 515.755 19.3793   1
   0   8 -12 67.8244 4.10319   3
   0  -8  12 66.7592 3.91068   1
  -1   8 -12 61.6096 4.04070   3
   1  -8  12 64.4079 3.80878   1
  -2   8 -12 116.567 6.36965   3
   2  -8  12 120.548 5.91153   1
  -3   8 -12 66.0822 4.41801   3
   3  -8  12 63.9751 3.96446   1
  -4   8 -12 36.8793 3.29771   3
   4  -8  12 32.7553 2.81268   1
  -5   8 -12 0.94164 1.51732   3
   5  -8  12 5.55459 1.43192   1
   9   7 -12 127.989 7.03808   1
  -9  -7  12 136.744 6.38659   2
   8   7 -12 216.071 9.71026   1
  -8  -7  12 221.257 9.15929   2
   7   7 -12 60.8266 3.95444   1
  -7  -7  12 62.9410 3.56539   2
   6   7 -12 249.513 10.5870   1
  -4  -7  12 679.754 25.5887   1
  -3  -7  12 85.1431 4.55102   1
   2   7 -12 16.0148 1.91332   3
  -2  -7  12 22.3093 2.08642   1
   1   7 -12 3.45670 1.02978   3
  -1  -7  12 2.77152 0.96897   1
   0   7 -12 2.31539 0.93994   3
   0  -7  12 -0.4812 0.57160   1
  -1   7 -12 17.1926 2.04398   3
   1  -7  12 19.5092 2.05547   1
  -2   7 -12 189.720 9.07556   3
   2  -7  12 197.212 8.54200   1
  -3   7 -12 15.9917 2.15310   3
   3  -7  12 16.5054 2.02282   1
  -4   7 -12 6.58772 1.53766   3
   4  -7  12 4.28708 1.23969   1
  -5   7 -12 416.315 17.4640   3
   5  -7  12 388.472 16.1500   1
   9   6 -12 0.98423 1.05666   1
  -9  -6  12 0.98877 0.93436   2
   8   6 -12 120.635 6.15088   1
  -8  -6  12 120.762 5.66973   2
   7   6 -12 210.662 9.16871   1
  -7  -6  12 205.059 8.48484   2
   6   6 -12 160.852 7.38378   1
  -6  -6  12 161.621 6.76375   2
  -5  -6  12 292.394 11.9547   1
  -4  -6  12 4.36437 1.10644   1
   3   6 -12 61.1380 3.51673   3
  -3  -6  12 62.7867 3.66340   1
   2   6 -12 138.388 6.67604   3
  -2  -6  12 147.059 6.58726   1
   1   6 -12 983.870 38.7851   3
  -1  -6  12 1018.68 36.6608   1
   0   6 -12 0.48214 0.72241   3
   0  -6  12 -1.0368 0.72241   1
  -1   6 -12 469.898 19.4757   3
   1  -6  12 481.261 18.3343   1
  -2   6 -12 441.877 18.3523   3
   2  -6  12 441.912 17.2141   1
  -3   6 -12 2.90883 1.12496   3
   3  -6  12 0.54056 0.86364   1
  -4   6 -12 84.2837 5.16003   3
   4  -6  12 84.9593 4.76451   1
  -5   6 -12 89.2184 5.46651   3
   5  -6  12 88.2358 4.99325   1
  -6   6 -12 -0.2993 0.96121   3
   6  -6  12 -0.4077 0.84951   1
 -10  -5  12 15.1084 1.96994   2
   9   5 -12 47.3146 3.54674   1
  -9  -5  12 47.3980 3.19892   2
   8   5 -12 222.800 9.66570   1
  -8  -5  12 218.337 9.03256   2
   7   5 -12 19.2813 2.23244   1
  -7  -5  12 18.5663 1.85390   2
   6   5 -12 616.444 23.2590   1
  -6  -5  12 611.565 22.0813   2
  -5  -5  12 74.4968 3.77414   2
  -5  -5  12 71.2098 4.05753   1
  -4  -5  12 211.044 8.98223   1
   3   5 -12 176.401 7.70231   3
  -3  -5  12 170.728 7.59751   1
   2   5 -12 926.054 35.1748   3
  -2  -5  12 887.724 33.2698   1
   1   5 -12 789.164 30.8120   3
  -1  -5  12 784.437 29.0786   1
   0   5 -12 51.4288 3.34576   3
   0  -5  12 45.4185 3.05173   1
  -1   5 -12 368.649 15.6998   3
   1  -5  12 381.723 14.7702   1
  -2   5 -12 388.459 16.6830   3
   2  -5  12 409.771 15.6900   1
  -3   5 -12 193.504 9.01613   3
   3  -5  12 188.479 8.34938   1
  -4   5 -12 0.13595 0.98313   3
   4  -5  12 0.24020 0.80398   1
  -5   5 -12 1.29697 1.15315   3
   5  -5  12 3.15687 1.19101   1
  -6   5 -12 97.4720 5.89085   3
   6  -5  12 102.161 5.51054   1
  10   4 -12 1.65125 1.10660   1
 -10  -4  12 2.11959 0.97131   2
   9   4 -12 -0.1050 0.87641   1
  -9  -4  12 0.38813 0.86297   2
   8   4 -12 614.500 23.1521   1
  -8  -4  12 595.359 22.1015   2
   7   4 -12 4.44985 1.14779   1
  -7  -4  12 5.00833 1.06316   2
   6   4 -12 114.600 5.48777   1
  -6  -4  12 107.487 4.94665   2
  -5  -4  12 14.1248 1.80425   1
  -5  -4  12 20.3868 1.59195   2
  -4  -4  12 198.919 8.47452   1
   3   4 -12 226.612 9.30989   3
  -3  -4  12 206.936 8.99829   1
   2   4 -12 190.401 8.36362   3
  -2  -4  12 187.455 8.03391   1
   1   4 -12 50.0559 3.18116   3
  -1  -4  12 48.6711 2.99378   1
   0   4 -12 123.402 6.06306   3
   0  -4  12 123.738 5.70282   1
  -1   4 -12 19.0910 2.14305   3
   1  -4  12 17.1030 1.87530   1
   2  -4  12 62.2452 3.60776   1
  -3   4 -12 126.965 6.45988   3
   3  -4  12 120.377 5.92502   1
  -4   4 -12 1165.78 46.8007   3
   4  -4  12 1239.83 44.0018   1
  -5   4 -12 792.234 31.8091   3
   5  -4  12 798.307 29.8355   1
  -6   4 -12 94.0739 5.58109   3
   6  -4  12 84.5846 5.07285   1
  10   3 -12 47.8346 3.51277   1
 -10  -3  12 48.0710 3.28425   2
   9   3 -12 790.159 29.9117   1
  -9  -3  12 803.689 28.7726   2
   8   3 -12 213.868 9.30875   1
  -8  -3  12 214.949 8.81871   2
   7   3 -12 101.126 5.08380   1
  -7  -3  12 96.0455 4.63620   2
   6   3 -12 1271.95 45.9076   1
  -6  -3  12 1257.64 44.0970   2
  -5  -3  12 104.024 5.01521   1
  -5  -3  12 99.9421 4.48451   2
  -4  -3  12 2.39595 0.80350   1
   3   3 -12 35.5172 2.40055   3
  -3  -3  12 40.5604 2.59970   1
   2   3 -12 18.0036 1.80597   3
  -2  -3  12 20.4094 1.84306   1
   1   3 -12 62.3702 3.64913   3
  -1  -3  12 60.3815 3.41282   1
   0   3 -12 3.52478 1.01430   3
   0  -3  12 4.01956 1.00787   1
  -1   3 -12 1682.64 66.8495   3
   1  -3  12 1823.49 62.9485   1
  -2   3 -12 311.753 13.5158   3
   2  -3  12 319.358 12.6080   1
  -3   3 -12 57.9117 3.92190   3
   3  -3  12 58.9648 3.55566   1
  -4   3 -12 591.496 23.8246   3
   4  -3  12 575.721 22.1661   1
  -5   3 -12 1180.63 45.1479   3
   5  -3  12 1125.50 42.2310   1
  -6   3 -12 31.3677 3.04487   3
   6  -3  12 28.1545 2.83684   1
  10   2 -12 7.76302 1.52428   1
 -10  -2  12 6.74719 1.38396   2
   9   2 -12 192.720 8.49752   1
  -9  -2  12 185.516 8.08055   2
   8   2 -12 110.548 5.46917   1
  -8  -2  12 107.975 5.18744   2
   7   2 -12 0.87227 0.74680   1
  -7  -2  12 0.08594 0.62294   2
   6   2 -12 51.6029 3.13863   1
  -6  -2  12 47.3757 2.82498   2
  -5  -2  12 14.4830 1.41273   2
  -4  -2  12 92.4347 4.06471   2
  -4  -2  12 91.8279 4.55976   1
   3   2 -12 414.595 16.5739   3
  -3  -2  12 414.849 15.8942   1
   2   2 -12 666.740 25.7696   3
  -2  -2  12 649.247 24.3622   1
   1   2 -12 186.902 8.34107   3
  -1  -2  12 188.984 7.89816   1
   0   2 -12 43.5127 2.97703   3
   0  -2  12 45.6702 2.76323   1
  -1   2 -12 5.69246 1.33055   3
   1  -2  12 8.40078 1.27156   1
  -2   2 -12 405.229 17.2322   3
   2  -2  12 430.333 16.1632   1
  -3   2 -12 97.3242 5.49997   3
   3  -2  12 107.710 5.14640   1
  -4   2 -12 31.2320 3.02663   3
   4  -2  12 44.1161 2.90845   1
  -5   2 -12 22.1127 2.74091   3
   5  -2  12 21.1376 2.17553   1
  -6   2 -12 18.5346 2.47827   3
   6  -2  12 21.1573 2.22664   1
  10   1 -12 44.1459 3.27614   1
 -10  -1  12 43.5926 3.18959   2
   9   1 -12 3.81927 1.08399   1
  -9  -1  12 5.36219 1.23602   2
   8   1 -12 23.1213 2.15742   1
  -8  -1  12 21.8174 2.07832   2
   7   1 -12 29.9087 2.34726   1
  -7  -1  12 26.6542 2.13109   2
   6   1 -12 1103.00 40.1789   1
  -6  -1  12 1110.70 38.8273   2
   5   1 -12 318.915 12.5481   1
  -5  -1  12 318.786 11.9448   2
   4   1 -12 121.650 5.54637   3
  -4  -1  12 121.519 5.53909   1
  -4  -1  12 117.710 5.04375   2
   3   1 -12 330.153 13.5672   3
  -3  -1  12 335.760 12.9784   1
   2   1 -12 1061.44 40.4435   3
  -2  -1  12 1038.92 38.0594   1
   1   1 -12 93.8192 4.79268   3
  -1  -1  12 90.3904 4.43159   1
   0   1 -12 3.24384 1.03864   3
  -1   1 -12 60.2527 3.85145   3
   1  -1  12 63.7774 3.47379   1
  -2   1 -12 118.844 6.18874   3
   2  -1  12 123.046 5.65349   1
  -3   1 -12 68.1467 4.32947   3
   3  -1  12 71.8985 3.88493   1
  -4   1 -12 15.2308 2.16986   3
   4  -1  12 18.2948 1.95205   1
  -5   1 -12 33.1964 3.04783   3
   5  -1  12 35.2446 2.71773   1
  -6   1 -12 12.9552 2.05190   3
   6  -1  12 11.4210 1.69805   1
  10   0 -12 95.7334 5.17503   1
 -10   0  12 98.1154 5.18376   2
   9   0 -12 235.992 9.92813   1
  -9   0  12 233.346 9.74605   2
   8   0 -12 134.697 6.20825   1
  -8   0  12 130.795 6.10040   2
   7   0 -12 21.8133 2.04115   1
  -7   0  12 24.3651 2.08179   2
   6   0 -12 75.8160 3.95128   1
  -6   0  12 77.3479 3.86596   2
   5   0 -12 380.796 14.7763   1
  -5   0  12 390.546 14.3171   2
   4   0 -12 0.23755 0.55871   3
  -4   0  12 3.32702 0.84505   1
  -4   0  12 1.94341 0.64813   2
   3   0 -12 29.3858 2.11626   3
  -3   0  12 19.9731 1.78253   1
  -3   0  12 22.3765 1.78348   2
   2   0 -12 104.386 5.29679   3
  -2   0  12 108.764 4.92499   1
   1   0 -12 5.87515 1.18874   3
  -1   0  12 4.68293 0.95530   1
   0   0 -12 20.0171 2.24776   3
   0   0  12 21.4251 1.90540   1
  -1   0 -12 2182.48 85.0497   3
   1   0  12 2295.32 79.7761   1
  -2   0 -12 3.12532 1.19165   3
   2   0  12 1.74501 0.99045   1
  -3   0 -12 185.384 8.72948   3
   3   0  12 174.819 7.75037   1
  -4   0 -12 87.9998 5.21734   3
   4   0  12 84.8699 4.51960   1
  -5   0 -12 24.6125 2.71187   3
  10  -1 -12 330.117 13.2863   1
 -10   1  12 320.836 13.0991   2
   9  -1 -12 347.673 13.8806   1
  -9   1  12 348.485 13.7383   2
   8  -1 -12 113.687 5.56185   1
  -8   1  12 123.162 5.71263   2
   7  -1 -12 182.891 7.83757   1
  -7   1  12 186.508 7.83566   2
   6  -1 -12 7.30918 1.16509   1
  -6   1  12 7.96264 1.25782   2
   5  -1 -12 98.6677 4.55693   1
  -5   1  12 94.9110 4.55948   2
   4  -1 -12 235.483 9.92224   3
  -4   1  12 229.835 9.11781   2
   3  -1 -12 173.581 7.86335   3
  -3   1  12 172.513 7.07093   2
  -3   1  12 178.608 7.31624   1
   2  -1 -12 257.544 11.3939   3
  -2   1  12 276.226 10.6601   1
   1  -1 -12 406.668 16.7995   3
   0  -1 -12 543.196 22.0014   3
  -1  -1 -12 361.916 15.3807   3
  -2  -1 -12 74.1644 4.63032   3
  -3  -1 -12 447.144 18.7961   3
  -4  -1 -12 8.28871 1.71995   3
  -5  -1 -12 10.5057 1.90226   3
  -9   2  12 20.8752 2.43125   2
  -8   2  12 0.97529 0.94820   2
  -7   2  12 19.5786 2.05563   2
  -6   2  12 152.316 6.70014   2
  -5   2  12 0.88413 0.81907   2
   4  -2 -12 0.12215 0.68360   3
  -4   2  12 3.47833 0.95597   2
   3  -2 -12 4.38333 1.12163   3
  -3   2  12 6.77039 1.10922   2
   2  -2 -12 11.9418 1.66248   3
   1  -2 -12 1.32197 0.97637   3
   0  -2 -12 258.473 11.4975   3
  -1  -2 -12 30.9274 2.95321   3
  -2  -2 -12 16.2652 2.19894   3
  -3  -2 -12 199.850 9.63885   3
  -4  -2 -12 125.047 6.94642   3
  -9   3  12 118.947 6.10152   2
  -8   3  12 391.026 15.2549   2
  -7   3  12 277.160 11.2656   2
  -6   3  12 157.437 7.07786   2
  -5   3  12 2.69478 0.99318   2
   4  -3 -12 445.767 18.6992   3
  -4   3  12 479.109 17.2978   2
   3  -3 -12 30.1634 2.68133   3
  -3   3  12 37.4988 2.51666   2
   2  -3 -12 51.8593 3.55969   3
   1  -3 -12 9.01851 1.60922   3
   0  -3 -12 4.24011 1.26535   3
  -1  -3 -12 6.38967 1.50627   3
  -2  -3 -12 40.8826 3.42633   3
  -3  -3 -12 736.064 29.8227   3
  -8   4  12 44.4275 3.44892   2
  -7   4  12 710.365 26.1712   2
  -6   4  12 36.2668 2.95211   2
  -5   4  12 14.4421 1.85904   2
   4  -4 -12 21.8273 2.17131   3
  -4   4  12 20.6544 2.15763   2
   3  -4 -12 109.888 5.98551   3
  -3   4  12 123.139 5.62010   2
   2  -4 -12 69.5512 4.45388   3
  -2   4  12 77.2067 4.09179   2
   1  -4 -12 93.8031 5.44599   3
   0  -4 -12 56.1381 4.03501   3
  -1  -4 -12 0.69706 1.13477   3
  -2  -4 -12 76.4273 5.16691   3
  -7   5  12 120.317 6.24470   2
  -6   5  12 14.2513 2.04922   2
  -5   5  12 0.79770 0.97531   2
   4  -5 -12 704.629 28.7506   3
  -4   5  12 743.829 26.5570   2
   3  -5 -12 285.135 12.7321   3
  -3   5  12 295.756 11.7501   2
   2  -5 -12 1.05551 0.95051   3
  -2   5  12 -0.6182 0.88821   2
   1  -5 -12 519.382 21.5966   3
   0  -5 -12 54.1716 4.08540   3
  -5   6  12 4.02173 1.42910   2
   4  -6 -12 9.57407 1.72964   3
  -4   6  12 9.20093 1.68216   2
   3  -6 -12 103.685 5.92364   3
  -3   6  12 107.022 5.55502   2
  -2   6  12 0.26567 0.95361   2
  -3 -11  13 516.573 20.2966   1
  -2 -11  13 6.32340 1.46596   1
   1  11 -13 -0.9075 1.00764   3
  -1 -11  13 1.27365 0.99747   1
   0  11 -13 4.30533 1.53850   3
   0 -11  13 6.61079 1.50788   1
   1 -11  13 4.57235 1.38901   1
   5  10 -13 29.1696 2.80407   1
  -4 -10  13 34.0230 2.99912   1
  -3 -10  13 27.5347 2.76432   1
  -2 -10  13 7.68532 1.64641   1
   1  10 -13 119.457 6.54781   3
  -1 -10  13 132.005 6.45803   1
   0  10 -13 1425.23 56.8241   3
   0 -10  13 1513.94 53.6091   1
  -1  10 -13 113.222 6.45331   3
   1 -10  13 117.432 6.13744   1
  -2  10 -13 12.6164 2.12550   3
   2 -10  13 12.0142 1.97765   1
   6   9 -13 64.6282 4.16514   1
   5   9 -13 78.6111 4.73900   1
  -4  -9  13 92.4161 5.16927   1
  -3  -9  13 106.418 5.64327   1
   2   9 -13 11.8167 1.73133   3
  -2  -9  13 10.2485 1.80026   1
   1   9 -13 348.406 14.9866   3
  -1  -9  13 356.681 14.3327   1
   0   9 -13 586.874 23.9675   3
   0  -9  13 589.461 22.5801   1
  -1   9 -13 322.552 14.3589   3
   1  -9  13 330.924 13.4742   1
  -2   9 -13 95.3013 5.69553   3
   2  -9  13 92.2190 5.13657   1
  -3   9 -13 4.90756 1.64017   3
   3  -9  13 3.29429 1.20874   1
   7   8 -13 975.994 36.3926   1
   6   8 -13 4.38241 1.32897   1
  -4  -8  13 45.1868 3.27441   1
  -3  -8  13 69.5017 4.21319   1
   2   8 -13 156.521 7.57980   3
  -2  -8  13 167.086 7.50965   1
   1   8 -13 35.0045 2.78928   3
  -1  -8  13 29.9674 2.66193   1
   0   8 -13 61.0432 3.95447   3
   0  -8  13 57.0116 3.72552   1
  -1   8 -13 7.56507 1.57783   3
   1  -8  13 11.0768 1.67287   1
  -2   8 -13 17.5629 2.37816   3
   2  -8  13 22.3351 2.35718   1
  -3   8 -13 217.359 10.4649   3
   3  -8  13 220.998 9.74325   1
  -4   8 -13 316.984 14.3108   3
   4  -8  13 308.975 13.1437   1
  -9  -7  13 87.4633 4.75770   2
   8   7 -13 20.0940 2.52200   1
  -8  -7  13 22.5570 2.22749   2
   7   7 -13 281.796 11.9452   1
   6   7 -13 81.7166 4.67713   1
  -4  -7  13 93.6176 5.07358   1
  -3  -7  13 3.11374 1.09309   1
   2   7 -13 18.3181 2.02892   3
  -2  -7  13 20.9296 2.16050   1
   1   7 -13 62.8727 3.92474   3
  -1  -7  13 65.2727 3.89825   1
   0   7 -13 149.416 7.45063   3
   0  -7  13 157.957 7.15649   1
  -1   7 -13 6.31022 1.41577   3
   1  -7  13 5.04526 1.20044   1
  -2   7 -13 199.784 9.37380   3
   2  -7  13 189.402 8.65842   1
  -3   7 -13 63.3681 4.35075   3
   3  -7  13 57.3769 3.89296   1
  -4   7 -13 1.64189 1.31697   3
   4  -7  13 1.97074 1.16761   1
  -9  -6  13 55.5201 3.49316   2
   8   6 -13 12.4175 1.98415   1
  -8  -6  13 10.8444 1.58716   2
   7   6 -13 6.70833 1.45401   1
   6   6 -13 1.22525 0.94384   1
  -5  -6  13 98.9385 5.26512   1
  -4  -6  13 39.0348 3.04326   1
  -3  -6  13 659.202 24.9003   1
   2   6 -13 1054.79 40.8052   3
  -2  -6  13 1051.93 38.6473   1
   1   6 -13 167.896 7.84617   3
  -1  -6  13 163.560 7.46135   1
   0   6 -13 170.319 8.10176   3
   0  -6  13 169.375 7.65972   1
  -1   6 -13 10.5806 1.67642   3
   1  -6  13 11.3766 1.63470   1
  -2   6 -13 5.30538 1.41474   3
   2  -6  13 4.05942 1.15953   1
  -3   6 -13 10.6693 1.82683   3
   3  -6  13 10.2948 1.67743   1
  -4   6 -13 -0.4495 0.94351   3
   4  -6  13 0.66787 0.89893   1
  -5   6 -13 23.5102 3.08526   3
   5  -6  13 34.1764 2.94805   1
   9   5 -13 2.44479 1.24777   1
  -9  -5  13 2.03928 1.01466   2
   8   5 -13 91.8003 5.17230   1
  -8  -5  13 93.2682 4.67741   2
   7   5 -13 85.7292 4.71168   1
  -7  -5  13 78.8632 4.11426   2
   6   5 -13 179.970 8.10901   1
  -5  -5  13 669.695 25.2822   1
  -4  -5  13 522.211 20.0717   1
   3   5 -13 90.6102 4.62267   3
  -3  -5  13 79.9136 4.54882   1
   2   5 -13 271.985 11.4763   3
  -2  -5  13 263.047 11.0048   1
   1   5 -13 1137.70 43.7707   3
  -1  -5  13 1127.19 41.3121   1
   0   5 -13 8.74752 1.49677   3
   0  -5  13 7.76714 1.40230   1
  -1   5 -13 145.433 7.07877   3
   1  -5  13 139.054 6.59398   1
  -2   5 -13 43.3623 3.42053   3
   2  -5  13 48.2347 3.25931   1
  -3   5 -13 504.961 21.3997   3
   3  -5  13 534.494 20.1693   1
  -4   5 -13 32.1390 3.06670   3
   4  -5  13 26.2974 2.65632   1
  -5   5 -13 264.317 12.2454   3
   5  -5  13 266.245 11.4231   1
 -10  -4  13 29.9987 2.59483   2
   9   4 -13 237.427 10.3660   1
  -9  -4  13 233.342 9.72300   2
   8   4 -13 3.10053 1.15130   1
  -8  -4  13 2.71762 1.03239   2
   7   4 -13 10.5789 1.68112   1
  -7  -4  13 14.0302 1.62534   2
   6   4 -13 58.0452 3.64322   1
  -6  -4  13 57.1652 3.28618   2
  -5  -4  13 13.7305 1.82302   1
  -4  -4  13 656.033 24.6756   1
   3   4 -13 1.21168 0.74709   3
  -3  -4  13 2.51328 0.94036   1
   2   4 -13 29.1140 2.51245   3
  -2  -4  13 34.7605 2.54336   1
   1   4 -13 184.973 8.69945   3
  -1  -4  13 199.257 8.31029   1
   0   4 -13 2.81304 1.00617   3
   0  -4  13 2.38777 0.96178   1
  -1   4 -13 112.363 5.91638   3
   1  -4  13 112.404 5.53759   1
  -2   4 -13 1151.46 45.9759   3
   2  -4  13 1215.88 43.2998   1
  -3   4 -13 1.21060 1.10786   3
   3  -4  13 -2.0747 0.91804   1
  -4   4 -13 1.79694 1.24191   3
   4  -4  13 -0.7169 1.03800   1
  -5   4 -13 283.507 12.6258   3
   5  -4  13 264.525 11.6017   1
 -10  -3  13 63.8239 3.88463   2
   9   3 -13 210.028 9.45124   1
  -9  -3  13 214.618 8.93842   2
   8   3 -13 885.242 32.9840   1
  -8  -3  13 886.767 31.6768   2
   7   3 -13 24.3632 2.30575   1
  -7  -3  13 23.4412 2.00386   2
   6   3 -13 95.2601 4.80986   1
  -6  -3  13 88.2849 4.27324   2
  -5  -3  13 1.66050 0.86425   1
  -4  -3  13 0.64989 0.74836   1
   3   3 -13 192.682 8.42441   3
  -3  -3  13 192.610 8.28336   1
   2   3 -13 20.7227 2.04354   3
  -2  -3  13 23.2524 2.15464   1
   1   3 -13 921.648 35.8654   3
  -1  -3  13 921.778 33.8171   1
   0   3 -13 25.5910 2.40242   3
   0  -3  13 25.6777 2.27604   1
  -1   3 -13 106.591 5.86008   3
   1  -3  13 118.648 5.54846   1
  -2   3 -13 408.597 16.7140   3
   2  -3  13 380.676 15.4796   1
  -3   3 -13 408.802 17.7698   3
   3  -3  13 438.530 16.6900   1
  -4   3 -13 273.952 12.3257   3
   4  -3  13 274.564 11.4823   1
  -5   3 -13 10.1786 1.95510   3
   5  -3  13 7.49661 1.57971   1
  10   2 -13 5.45606 1.36448   1
 -10  -2  13 5.27397 1.27525   2
   9   2 -13 11.5969 1.80658   1
  -9  -2  13 14.5814 1.87142   2
   8   2 -13 19.3182 2.14045   1
  -8  -2  13 19.9293 1.98892   2
   7   2 -13 23.1835 2.20384   1
  -7  -2  13 19.9341 1.93893   2
   6   2 -13 2.90447 0.93081   1
  -6  -2  13 5.13267 1.02117   2
  -4  -2  13 1.36260 0.78794   1
   3   2 -13 42.8995 2.83624   3
  -3  -2  13 45.5599 2.87783   1
   2   2 -13 54.2898 3.28365   3
  -2  -2  13 46.5863 3.03636   1
   1   2 -13 35.6668 2.74437   3
  -1  -2  13 36.9165 2.56966   1
   0   2 -13 215.293 9.41607   3
   0  -2  13 201.011 8.76095   1
  -1   2 -13 465.264 18.9479   3
   1  -2  13 456.907 17.7075   1
  -2   2 -13 20.7511 2.45013   3
   2  -2  13 28.6307 2.30757   1
  -3   2 -13 22.8777 2.62322   3
   3  -2  13 19.2494 2.09970   1
  -4   2 -13 81.4370 5.10187   3
   4  -2  13 81.3372 4.50251   1
  -5   2 -13 68.6994 4.68225   3
   5  -2  13 72.6062 4.26088   1
  10   1 -13 137.419 6.71092   1
 -10  -1  13 136.913 6.58704   2
   9   1 -13 10.6798 1.68851   1
  -9  -1  13 12.5646 1.74224   2
   8   1 -13 385.855 14.9316   1
  -8  -1  13 364.178 14.3315   2
   7   1 -13 24.7135 2.15773   1
  -7  -1  13 21.7798 2.00894   2
   6   1 -13 160.709 7.13387   1
  -6  -1  13 163.319 6.82997   2
   5   1 -13 420.127 16.0237   1
  -5  -1  13 407.803 15.2187   2
  -4  -1  13 188.606 8.06982   1
   3   1 -13 144.104 6.67674   3
  -3  -1  13 142.917 6.43172   1
   2   1 -13 54.3045 3.37032   3
  -2  -1  13 52.6067 3.14317   1
   1   1 -13 13.1610 1.77592   3
  -1  -1  13 14.5133 1.64825   1
   0   1 -13 29.2081 2.65272   3
   0  -1  13 31.8689 2.38499   1
  -1   1 -13 22.4707 2.44718   3
   1  -1  13 28.2848 2.27421   1
  -2   1 -13 68.0443 4.37195   3
   2  -1  13 71.0934 3.96107   1
  -3   1 -13 289.223 12.9277   3
   3  -1  13 293.912 11.8899   1
  -4   1 -13 602.373 24.5244   3
   4  -1  13 592.480 22.6701   1
   5  -1  13 178.588 8.09392   1
  10   0 -13 1.52773 1.02216   1
   9   0 -13 41.2986 3.06497   1
  -9   0  13 44.9595 3.15622   2
   8   0 -13 132.090 6.27654   1
  -8   0  13 135.311 6.20604   2
   7   0 -13 1.41448 0.79789   1
  -7   0  13 2.33480 0.88668   2
   6   0 -13 433.851 16.5473   1
  -6   0  13 426.857 15.9971   2
   5   0 -13 31.6761 2.29165   1
  -5   0  13 30.8112 2.20629   2
  -4   0  13 68.3071 3.71048   1
   3   0 -13 667.802 26.4844   3
  -3   0  13 676.053 24.9310   1
   2   0 -13 403.493 16.6051   3
  -2   0  13 401.890 15.4701   1
   1   0 -13 426.177 18.1073   3
  -1   0  13 457.196 16.9320   1
   0   0 -13 531.144 21.3910   3
   0   0  13 519.489 19.8258   1
  -1   0 -13 135.271 6.96714   3
   1   0  13 139.630 6.26503   1
  -2   0 -13 208.406 9.75722   3
  -3   0 -13 -0.5587 0.93629   3
  -4   0 -13 16.5389 2.34052   3
  -9   1  13 18.8830 2.27341   2
  -8   1  13 24.5450 2.33535   2
  -7   1  13 118.959 5.62653   2
  -6   1  13 3.23379 1.02469   2
  -5   1  13 2.17394 0.83375   2
   4  -1 -13 134.040 6.43374   3
  -4   1  13 136.728 6.14943   2
   3  -1 -13 1055.56 40.8517   3
   2  -1 -13 953.707 37.2178   3
   1  -1 -13 355.622 15.0932   3
   0  -1 -13 152.403 7.59151   3
  -1  -1 -13 622.688 25.2863   3
  -2  -1 -13 25.7492 2.86062   3
  -3  -1 -13 15.9618 2.24555   3
  -9   2  13 34.7207 3.20377   2
  -8   2  13 149.507 6.96660   2
  -7   2  13 17.4843 2.06329   2
  -6   2  13 30.0970 2.46812   2
  -5   2  13 98.7765 4.86664   2
   4  -2 -13 -0.4694 0.75434   3
  -4   2  13 0.05403 0.71015   2
   3  -2 -13 5.68707 1.31808   3
   2  -2 -13 302.132 13.0510   3
   1  -2 -13 4.24002 1.25340   3
   0  -2 -13 49.7229 3.69043   3
  -1  -2 -13 132.826 7.06995   3
  -2  -2 -13 6.66446 1.58590   3
  -8   3  13 76.4732 4.59817   2
  -7   3  13 127.127 6.16885   2
  -6   3  13 354.049 13.8910   2
  -5   3  13 354.284 13.7979   2
   4  -3 -13 -0.5058 0.82668   3
  -4   3  13 0.03497 0.79222   2
   3  -3 -13 2.55944 1.01465   3
   2  -3 -13 3.47869 1.21108   3
   1  -3 -13 91.7211 5.31930   3
   0  -3 -13 127.399 6.87031   3
  -1  -3 -13 345.820 15.2079   3
  -7   4  13 71.0316 4.39929   2
  -6   4  13 68.3022 4.15901   2
  -5   4  13 1.31161 1.17887   2
   4  -4 -13 1.41389 1.01216   3
  -4   4  13 2.79752 1.18582   2
   3  -4 -13 503.946 20.7452   3
   2  -4 -13 1.54772 1.04817   3
   1  -4 -13 7.64918 1.72738   3
   0  -4 -13 69.9122 4.85039   3
  -5   5  13 35.0601 3.03892   2
   4  -5 -13 181.488 8.82568   3
  -4   5  13 189.734 8.33130   2
   3  -5 -13 295.803 13.1459   3
   1  11 -14 23.8731 3.04908   3
  -4 -10  14 6.88033 1.72117   1
  -3 -10  14 118.797 6.33807   1
  -2 -10  14 794.107 30.1023   1
   1  10 -14 84.4063 5.19703   3
  -1 -10  14 84.8776 5.16760   1
   0  10 -14 500.928 21.0163   3
   0 -10  14 503.289 19.8657   1
  -4  -9  14 323.446 13.5943   1
  -3  -9  14 544.477 21.2876   1
  -2  -9  14 61.3946 4.15544   1
   1   9 -14 6.35307 1.49333   3
  -1  -9  14 8.52595 1.75081   1
   0   9 -14 897.224 35.7603   3
   0  -9  14 905.809 33.7438   1
  -1   9 -14 0.91312 1.17652   3
   1  -9  14 0.17171 0.96936   1
  -2   9 -14 17.8397 2.59951   3
   2  -9  14 21.5799 2.56123   1
   6   8 -14 35.8194 3.22491   1
  -4  -8  14 128.564 6.54055   1
  -3  -8  14 134.513 6.72698   1
   2   8 -14 11.5251 1.77155   3
  -2  -8  14 11.8620 1.77970   1
   1   8 -14 2.79242 1.17492   3
  -1  -8  14 1.98064 1.08646   1
   0   8 -14 62.7045 4.42559   3
   0  -8  14 75.9855 4.35171   1
  -1   8 -14 24.1302 2.86845   3
   1  -8  14 22.2047 2.51283   1
  -2   8 -14 0.68932 1.12846   3
   2  -8  14 2.52665 1.21893   1
   7   7 -14 837.740 31.5877   1
   6   7 -14 0.36351 0.98692   1
  -5  -7  14 0.74930 0.97509   1
  -4  -7  14 22.3909 2.45193   1
  -3  -7  14 0.79013 0.89878   1
   2   7 -14 347.313 14.8419   3
  -2  -7  14 355.897 14.2902   1
   1   7 -14 61.8802 4.00730   3
  -1  -7  14 59.3535 3.85913   1
   0   7 -14 167.813 8.41948   3
   0  -7  14 182.947 8.11107   1
  -1   7 -14 50.3163 3.79785   3
   1  -7  14 50.9201 3.52995   1
  -2   7 -14 14.8819 2.24587   3
   2  -7  14 18.3227 2.27478   1
  -3   7 -14 85.6769 5.55480   3
   3  -7  14 89.6661 5.15012   1
  -9  -6  14 0.36010 1.00623   2
   8   6 -14 6.39268 1.58488   1
   7   6 -14 212.164 9.52404   1
   6   6 -14 39.6257 3.20718   1
  -5  -6  14 34.1525 3.00162   1
  -4  -6  14 1830.55 66.1268   1
  -3  -6  14 161.523 7.53955   1
   2   6 -14 4.11820 1.15672   3
  -2  -6  14 5.84481 1.33266   1
   1   6 -14 2.06637 0.93986   3
  -1  -6  14 1.57068 0.93323   1
   0   6 -14 162.806 8.06079   3
   0  -6  14 173.452 7.77757   1
  -1   6 -14 38.3727 3.09946   3
   1  -6  14 34.9125 2.85478   1
  -2   6 -14 55.1654 3.90029   3
   2  -6  14 50.2641 3.57967   1
  -3   6 -14 1.77085 1.22617   3
   3  -6  14 2.85795 1.20727   1
  -9  -5  14 41.4652 2.96860   2
   8   5 -14 105.095 5.79594   1
   7   5 -14 430.027 17.1181   1
   6   5 -14 57.2011 3.78889   1
  -5  -5  14 380.402 15.2884   1
  -4  -5  14 61.3500 3.87490   1
  -3  -5  14 479.216 18.6523   1
   2   5 -14 311.833 13.1108   3
  -2  -5  14 303.030 12.5520   1
   1   5 -14 110.732 5.77478   3
  -1  -5  14 109.588 5.55172   1
   0   5 -14 93.4427 5.43331   3
   0  -5  14 108.435 5.33465   1
  -1   5 -14 40.3911 3.21665   3
   1  -5  14 41.7494 3.08243   1
  -2   5 -14 43.6736 3.40003   3
   2  -5  14 34.3411 2.98107   1
  -3   5 -14 28.5821 2.95709   3
   3  -5  14 28.7320 2.75454   1
  -4   5 -14 89.0051 5.61589   3
   4  -5  14 81.3357 4.90870   1
  -9  -4  14 12.8112 1.77779   2
   8   4 -14 27.8544 2.70038   1
  -8  -4  14 28.4886 2.36560   2
   7   4 -14 43.0187 3.22272   1
   6   4 -14 373.243 14.9983   1
  -5  -4  14 136.569 6.57809   1
  -4  -4  14 1.72034 1.03423   1
  -3  -4  14 90.7363 4.89006   1
   2   4 -14 245.879 10.7517   3
  -2  -4  14 245.516 10.3483   1
   1   4 -14 286.680 12.3494   3
  -1  -4  14 281.681 11.6866   1
   0   4 -14 1019.80 39.0413   3
   0  -4  14 972.409 36.6382   1
  -1   4 -14 8.53502 1.60162   3
   1  -4  14 9.07008 1.63471   1
  -2   4 -14 370.711 16.6218   3
   2  -4  14 412.386 15.7500   1
  -3   4 -14 579.322 24.7126   3
   3  -4  14 630.167 23.2981   1
  -4   4 -14 9.14450 1.89276   3
   4  -4  14 7.53586 1.62043   1
   9   3 -14 180.885 8.58105   1
  -9  -3  14 191.839 8.10921   2
   8   3 -14 33.1329 2.77223   1
  -8  -3  14 29.6782 2.43399   2
   7   3 -14 21.8418 2.30902   1
   6   3 -14 3.58903 1.10665   1
  -5  -3  14 116.121 5.78090   1
  -4  -3  14 0.72743 0.92036   1
   3   3 -14 78.2086 4.22575   3
  -3  -3  14 70.3225 4.20350   1
   2   3 -14 437.549 17.6977   3
  -2  -3  14 428.073 16.8611   1
   1   3 -14 1857.00 70.0978   3
  -1  -3  14 1817.91 66.0276   1
   0   3 -14 63.2417 4.03510   3
   0  -3  14 56.0184 3.65556   1
  -1   3 -14 39.5861 3.17545   3
   1  -3  14 40.9759 2.97087   1
  -2   3 -14 380.086 15.9657   3
   2  -3  14 365.547 14.8738   1
  -3   3 -14 59.2415 4.27950   3
   3  -3  14 67.3821 4.04114   1
  -4   3 -14 4.10314 1.40856   3
   4  -3  14 3.82239 1.22912   1
   9   2 -14 33.1068 2.86275   1
  -9  -2  14 30.2014 2.64988   2
   8   2 -14 70.6498 4.30665   1
  -8  -2  14 75.9315 4.11173   2
   7   2 -14 345.844 13.6615   1
  -7  -2  14 328.659 12.9278   2
   6   2 -14 0.29577 0.75663   1
  -4  -2  14 -0.3337 0.69403   1
   3   2 -14 18.2974 2.01712   3
  -3  -2  14 18.5833 2.06892   1
   2   2 -14 93.2611 5.03113   3
  -2  -2  14 90.7126 4.74459   1
   1   2 -14 933.031 36.3210   3
  -1  -2  14 924.600 34.1706   1
   0   2 -14 14.7223 2.05435   3
   0  -2  14 18.3579 2.00424   1
  -1   2 -14 43.2195 3.35333   3
   1  -2  14 41.1092 2.93438   1
  -2   2 -14 549.740 22.6456   3
   2  -2  14 552.905 21.1243   1
  -3   2 -14 79.8388 5.08129   3
   3  -2  14 83.9942 4.65636   1
   4  -2  14 3.16247 1.17662   1
   9   1 -14 191.791 8.83454   1
  -9  -1  14 207.198 8.70459   2
   8   1 -14 827.112 30.6363   1
  -8  -1  14 815.396 29.5953   2
   7   1 -14 124.276 5.85627   1
  -7  -1  14 112.589 5.43133   2
   6   1 -14 4.17989 1.05968   1
   5   1 -14 19.8744 2.00034   1
  -4  -1  14 144.260 6.62465   1
   3   1 -14 20.6018 2.17366   3
  -3  -1  14 23.0501 2.13144   1
   2   1 -14 -0.8989 0.83471   3
  -2  -1  14 -0.0680 0.65250   1
   1   1 -14 3.91918 1.30416   3
  -1  -1  14 6.11859 1.22429   1
   0   1 -14 187.350 8.83441   3
   0  -1  14 184.212 8.07713   1
  -1   1 -14 4.51441 1.39958   3
   1  -1  14 5.18986 1.18730   1
  -2   1 -14 567.924 23.2178   3
   2  -1  14 559.094 21.4662   1
  -3   1 -14 56.9668 4.29072   3
   3  -1  14 54.6281 3.63605   1
   9   0 -14 75.5526 4.37675   1
  -9   0  14 75.4951 4.37065   2
   8   0 -14 168.889 7.64305   1
  -8   0  14 170.246 7.52472   2
   7   0 -14 2.75901 0.94447   1
  -7   0  14 1.37759 0.86665   2
   6   0 -14 190.936 8.22703   1
  -6   0  14 191.446 7.98087   2
   5   0 -14 540.903 20.4597   1
  -4   0  14 110.732 5.34079   1
   3   0 -14 3.41976 1.12812   3
  -3   0  14 3.39457 1.05139   1
   2   0 -14 410.434 17.0790   3
   1   0 -14 59.3203 3.97009   3
   0   0 -14 9.80404 1.75175   3
  -1   0 -14 10.9652 1.82801   3
  -2   0 -14 6.86587 1.64939   3
  -8   1  14 84.4147 4.59719   2
  -7   1  14 3.69685 1.19366   2
  -6   1  14 43.4599 2.94413   2
   3  -1 -14 173.732 8.16240   3
   2  -1 -14 251.953 11.2429   3
   1  -1 -14 135.337 6.96303   3
   0  -1 -14 112.331 6.21030   3
  -1  -1 -14 100.664 5.88003   3
  -2  -1 -14 71.5037 4.90385   3
  -8   2  14 1.08435 1.14669   2
  -7   2  14 41.3690 3.09939   2
  -6   2  14 0.13175 0.84317   2
   3  -2 -14 124.556 6.47603   3
   2  -2 -14 111.495 6.03350   3
   1  -2 -14 74.7882 4.76314   3
   0  -2 -14 12.2670 2.04644   3
  -1  -2 -14 338.270 15.3832   3
  -7   3  14 87.2849 4.82629   2
  -6   3  14 190.481 8.41778   2
   3  -3 -14 346.871 14.9276   3
   2  -3 -14 191.805 9.26038   3
   1  -3 -14 212.729 10.2353   3
  -5   4  14 643.747 24.2394   2
   3  -4 -14 0.62939 1.12035   3
   1  10 -15 7.66245 1.74342   3
  -3  -9  15 10.6428 1.91212   1
  -2  -9  15 579.327 22.6355   1
   1   9 -15 15.1495 2.21772   3
  -1  -9  15 17.3393 2.40432   1
   0   9 -15 36.0521 3.42788   3
  -4  -8  15 33.7873 3.19723   1
  -3  -8  15 59.7763 4.11666   1
  -2  -8  15 59.4382 4.08262   1
   1   8 -15 1.43829 1.16475   3
  -1  -8  15 0.73402 1.18535   1
   0   8 -15 105.423 6.35977   3
   0  -8  15 124.854 6.31886   1
  -1   8 -15 763.718 31.2449   3
   1  -8  15 784.568 29.8542   1
   6   7 -15 137.259 7.04733   1
  -5  -7  15 -0.5278 0.95447   1
  -4  -7  15 5.07383 1.49050   1
  -3  -7  15 0.61271 1.08979   1
  -2  -7  15 591.381 22.8791   1
   1   7 -15 9.69510 1.67878   3
  -1  -7  15 7.99718 1.68139   1
   0   7 -15 353.975 15.6539   3
   0  -7  15 375.343 14.9330   1
  -1   7 -15 265.594 12.2070   3
   1  -7  15 268.721 11.5482   1
  -2   7 -15 76.9747 5.09261   3
   6   6 -15 397.993 16.1855   1
  -5  -6  15 27.3238 2.79544   1
  -4  -6  15 27.9195 2.74779   1
  -3  -6  15 11.1206 1.80264   1
   2   6 -15 109.753 5.94014   3
  -2  -6  15 117.564 5.93605   1
   1   6 -15 233.409 10.7181   3
  -1  -6  15 240.432 10.3213   1
   0   6 -15 41.9432 3.49541   3
   0  -6  15 46.9969 3.34499   1
  -1   6 -15 1.75560 1.17626   3
   1  -6  15 4.80302 1.31768   1
  -2   6 -15 21.5535 2.67319   3
   2  -6  15 23.6924 2.54482   1
   7   5 -15 609.249 23.5234   1
   6   5 -15 283.629 12.0678   1
  -5  -5  15 147.153 7.18950   1
  -4  -5  15 221.486 9.78807   1
  -3  -5  15 163.694 7.67392   1
   2   5 -15 2.56882 1.09067   3
  -2  -5  15 4.04012 1.20310   1
   1   5 -15 12.2447 1.84364   3
  -1  -5  15 8.35657 1.52005   1
   0   5 -15 27.4846 2.83396   3
   0  -5  15 29.8255 2.68223   1
  -1   5 -15 43.1415 3.50557   3
   1  -5  15 39.6068 3.19031   1
  -2   5 -15 15.1026 2.18956   3
   2  -5  15 15.3083 2.12156   1
   7   4 -15 10.3641 1.75093   1
   6   4 -15 40.7936 3.18160   1
  -5  -4  15 -1.3264 0.87635   1
  -4  -4  15 754.436 28.4467   1
  -3  -4  15 757.776 28.5157   1
   2   4 -15 161.303 7.64064   3
  -2  -4  15 156.540 7.45228   1
   1   4 -15 251.663 11.3241   3
  -1  -4  15 258.961 10.8770   1
   0   4 -15 228.188 10.5235   3
   0  -4  15 232.650 10.0019   1
  -1   4 -15 4.10354 1.27525   3
   1  -4  15 4.39261 1.27789   1
  -2   4 -15 0.59032 0.96612   3
   2  -4  15 -0.6078 0.82256   1
   3  -4  15 80.2087 5.07053   1
   8   3 -15 34.9307 2.94234   1
   7   3 -15 232.865 10.1040   1
   6   3 -15 4.59147 1.25275   1
  -5  -3  15 0.81562 1.10336   1
  -4  -3  15 300.355 12.4492   1
  -3  -3  15 943.905 34.9689   1
   2   3 -15 5.10353 1.25723   3
  -2  -3  15 5.89993 1.37384   1
   1   3 -15 82.9744 4.80402   3
  -1  -3  15 80.3339 4.59954   1
   0   3 -15 134.043 6.96897   3
   0  -3  15 140.133 6.61869   1
  -1   3 -15 119.595 6.47512   3
   1  -3  15 123.080 6.11733   1
  -2   3 -15 25.5883 2.78736   3
   2  -3  15 28.3798 2.63312   1
   3  -3  15 1.54912 1.01992   1
  -9  -2  15 53.4129 3.53737   2
   8   2 -15 200.866 9.02740   1
   7   2 -15 21.8397 2.31925   1
   6   2 -15 108.358 5.52143   1
  -4  -2  15 37.4202 2.89746   1
  -3  -2  15 38.8519 2.91919   1
   2   2 -15 63.5921 4.09048   3
  -2  -2  15 62.5993 3.82415   1
   1   2 -15 22.7519 2.59237   3
  -1  -2  15 25.5737 2.42089   1
   0   2 -15 407.012 17.3645   3
   0  -2  15 415.355 16.2273   1
  -1   2 -15 0.30980 0.88301   3
   1  -2  15 0.91720 1.00917   1
  -2   2 -15 143.262 7.60304   3
   2  -2  15 148.583 7.02211   1
   3  -2  15 357.793 14.5574   1
   8   1 -15 110.007 5.67585   1
   7   1 -15 8.34221 1.45355   1
   6   1 -15 135.459 6.40179   1
   5   1 -15 0.19377 0.70247   1
  -4  -1  15 7.88014 1.44997   1
   3   1 -15 83.7059 4.81098   3
  -3  -1  15 86.3129 4.61166   1
   2   1 -15 103.453 5.68527   3
  -2  -1  15 105.079 5.29306   1
   1   1 -15 1.72204 1.07570   3
  -1  -1  15 1.90260 0.98277   1
   0   1 -15 214.610 10.2603   3
   0  -1  15 227.417 9.53842   1
  -1   1 -15 2.56115 1.30801   3
  -8   0  15 14.1863 1.86815   2
   3   0 -15 3.40703 1.13283   3
   2   0 -15 2.67661 1.12957   3
   1   0 -15 9.65103 1.77202   3
   0   0 -15 2.39247 1.27258   3
  -1   0 -15 89.3367 5.59092   3
   3  -1 -15 27.1585 2.67242   3
   2  -1 -15 101.900 5.78748   3
   1  -1 -15 239.852 11.1378   3
   0  -1 -15 0.84866 1.08092   3
   3  -2 -15 115.161 6.32488   3
   2  -2 -15 282.683 12.7257   3
   1   8 -16 312.804 13.8220   3
  -3  -7  16 409.063 16.8103   1
  -2  -7  16 105.216 5.94329   1
   1   7 -16 6.41508 1.62204   3
   0   7 -16 0.27838 1.08953   3
  -5  -6  16 23.7546 2.87307   1
  -4  -6  16 48.8073 3.67625   1
  -3  -6  16 62.1726 4.18101   1
  -2  -6  16 267.294 11.5494   1
   1   6 -16 2.39213 1.19305   3
  -1  -6  16 3.75927 1.30211   1
   0   6 -16 -1.2855 0.83551   3
   0  -6  16 -0.4389 0.96756   1
  -5  -5  16 98.0991 5.49980   1
  -4  -5  16 35.0264 3.08236   1
  -3  -5  16 63.7383 4.21934   1
  -2  -5  16 93.9060 5.24446   1
   1   5 -16 174.739 8.41861   3
  -1  -5  16 167.995 8.06178   1
   0   5 -16 18.4188 2.45944   3
   0  -5  16 18.0989 2.29177   1
  -1   5 -16 99.5250 5.96410   3
   6   4 -16 257.595 11.1500   1
  -5  -4  16 29.4828 2.87265   1
  -4  -4  16 35.3304 3.17979   1
  -3  -4  16 1183.69 43.6165   1
   2   4 -16 61.7944 4.01223   3
  -2  -4  16 61.4748 4.03925   1
   1   4 -16 40.1205 3.24891   3
  -1  -4  16 40.7658 3.18127   1
   0   4 -16 3.69613 1.32554   3
   0  -4  16 4.54553 1.32722   1
  -1   4 -16 67.0516 4.68600   3
   1  -4  16 74.2887 4.51970   1
   7   3 -16 72.2969 4.66968   1
   6   3 -16 627.448 24.0527   1
  -4  -3  16 168.496 7.91939   1
  -3  -3  16 279.665 11.8201   1
   2   3 -16 60.6573 4.03710   3
  -2  -3  16 57.1194 3.78683   1
   1   3 -16 0.10399 0.89713   3
  -1  -3  16 -0.0905 0.94935   1
   0   3 -16 225.533 10.4647   3
   0  -3  16 221.403 9.80881   1
   1  -3  16 9.65777 1.72222   1
   7   2 -16 130.168 6.48689   1
   6   2 -16 11.2369 1.73355   1
  -4  -2  16 104.022 5.53969   1
  -3  -2  16 55.4553 3.72264   1
   2   2 -16 18.6980 2.39916   3
  -2  -2  16 18.3658 2.30602   1
   1   2 -16 198.426 9.43233   3
  -1  -2  16 196.390 8.84886   1
   0   2 -16 271.158 12.2062   3
   0  -2  16 260.192 11.2594   1
   1  -2  16 504.458 19.7333   1
   7   1 -16 305.084 12.6354   1
   6   1 -16 122.958 6.07124   1
   5   1 -16 28.9035 2.68693   1
  -4  -1  16 134.295 6.95907   1
   2   1 -16 306.419 13.5035   3
   1   1 -16 254.683 11.7326   3
   2   0 -16 46.5556 3.64690   3
   1   0 -16 3.42431 1.53610   3
   1   6 -17 288.747 13.3113   3
   1   5 -17 84.1889 5.23676   3
   1   4 -17 11.7372 2.00513   3
  -4  -3  17 1.64808 1.21878   1
  -3  -3  17 126.180 6.53624   1
  -2  -3  17 41.5183 3.55080   1
   5   2 -17 23.0883 2.62131   1
  -4  -2  17 29.4998 2.93905   1
  -3  -2  17 327.062 13.5935   1
   2   2 -17 91.2173 5.42369   3
  -2  -2  17 84.1558 5.04095   1
   0   0   0    0.00    0.00   0
;
_shelx_hkl_checksum              56449
loop_
_space_group_symop_operation_xyz
'x, y, z'
'-x, -y, -z'
loop_
_atom_site_label
_atom_site_type_symbol
_atom_site_fract_x
_atom_site_fract_y
_atom_site_fract_z
_atom_site_U_iso_or_equiv
_atom_site_adp_type
_atom_site_occupancy
_atom_site_site_symmetry_order
_atom_site_calc_flag
_atom_site_refinement_flags_posn
_atom_site_refinement_flags_adp
_atom_site_refinement_flags_occupancy
S1 S -0.41568(3) 0.29916(3) 0.15848(2) 0.01286(7) Uani 1 1 d . . .
O1 O -0.46048(10) 0.39971(11) 0.25816(8) 0.01871(17) Uani 1 1 d . . .
S2 S 0.15909(3) 0.27877(3) 0.43810(2) 0.01354(7) Uani 1 1 d . . .
O2 O -0.51634(10) 0.16760(10) 0.07594(9) 0.01989(18) Uani 1 1 d . . .
S3 S 0.23837(3) 0.09608(3) 0.60558(2) 0.01361(7) Uani 1 1 d . . .
S4 S 0.13780(3) -0.20992(3) 0.38519(2) 0.01299(7) Uani 1 1 d . . .
S5 S 0.06568(3) -0.04026(3) 0.20833(2) 0.01376(7) Uani 1 1 d . . .
N1 N -0.25808(11) 0.23134(11) 0.22118(9) 0.01315(17) Uani 1 1 d . . .
C1 C -0.21374(14) 0.56603(15) -0.04283(11) 0.0193(2) Uani 1 1 d . . .
C2 C -0.24854(15) 0.63989(14) 0.06632(12) 0.0202(2) Uani 1 1 d . . .
H2 H -0.2280 0.7473 0.0992 0.024 Uiso 1 1 calc R U .
C3 C -0.31294(14) 0.55905(13) 0.12824(10) 0.0161(2) Uani 1 1 d . . .
H3 H -0.3355 0.6102 0.2031 0.019 Uiso 1 1 calc R U .
C4 C -0.34347(12) 0.40266(12) 0.07853(10) 0.01212(19) Uani 1 1 d . . .
C5 C -0.31119(16) 0.32524(14) -0.03121(11) 0.0205(2) Uani 1 1 d . . .
H5 H -0.3332 0.2179 -0.0645 0.025 Uiso 1 1 calc R U .
C6 C -0.24629(17) 0.40823(16) -0.09055(12) 0.0235(3) Uani 1 1 d . . .
H6 H -0.2234 0.3568 -0.1652 0.028 Uiso 1 1 calc R U .
C7 C -0.14322(17) 0.6532(2) -0.10961(15) 0.0312(3) Uani 1 1 d . . .
H7A H -0.1351 0.7623 -0.0670 0.047 Uiso 0.67(2) 1 calc R U P
H7B H -0.2087 0.6294 -0.1926 0.047 Uiso 0.67(2) 1 calc R U P
H7C H -0.0400 0.6248 -0.1126 0.047 Uiso 0.67(2) 1 calc R U P
H7D H -0.1208 0.5820 -0.1812 0.047 Uiso 0.33(2) 1 calc R U P
H7E H -0.0472 0.7149 -0.0556 0.047 Uiso 0.33(2) 1 calc R U P
H7F H -0.2159 0.7195 -0.1355 0.047 Uiso 0.33(2) 1 calc R U P
C8 C -0.14284(13) 0.31769(13) 0.32271(10) 0.01322(19) Uani 1 1 d . . .
H8 H -0.1488 0.4141 0.3773 0.016 Uiso 1 1 calc R U .
C9 C -0.01909(12) 0.23701(12) 0.32884(10) 0.01207(19) Uani 1 1 d . . .
C10 C 0.17129(12) 0.09729(12) 0.45575(10) 0.01181(19) Uani 1 1 d . . .
C11 C 0.36046(12) -0.05043(13) 0.58854(10) 0.01341(19) Uani 1 1 d . . .
C12 C 0.31812(12) -0.18040(13) 0.49554(10) 0.01342(19) Uani 1 1 d . . .
C13 C 0.13062(12) -0.03288(12) 0.36187(10) 0.01193(19) Uani 1 1 d . . .
C14 C -0.05923(13) 0.09884(12) 0.22853(10) 0.01227(19) Uani 1 1 d . . .
C15 C -0.20700(13) 0.09720(12) 0.16261(10) 0.01324(19) Uani 1 1 d . . .
H15 H -0.2635 0.0196 0.0909 0.016 Uiso 1 1 calc R U .
C16 C 0.50792(13) -0.01032(15) 0.68857(11) 0.0173(2) Uani 1 1 d . . .
H16A H 0.4835 0.0216 0.7677 0.026 Uiso 1 1 calc R U .
H16B H 0.5724 0.0727 0.6815 0.026 Uiso 1 1 calc R U .
H16C H 0.5639 -0.0991 0.6817 0.026 Uiso 1 1 calc R U .
C17 C 0.40921(14) -0.31340(14) 0.47046(12) 0.0189(2) Uani 1 1 d . . .
H17A H 0.4905 -0.3048 0.5438 0.028 Uiso 1 1 calc R U .
H17B H 0.4562 -0.3138 0.4040 0.028 Uiso 1 1 calc R U .
H17C H 0.3400 -0.4080 0.4473 0.028 Uiso 1 1 calc R U .
loop_
_atom_site_aniso_label
_atom_site_aniso_U_11
_atom_site_aniso_U_22
_atom_site_aniso_U_33
_atom_site_aniso_U_23
_atom_site_aniso_U_13
_atom_site_aniso_U_12
S1 0.01109(12) 0.01380(13) 0.01524(13) 0.00724(10) 0.00272(9) 0.00278(9)
O1 0.0185(4) 0.0243(4) 0.0190(4) 0.0107(3) 0.0095(3) 0.0090(3)
S2 0.01163(12) 0.01146(12) 0.01539(13) 0.00356(9) 0.00078(9) -0.00031(9)
O2 0.0149(4) 0.0169(4) 0.0257(4) 0.0096(3) -0.0020(3) -0.0013(3)
S3 0.01294(12) 0.01698(13) 0.01055(12) 0.00342(9) 0.00333(9) 0.00366(10)
S4 0.01217(12) 0.01191(12) 0.01474(13) 0.00408(9) 0.00337(9) 0.00204(9)
S5 0.01441(13) 0.01542(13) 0.01076(12) 0.00284(9) 0.00309(9) 0.00519(10)
N1 0.0127(4) 0.0125(4) 0.0138(4) 0.0053(3) 0.0009(3) 0.0031(3)
C1 0.0144(5) 0.0282(6) 0.0194(5) 0.0144(5) 0.0033(4) 0.0022(4)
C2 0.0237(6) 0.0163(5) 0.0202(5) 0.0079(4) 0.0031(4) -0.0021(4)
C3 0.0211(5) 0.0128(5) 0.0139(5) 0.0035(4) 0.0047(4) 0.0018(4)
C4 0.0128(4) 0.0128(4) 0.0115(4) 0.0054(4) 0.0025(4) 0.0025(4)
C5 0.0303(6) 0.0165(5) 0.0149(5) 0.0030(4) 0.0085(5) 0.0056(5)
C6 0.0301(7) 0.0284(6) 0.0168(5) 0.0085(5) 0.0126(5) 0.0098(5)
C7 0.0240(6) 0.0469(9) 0.0320(7) 0.0259(7) 0.0083(5) -0.0011(6)
C8 0.0140(5) 0.0126(4) 0.0126(4) 0.0045(4) 0.0019(4) 0.0016(4)
C9 0.0118(4) 0.0123(4) 0.0121(4) 0.0045(4) 0.0024(3) 0.0007(4)
C10 0.0098(4) 0.0136(5) 0.0126(4) 0.0048(4) 0.0030(3) 0.0024(3)
C11 0.0098(4) 0.0188(5) 0.0144(5) 0.0083(4) 0.0043(4) 0.0030(4)
C12 0.0113(4) 0.0169(5) 0.0156(5) 0.0087(4) 0.0053(4) 0.0039(4)
C13 0.0104(4) 0.0137(5) 0.0126(4) 0.0050(4) 0.0033(3) 0.0033(4)
C14 0.0131(5) 0.0120(4) 0.0123(4) 0.0047(4) 0.0034(4) 0.0024(4)
C15 0.0146(5) 0.0115(4) 0.0138(5) 0.0052(4) 0.0024(4) 0.0022(4)
C16 0.0117(5) 0.0241(6) 0.0170(5) 0.0099(4) 0.0013(4) 0.0010(4)
C17 0.0177(5) 0.0189(5) 0.0234(6) 0.0097(4) 0.0068(4) 0.0082(4)
loop_
_atom_type_symbol
_atom_type_description
_atom_type_scat_dispersion_real
_atom_type_scat_dispersion_imag
_atom_type_scat_source
C C 0.0033 0.0016 'International Tables Vol C Tables 4.2.6.8 and 6.1.1.4'
H H 0.0000 0.0000 'International Tables Vol C Tables 4.2.6.8 and 6.1.1.4'
N N 0.0061 0.0033 'International Tables Vol C Tables 4.2.6.8 and 6.1.1.4'
O O 0.0106 0.0060 'International Tables Vol C Tables 4.2.6.8 and 6.1.1.4'
S S 0.1246 0.1234 'International Tables Vol C Tables 4.2.6.8 and 6.1.1.4'
loop_
_geom_angle_atom_site_label_1
_geom_angle_atom_site_label_2
_geom_angle_atom_site_label_3
_geom_angle
O1 S1 O2 121.47(6)
O1 S1 N1 105.66(5)
O2 S1 N1 104.79(5)
O1 S1 C4 109.84(6)
O2 S1 C4 110.36(6)
N1 S1 C4 102.85(5)
C9 S2 C10 98.25(5)
C10 S3 C11 102.18(5)
C13 S4 C12 101.98(5)
C14 S5 C13 98.01(5)
C8 N1 C15 110.27(9)
C8 N1 S1 123.94(8)
C15 N1 S1 123.98(8)
C2 C1 C6 118.66(11)
C2 C1 C7 121.22(13)
C6 C1 C7 120.11(12)
C1 C2 C3 121.14(11)
C1 C2 H2 119.4
C3 C2 H2 119.4
C4 C3 C2 118.71(11)
C4 C3 H3 120.6
C2 C3 H3 120.6
C3 C4 C5 121.59(11)
C3 C4 S1 119.22(8)
C5 C4 S1 119.12(9)
C6 C5 C4 118.54(11)
C6 C5 H5 120.7
C4 C5 H5 120.7
C5 C6 C1 121.35(11)
C5 C6 H6 119.3
C1 C6 H6 119.3
C1 C7 H7A 109.5
C1 C7 H7B 109.5
H7A C7 H7B 109.5
C1 C7 H7C 109.5
H7A C7 H7C 109.5
H7B C7 H7C 109.5
C1 C7 H7D 109.5
H7A C7 H7D 141.1
H7B C7 H7D 56.3
H7C C7 H7D 56.3
C1 C7 H7E 109.5
H7A C7 H7E 56.3
H7B C7 H7E 141.1
H7C C7 H7E 56.3
H7D C7 H7E 109.5
C1 C7 H7F 109.5
H7A C7 H7F 56.3
H7B C7 H7F 56.3
H7C C7 H7F 141.1
H7D C7 H7F 109.5
H7E C7 H7F 109.5
C9 C8 N1 106.84(10)
C9 C8 H8 126.6
N1 C8 H8 126.6
C8 C9 C14 108.04(10)
C8 C9 S2 129.77(9)
C14 C9 S2 122.14(8)
C13 C10 S3 121.06(9)
C13 C10 S2 123.21(9)
S3 C10 S2 115.72(6)
C12 C11 C16 126.22(11)
C12 C11 S3 121.12(9)
C16 C11 S3 112.65(8)
C11 C12 C17 126.68(11)
C11 C12 S4 120.36(9)
C17 C12 S4 112.96(9)
C10 C13 S4 121.29(9)
C10 C13 S5 123.54(9)
S4 C13 S5 115.17(6)
C15 C14 C9 108.20(10)
C15 C14 S5 129.65(9)
C9 C14 S5 122.06(8)
C14 C15 N1 106.64(10)
C14 C15 H15 126.7
N1 C15 H15 126.7
C11 C16 H16A 109.5
C11 C16 H16B 109.5
H16A C16 H16B 109.5
C11 C16 H16C 109.5
H16A C16 H16C 109.5
H16B C16 H16C 109.5
C12 C17 H17A 109.5
C12 C17 H17B 109.5
H17A C17 H17B 109.5
C12 C17 H17C 109.5
H17A C17 H17C 109.5
H17B C17 H17C 109.5
loop_
_geom_bond_atom_site_label_1
_geom_bond_atom_site_label_2
_geom_bond_distance
S1 O1 1.4280(9)
S1 O2 1.4295(9)
S1 N1 1.6840(10)
S1 C4 1.7447(11)
S2 C9 1.7532(11)
S2 C10 1.7719(12)
S3 C10 1.7532(11)
S3 C11 1.7836(12)
S4 C13 1.7561(12)
S4 C12 1.7822(12)
S5 C14 1.7512(11)
S5 C13 1.7684(11)
N1 C8 1.3916(14)
N1 C15 1.3916(14)
C1 C2 1.3914(18)
C1 C6 1.396(2)
C1 C7 1.5076(18)
C2 C3 1.3931(17)
C2 H2 0.9500
C3 C4 1.3847(16)
C3 H3 0.9500
C4 C5 1.3947(15)
C5 C6 1.3851(18)
C5 H5 0.9500
C6 H6 0.9500
C7 H7A 0.9800
C7 H7B 0.9800
C7 H7C 0.9800
C7 H7D 0.9800
C7 H7E 0.9800
C7 H7F 0.9800
C8 C9 1.3697(15)
C8 H8 0.9500
C9 C14 1.4309(15)
C10 C13 1.3450(15)
C11 C12 1.3393(16)
C11 C16 1.5052(15)
C12 C17 1.5094(16)
C14 C15 1.3720(15)
C15 H15 0.9500
C16 H16A 0.9800
C16 H16B 0.9800
C16 H16C 0.9800
C17 H17A 0.9800
C17 H17B 0.9800
C17 H17C 0.9800
loop_
_geom_torsion_atom_site_label_1
_geom_torsion_atom_site_label_2
_geom_torsion_atom_site_label_3
_geom_torsion_atom_site_label_4
_geom_torsion
O1 S1 N1 C8 -38.29(10)
O2 S1 N1 C8 -167.69(9)
C4 S1 N1 C8 76.89(10)
O1 S1 N1 C15 158.52(9)
O2 S1 N1 C15 29.11(11)
C4 S1 N1 C15 -86.31(10)
C6 C1 C2 C3 0.73(19)
C7 C1 C2 C3 -179.66(12)
C1 C2 C3 C4 -0.60(19)
C2 C3 C4 C5 0.05(18)
C2 C3 C4 S1 177.03(9)
O1 S1 C4 C3 10.95(11)
O2 S1 C4 C3 147.49(9)
N1 S1 C4 C3 -101.17(10)
O1 S1 C4 C5 -172.00(9)
O2 S1 C4 C5 -35.45(11)
N1 S1 C4 C5 75.88(10)
C3 C4 C5 C6 0.35(19)
S1 C4 C5 C6 -176.63(10)
C4 C5 C6 C1 -0.2(2)
C2 C1 C6 C5 -0.3(2)
C7 C1 C6 C5 -179.93(13)
C15 N1 C8 C9 -0.57(12)
S1 N1 C8 C9 -165.76(8)
N1 C8 C9 C14 0.35(12)
N1 C8 C9 S2 -177.12(8)
C10 S2 C9 C8 135.09(11)
C10 S2 C9 C14 -42.07(10)
C11 S3 C10 C13 40.96(10)
C11 S3 C10 S2 -139.82(6)
C9 S2 C10 C13 41.20(11)
C9 S2 C10 S3 -138.01(6)
C10 S3 C11 C12 -42.03(10)
C10 S3 C11 C16 138.72(8)
C16 C11 C12 C17 -0.58(18)
S3 C11 C12 C17 -179.72(9)
C16 C11 C12 S4 179.50(9)
S3 C11 C12 S4 0.36(13)
C13 S4 C12 C11 41.93(10)
C13 S4 C12 C17 -138.01(8)
S3 C10 C13 S4 1.73(14)
S2 C10 C13 S4 -177.43(6)
S3 C10 C13 S5 -178.72(6)
S2 C10 C13 S5 2.12(15)
C12 S4 C13 C10 -43.49(10)
C12 S4 C13 S5 136.93(6)
C14 S5 C13 C10 -43.85(11)
C14 S5 C13 S4 135.72(6)
C8 C9 C14 C15 -0.01(13)
S2 C9 C14 C15 177.69(8)
C8 C9 C14 S5 -176.86(8)
S2 C9 C14 S5 0.85(14)
C13 S5 C14 C15 -134.64(11)
C13 S5 C14 C9 41.47(10)
C9 C14 C15 N1 -0.33(12)
S5 C14 C15 N1 176.20(9)
C8 N1 C15 C14 0.56(12)
S1 N1 C15 C14 165.74(8)
