#------------------------------------------------------------------------------
#$Date: 2015-09-23 09:18:51 +0300 (Wed, 23 Sep 2015) $
#$Revision: 158250 $
#$URL: svn://www.crystallography.net/cod/cif/7/22/22/7222280.cif $
#------------------------------------------------------------------------------
#
# This file is available in the Crystallography Open Database (COD),
# http://www.crystallography.net/
#
# All data on this site have been placed in the public domain by the
# contributors.
#
data_7222280
loop_
_publ_author_name
'Shankar, Ravi'
'Asija, Meenal'
'Kociok-K\"ohn, Gabriele'
'Molloy, Kieran C.'
'Shestakova, Pavletta'
_publ_section_title
;
 Growth modulation of bent micro crystals to single crystals in a
 one-dimensional coordination framework
;
_journal_issue                   98
_journal_name_full               'RSC Adv.'
_journal_page_first              80501
_journal_paper_doi               10.1039/C5RA14510D
_journal_volume                  5
_journal_year                    2015
_chemical_formula_moiety         'C12 H30 O6 P2 Sn'
_chemical_formula_sum            'C12 H30 O6 P2 Sn'
_chemical_formula_weight         451.01
_chemical_name_systematic
;
 ?
;
_space_group_crystal_system      triclinic
_space_group_IT_number           2
_space_group_name_Hall           '-P 1'
_space_group_name_H-M_alt        'P -1'
_symmetry_space_group_name_Hall  '-P 1'
_symmetry_space_group_name_H-M   'P -1'
_atom_sites_solution_hydrogens   geom
_audit_creation_method           SHELXL-2013
_audit_update_record
;
2015-05-13 deposited with the CCDC.
2015-09-17 downloaded from the CCDC.
;
_cell_angle_alpha                86.763(5)
_cell_angle_beta                 85.077(5)
_cell_angle_gamma                82.392(4)
_cell_formula_units_Z            1
_cell_length_a                   5.2504(4)
_cell_length_b                   8.6355(7)
_cell_length_c                   10.3202(8)
_cell_measurement_reflns_used    14792
_cell_measurement_temperature    150(2)
_cell_measurement_theta_max      30.034
_cell_measurement_theta_min      2.910
_cell_volume                     461.60(6)
_computing_cell_refinement       'HKL Scalepack (Otwinowski & Minor, 1997)'
_computing_data_collection       'Collect (Nonius BV, 1997-2000)'
_computing_data_reduction
;
 DENZO-SCALEPACK Z. Otwinowski and W. Minor, " 
 Processing of X-ray Diffraction Data Collected in Oscillation Mode ", 
 Methods in Enzymology, Volume 276: Macromolecular Crystallography, 
 part A, p.307-326, 1997,C.W. Carter, Jr. & R. M. Sweet, Eds., Academic Press.
;
_computing_molecular_graphics
'ORTEP3 for Windows - Farrugia, L. J. J. Appl. Crystallogr. 1997, 30, 565'
_computing_publication_material
;
 'SHELXL-2013 (Sheldrick, 2013)
;
_computing_structure_refinement
;
 SHELXL-2013 (Sheldrick, 2013)
 Sheldrick GM (2008) Acta Crystallogr A64:112--122 and 
 C. B. H\"ubschle, G. M. Sheldrick and B. Dittrich
 ShelXle: a Qt graphical user interface for SHELXL
 J. Appl. Cryst., 44, (2011) 1281-1284.
;
_computing_structure_solution
; 
 SIR97- Altomare A., Burla M.C., Camalli M., Cascarano G.L., Giacovazzo C. , 
 Guagliardi A., Moliterni A.G.G., Polidori G.,Spagna R. 
 (1999) J. Appl. Cryst. 32, 115-119
;
_diffrn_ambient_temperature      150(2)
_diffrn_measured_fraction_theta_full 0.981
_diffrn_measured_fraction_theta_max 0.961
_diffrn_measurement_device_type  'Nonius Kappa CCD'
_diffrn_measurement_method       '270 2.0 degree images with \f and \w scans'
_diffrn_radiation_monochromator  graphite
_diffrn_radiation_source         'fine-focus sealed tube'
_diffrn_radiation_type           MoK\a
_diffrn_radiation_wavelength     0.71073
_diffrn_reflns_av_R_equivalents  0.0848
_diffrn_reflns_av_unetI/netI     0.0817
_diffrn_reflns_laue_measured_fraction_full 0.981
_diffrn_reflns_laue_measured_fraction_max 0.961
_diffrn_reflns_limit_h_max       7
_diffrn_reflns_limit_h_min       -7
_diffrn_reflns_limit_k_max       11
_diffrn_reflns_limit_k_min       -12
_diffrn_reflns_limit_l_max       14
_diffrn_reflns_limit_l_min       -13
_diffrn_reflns_number            8779
_diffrn_reflns_point_group_measured_fraction_full 0.981
_diffrn_reflns_point_group_measured_fraction_max 0.961
_diffrn_reflns_theta_full        25.242
_diffrn_reflns_theta_max         30.013
_diffrn_reflns_theta_min         3.968
_exptl_absorpt_coefficient_mu    1.577
_exptl_absorpt_correction_T_max  0.729
_exptl_absorpt_correction_T_min  0.572
_exptl_absorpt_correction_type   multi-scan
_exptl_absorpt_process_details
;
multi-scan from symmetry-related measurements 
 Sortav (Blessing 1995)
;
_exptl_crystal_colour            colourless
_exptl_crystal_density_diffrn    1.622
_exptl_crystal_description       cube
_exptl_crystal_F_000             230
_exptl_crystal_size_max          0.600
_exptl_crystal_size_mid          0.300
_exptl_crystal_size_min          0.200
_refine_diff_density_max         0.659
_refine_diff_density_min         -1.982
_refine_diff_density_rms         0.163
_refine_ls_extinction_method     none
_refine_ls_goodness_of_fit_ref   1.036
_refine_ls_hydrogen_treatment    constr
_refine_ls_matrix_type           full
_refine_ls_number_parameters     100
_refine_ls_number_reflns         2603
_refine_ls_number_restraints     0
_refine_ls_restrained_S_all      1.036
_refine_ls_R_factor_all          0.0612
_refine_ls_R_factor_gt           0.0410
_refine_ls_shift/su_max          0.000
_refine_ls_shift/su_mean         0.000
_refine_ls_structure_factor_coef Fsqd
_refine_ls_weighting_details
'w=1/[\s^2^(Fo^2^)+(0.0358P)^2^] where P=(Fo^2^+2Fc^2^)/3'
_refine_ls_weighting_scheme      calc
_refine_ls_wR_factor_gt          0.0782
_refine_ls_wR_factor_ref         0.0844
_reflns_Friedel_coverage         0.000
_reflns_number_gt                2125
_reflns_number_total             2708
_reflns_threshold_expression     'I > 2\s(I)'
_cod_data_source_file            c5ra14510d2.cif
_cod_data_source_block           h14kcm7
_cod_database_code               7222280
_audit_block_doi                 10.5517/cc1j0hkl
_shelx_space_group_comment
;
The symmetry employed for this shelxl refinement is uniquely defined
by the following loop, which should always be used as a source of
symmetry information in preference to the above space-group names.
They are only intended as comments.
;
_shelx_estimated_absorpt_t_min   0.451
_shelx_estimated_absorpt_t_max   0.743
_shelxl_version_number           2013-4
_shelx_res_file
;
TITL h14kcm07
CELL 0.71073   5.2504   8.6355  10.3202  86.763  85.077  82.392
ZERR  1 0.0004  0.0007  0.0008  0.005  0.005  0.004
LATT  1
SFAC C  H  O  P Sn
UNIT 12 30 6 2 1
OMIT     0  -1   1
OMIT     0   1   1
OMIT     1   0   0
LIST 4
ACTA
BOND $H
CONF
FMAP 2
PLAN -10
TEMP -123
SIZE 0.6 0.3 0.2
L.S.  8
WGHT    0.035800
FVAR       0.49909
SN    5    0.000000    1.000000    0.000000    10.50000    0.01031    0.02034 =
         0.01819   -0.00045   -0.00303   -0.00084
P     4    0.561659    0.797934   -0.144380    11.00000    0.00978    0.01837 =
         0.01802   -0.00318   -0.00197   -0.00056
O1    3    0.298147    0.889923   -0.141105    11.00000    0.01230    0.02267 =
         0.01835   -0.00384   -0.00056    0.00512
O2    3    0.541046    0.616879   -0.117604    11.00000    0.01831    0.01844 =
         0.03319   -0.00340   -0.01031   -0.00128
O3    3    0.739726    0.834712   -0.047554    11.00000    0.01502    0.02292 =
         0.02543   -0.00242   -0.00814   -0.00511
C1    1    0.706772    0.816915   -0.305743    11.00000    0.01885    0.04308 =
         0.02744   -0.00672    0.00214   -0.00297
AFIX 137
H1A   2    0.883250    0.762661   -0.309855    11.00000   -1.50000
H1B   2    0.710390    0.927909   -0.330434    11.00000   -1.50000
H1C   2    0.606613    0.770631   -0.365827    11.00000   -1.50000
AFIX   0
C2    1    0.332371    0.547362   -0.163137    11.00000    0.03133    0.02270 =
         0.03917   -0.00383   -0.01449   -0.01008
AFIX 137
H2A   2    0.343526    0.437452   -0.132215    11.00000   -1.50000
H2B   2    0.344122    0.553798   -0.258531    11.00000   -1.50000
H2C   2    0.167533    0.603552   -0.129637    11.00000   -1.50000
AFIX   0
C3    1    0.130141    0.829890    0.146153    11.00000    0.01497    0.02004 =
         0.01967   -0.00122   -0.00599    0.00026
AFIX  23
H3A   2    0.177618    0.728184    0.104977    11.00000   -1.20000
H3B   2    0.288894    0.859982    0.177506    11.00000   -1.20000
AFIX   0
C4    1   -0.058423    0.806536    0.263480    11.00000    0.01599    0.02666 =
         0.01992    0.00290   -0.00227   -0.00413
AFIX  23
H4A   2   -0.223969    0.786091    0.232919    11.00000   -1.20000
H4B   2   -0.091575    0.904145    0.311519    11.00000   -1.20000
AFIX   0
C5    1    0.038536    0.671859    0.356153    11.00000    0.02063    0.02834 =
         0.02705    0.00488   -0.00142   -0.00275
AFIX  23
H5A   2   -0.106713    0.646705    0.417937    11.00000   -1.20000
H5B   2    0.098572    0.578293    0.305264    11.00000   -1.20000
AFIX   0
C6    1    0.256176    0.707120    0.432692    11.00000    0.02512    0.04257 =
         0.02868    0.00933   -0.00641   -0.00236
AFIX 137
H6A   2    0.305253    0.617959    0.492428    11.00000   -1.50000
H6B   2    0.199144    0.800366    0.482649    11.00000   -1.50000
H6C   2    0.404871    0.725836    0.372495    11.00000   -1.50000
AFIX   0
HKLF 4

REM  h14kcm07
REM R1 =  0.0410 for    2125 Fo > 4sig(Fo)  and  0.0612 for all    2603 data
REM    100 parameters refined using      0 restraints

END

WGHT      0.0358      0.0000

REM Highest difference peak  0.659,  deepest hole -1.982,  1-sigma level  0.163
Q1    1   0.1528  0.8015  0.0697  11.00000  0.05    0.66
Q2    1   0.0434  0.7577 -0.1698  11.00000  0.05    0.64
Q3    1   0.2474  1.0604 -0.1241  11.00000  0.05    0.63
Q4    1   0.1231  1.1375  0.0402  11.00000  0.05    0.62
Q5    1   0.0801  0.8392  0.0275  11.00000  0.05    0.61
Q6    1   0.3036  1.0860  0.0416  11.00000  0.05    0.59
Q7    1   0.3838  0.9660 -0.2553  11.00000  0.05    0.59
Q8    1   0.5949  0.6400  0.3794  11.00000  0.05    0.59
Q9    1  -0.0051  0.9846 -0.1180  11.00000  0.05    0.56
Q10   1   0.0425  1.0967 -0.1104  11.00000  0.05    0.55
;
_shelx_res_checksum              98299
_shelx_hkl_file
;
  -7  -4   1   13.37   10.93
  -7  -4   2   14.52    9.95
  -7  -3   1   14.70   11.11
  -7  -3   2   45.61   14.39
  -7  -3   3   76.14   14.92
  -7  -2   1   69.85   15.85
  -7  -2   2  102.98   14.75
  -7  -2   3   69.97   15.58
  -7  -1   1  167.00   20.08
  -7  -1   2   91.68   14.38
  -7  -1   3   31.43   14.08
  -7   0   1  132.61   16.91
  -7   0   2   60.79   15.13
  -7   0   3    3.10   17.30
  -7   1   0  106.98   16.95
   7  -1   0   82.49   19.35
  -7   1   1   20.49   14.03
  -7   1   2   26.52   14.72
   7  -2   0    8.17   18.91
  -7   2   0    5.29   15.22
  -6  -8   1   84.88   10.94
  -6  -8   1   70.15   15.78
  -6  -8   1   40.83   20.27
  -6  -7   1   88.73   13.10
  -6  -7   1   61.02   19.83
  -6  -7   1  102.91   10.63
  -6  -7   2   23.73    8.44
  -6  -7   2   32.44   18.45
  -6  -7   3    0.48   14.52
  -6  -6   1    8.89    8.32
  -6  -6   1   23.98    9.22
  -6  -6   1   -1.89   14.35
  -6  -6   2    5.06   15.35
  -6  -6   2    3.18    7.94
  -6  -6   3   19.03    6.98
  -6  -6   3   21.45   16.84
  -6  -6   4    0.32   16.90
  -6  -6   5   17.43   19.99
  -6  -5   1   -3.83    7.02
  -6  -5   2   34.59    8.94
  -6  -5   3   25.19   16.00
  -6  -5   3   45.49    7.84
  -6  -5   4   83.37    8.52
  -6  -5   4   58.32   13.52
  -6  -5   5   83.66   20.73
  -6  -4   1   50.99    8.49
  -6  -4   2  123.66   10.31
  -6  -4   3  236.60   15.86
  -6  -4   4  120.62   10.78
  -6  -4   5   71.96   17.48
  -6  -4   5   55.87    8.82
  -6  -4   6   10.33   17.97
   6   3  -1  188.23   14.82
  -6  -3   1  271.22   17.46
  -6  -3   2  179.77   12.90
  -6  -3   3  113.71   11.54
  -6  -3   4   94.07   10.41
  -6  -3   5    1.44    8.14
  -6  -3   6   13.62   12.99
  -6  -3   6    3.20    7.36
  -6  -3   7   24.52   19.14
   6   2  -1  105.74   12.02
  -6  -2   1  156.05   14.13
   6   2  -2   54.59   11.34
  -6  -2   2  100.72   11.85
  -6  -2   3   16.76    7.67
  -6  -2   4   58.03   10.09
  -6  -2   5   54.95   10.27
  -6  -2   6   44.18   10.77
  -6  -2   7   71.55   11.47
   6   1  -1   37.61    9.57
  -6  -1   1   29.96    8.45
   6   1  -2   15.94    8.45
  -6  -1   2   32.37    8.93
  -6  -1   3   72.68   11.20
   6   1  -3   31.47    9.11
  -6  -1   4   26.60   10.42
  -6  -1   5  110.90   11.64
  -6  -1   6   58.10   12.47
  -6  -1   7   31.10   12.87
   6   0  -1   -0.48    9.22
  -6   0   1    4.77    8.90
  -6   0   2   18.78    8.91
   6   0  -2   11.62    9.55
   6   0  -3   34.95   10.38
  -6   0   3   68.15   10.55
  -6   0   4   81.74   11.72
  -6   0   5   59.32   12.75
  -6   0   6  117.87   14.16
  -6   0   7    8.35   15.06
  -6   1   0   11.09    9.66
   6  -1   0    5.07    9.82
  -6   1   1   39.62    9.83
   6  -1  -1   39.78   11.10
  -6   1   2  195.54   15.18
  -6   1   3  132.28   13.74
  -6   1   4   99.29   13.14
  -6   1   5   40.53   11.43
  -6   1   6   32.08   14.91
  -6   1   7    9.97   12.10
  -6   2   0  195.64   16.52
  -6   2   1  216.49   17.33
   6  -2  -2  128.84   16.33
  -6   2   2  154.61   13.51
   6  -2  -3   21.23   15.69
  -6   2   3   57.37   12.37
  -6   2   4   14.00   11.14
   6  -2  -4   -7.00   15.75
  -6   2   5    1.76   11.68
  -6   2   6   11.60   13.21
  -6   3   0  156.63   15.64
  -6   3   1  179.18   17.84
   6  -3  -1  137.21   19.22
  -6   3   2   15.41   11.64
   6  -3  -2   38.37   16.67
  -6   3   3   14.33   12.29
   6  -3  -3    5.20   16.22
   6  -3  -4   21.64   16.75
  -6   3   4   26.38   12.80
  -6   3   5   40.95   17.15
  -6   4   0   87.46   15.98
   6  -4   0   34.11   17.68
  -6   4   1   50.63   14.07
   6  -4  -1   42.97   17.51
  -6   4   2   15.47   13.28
   6  -4  -2    5.00   17.65
   6  -4  -3   16.57   17.35
  -6   4   3    8.13   13.76
   6  -4  -4   10.34   19.59
  -6   4   4   46.22   14.58
  -6   5   0    3.11   15.24
   6  -5   0  -13.84   19.60
  -6   5   1  -13.50   15.06
   6  -5  -1    4.04   19.40
  -6   5   2    4.34   15.51
   6  -5  -2    0.00   18.76
   6  -5  -3   43.11   19.86
  -6   5   3   52.26   16.45
  -5  -9   1   53.08   15.03
  -5  -9   1   57.19    8.47
  -5  -9   2   10.71   13.38
  -5  -9   3   25.65   14.98
  -5  -8   1    8.78   11.37
  -5  -8   1   31.44    8.02
  -5  -8   2   14.96    5.14
  -5  -8   2    7.22   11.18
  -5  -8   3   11.54   12.23
  -5  -7   1    8.38   13.44
  -5  -7   1    2.80    6.99
  -5  -7   1   -2.17    8.96
  -5  -7   2   56.01   14.77
  -5  -7   2   62.21   11.22
  -5  -7   2   64.91    6.65
  -5  -7   3   95.12   11.86
  -5  -7   3   60.55   15.79
  -5  -7   4   60.81   13.30
  -5  -6   1   82.23    7.46
  -5  -6   1   68.68    9.28
  -5  -6   1   38.80   11.90
  -5  -6   2  104.69   10.65
  -5  -6   2   73.27   14.02
  -5  -6   2  138.53    8.78
  -5  -6   3   92.95   14.73
  -5  -6   4   76.27   15.27
  -5  -6   5   31.14   15.49
  -5  -6   6   21.81   12.19
  -5  -5   1  210.19   14.39
  -5  -5   1  222.76   13.71
   5   5  -1  203.59   13.35
  -5  -5   1  252.43   13.79
  -5  -5   2  213.57   14.29
  -5  -5   2  269.99   13.99
   5   5  -2  240.78   13.59
  -5  -5   2  198.52   16.99
  -5  -5   3   81.57    8.09
  -5  -5   3   57.45   12.26
  -5  -5   4   52.06    5.40
  -5  -5   4   32.68   12.00
  -5  -5   5    1.43    8.41
  -5  -5   6   23.58   14.82
  -5  -5   7   48.77   13.12
  -5  -4   1  178.94   12.02
  -5  -4   1  222.58   12.69
  -5  -4   1  217.03   13.16
   5   4  -1  180.36   12.59
  -5  -4   2   34.98    7.17
   5   4  -2   28.32    6.58
  -5  -4   2   44.43    5.82
  -5  -4   3    2.65    5.15
   5   4  -3   -0.31    4.84
  -5  -4   4    2.51    7.70
  -5  -4   4    6.25    5.31
  -5  -4   5   35.82   12.00
  -5  -4   5   60.16    5.54
  -5  -4   6   67.16   12.05
  -5  -4   7  116.43   18.46
  -5  -4   8   61.76   17.68
   5   3  -1   69.92    8.02
   5   3  -1   44.19   10.00
  -5  -3   1   85.91    8.97
  -5  -3   1   77.88    7.62
   5   3  -2   -0.31    5.00
  -5  -3   2    3.43    5.29
  -5  -3   2   -0.62    4.69
   5   3  -3   40.93    7.02
  -5  -3   3   57.90    7.03
  -5  -3   3   52.36    5.83
  -5  -3   4  126.35    8.81
   5   3  -4   74.04    8.12
  -5  -3   5  140.23    9.14
  -5  -3   6   84.15   14.83
  -5  -3   6  144.40    8.54
  -5  -3   7   53.50    5.63
  -5  -3   7   39.78   13.42
  -5  -3   8    3.79   15.17
  -5  -3   9  -10.60   17.09
  -5  -2   1   50.02    6.75
  -5  -2   1   35.06    5.49
   5   2  -1   30.28    8.41
   5   2  -1   29.42    6.27
   5   2  -2   57.74    9.91
  -5  -2   2   96.68    8.17
  -5  -2   2  100.98    7.88
   5   2  -2   86.84    8.94
  -5  -2   3   90.50    8.00
   5   2  -3   52.58    7.66
  -5  -2   4  184.00   11.22
  -5  -2   4  164.75   10.39
   5   2  -4  118.92   10.05
  -5  -2   5  108.61    8.66
  -5  -2   6   64.98    7.70
  -5  -2   7    5.18    8.79
  -5  -2   7    2.67    6.12
  -5  -2   8   20.88   10.52
  -5  -2   8   11.15    7.07
  -5  -2   9   50.39   16.96
   5   1  -1   -1.72    5.78
  -5  -1   1    3.13    5.32
  -5  -1   1    2.14    6.29
   5   1  -1    8.05    6.78
   5   1  -2  183.90   13.54
   5   1  -2  178.72   14.06
  -5  -1   2  218.62   12.86
  -5  -1   2  257.24   14.40
   5   1  -3  140.06   13.77
  -5  -1   3  214.79   11.81
  -5  -1   3  217.45   13.14
   5   1  -3  163.55   12.15
  -5  -1   4  142.00   10.62
  -5  -1   4  149.02    9.99
  -5  -1   5  136.00    9.71
  -5  -1   6   34.16    8.11
  -5  -1   7    6.24    8.32
  -5  -1   8   19.19    9.83
  -5  -1   8   34.12    9.02
  -5  -1   9   91.76   12.17
  -5  -1   9   87.88   16.53
  -5   0   1  221.26   13.46
   5   0  -1  190.05   13.69
   5   0  -1  168.59   12.18
  -5   0   1  232.72   13.27
  -5   0   2  263.51   13.96
  -5   0   2  253.65   14.35
   5   0  -2  210.68   14.68
   5   0  -3  170.75   14.68
  -5   0   3  286.66   14.96
  -5   0   3  237.68   12.88
   5   0  -3  244.88   15.84
  -5   0   4   74.47    8.39
  -5   0   4   61.69    8.73
   5   0  -4   52.86   11.05
  -5   0   5   20.63    6.83
   5   0  -5   42.85   11.75
  -5   0   6   30.04    8.95
  -5   0   7   60.06   10.15
  -5   0   7   30.41    8.31
  -5   0   8   93.67   12.68
  -5   0   8   45.28   14.68
  -5   0   9   32.26   11.60
  -5   0   9   77.75   12.95
  -5   0   9   25.22   15.17
   5  -1   0  239.17   12.92
  -5   1   0  337.05   16.18
  -5   1   0  311.15   16.89
  -5   1   1  281.17   14.73
   5  -1  -1  258.66   16.40
  -5   1   1  271.32   14.68
  -5   1   2   63.12    8.99
   5  -1  -2   53.72    9.72
  -5   1   2   60.45    8.00
  -5   1   3   19.64    6.60
   5  -1  -3   17.59    9.11
  -5   1   3   12.87    8.25
  -5   1   4   87.06   10.12
   5  -1  -4   84.54   12.48
  -5   1   4   66.83    9.84
  -5   1   5   55.80    9.84
   5  -1  -5   40.90   12.84
  -5   1   6  117.68   12.47
  -5   1   6   72.07   11.58
   5  -1  -6   94.24   15.17
  -5   1   7  189.79   14.22
  -5   1   7  137.55   16.86
  -5   1   8   31.82   15.36
  -5   1   8   74.76   14.26
  -5   1   9  -19.78   15.96
  -5   1   9   12.24   13.87
   5  -2   0  204.09   15.09
  -5   2   0  237.79   14.04
  -5   2   1   72.13   10.68
  -5   2   1   67.00    8.77
   5  -2  -1   43.10   10.16
  -5   2   2   27.37    7.35
  -5   2   2   32.05    9.62
   5  -2  -2   36.44   10.01
  -5   2   3   56.73    8.32
   5  -2  -3   64.72   10.51
  -5   2   4  130.90   12.62
   5  -2  -4   97.12   14.32
   5  -2  -5  102.04   15.17
  -5   2   5  117.66   12.50
  -5   2   5   96.54   10.92
  -5   2   6   83.98   10.80
   5  -2  -6   73.84   12.85
  -5   2   6   72.05   12.52
  -5   2   7   73.94   12.61
  -5   2   7   38.85    9.92
  -5   2   8   11.57   13.95
  -5   2   8    9.95   15.40
  -5   2   9    1.29   12.61
  -5   2   9   22.38   16.79
   5  -3   0  102.68   12.65
  -5   3   0  104.71   10.17
  -5   3   1   92.41   10.78
   5  -3  -1   71.06   11.86
   5  -3  -2   69.68   11.09
  -5   3   2   86.83    9.70
  -5   3   3  149.30   12.24
   5  -3  -3  130.27   14.24
  -5   3   4   72.81   10.49
   5  -3  -4   56.87   12.20
  -5   3   4   46.40    8.23
   5  -3  -5   50.27   13.32
  -5   3   5   50.42   11.13
  -5   3   5   28.73   10.10
  -5   3   6   27.97   11.95
  -5   3   6    0.47   10.14
   5  -3  -6   31.11   13.36
  -5   3   7   19.57   13.10
  -5   3   7   -8.17   11.15
  -5   3   8    4.91   13.15
  -5   3   8  -10.32   13.65
   5  -4   0   18.18   11.81
  -5   4   0    4.66    8.86
   5  -4  -1   82.29   13.06
  -5   4   1   96.11   11.68
  -5   4   2  194.10   15.00
   5  -4  -2  148.48   15.88
  -5   4   3  115.70   13.23
   5  -4  -3  108.10   15.08
  -5   4   4   18.39    8.35
   5  -4  -4   35.84   14.28
  -5   4   4   48.56   11.80
   5  -4  -5   15.53   14.45
  -5   4   5   14.91   12.27
  -5   4   5   -3.71    8.04
  -5   4   6   -2.80   10.25
   5  -4  -6   -8.88   15.57
  -5   4   6    8.57   12.93
  -5   4   7   26.62   13.16
  -5   4   7   10.79   15.16
  -5   4   8   50.43   17.29
  -5   4   8    0.32   18.18
  -5   5   0   46.12   11.93
   5  -5   0   58.50   14.09
   5  -5  -1   89.15   15.32
  -5   5   1   88.22   13.01
  -5   5   2  187.27   16.00
   5  -5  -2  144.70   17.64
  -5   5   3   43.76   10.33
   5  -5  -3   25.42   14.95
  -5   5   4   13.09   12.94
   5  -5  -4   15.71   15.09
  -5   5   5   14.79   14.02
   5  -5  -5    9.09   15.56
   5  -5  -6   21.92   18.37
  -5   5   6   19.45   16.98
   5  -5  -7   22.61   18.90
  -5   5   7   56.22   18.76
  -5   6   0  162.75   19.32
   5  -6   0  183.07   20.11
  -5   6   1   52.85   14.60
   5  -6  -1   51.31   17.52
   5  -6  -2   -9.35   16.56
  -5   6   2   24.68   13.34
  -5   6   3   19.74   15.61
   5  -6  -3   -0.31   17.45
   5  -6  -4   18.50   17.89
  -5   6   4   -1.83   15.14
  -5   6   5   29.98   18.20
   5  -6  -5   14.68   18.97
  -5   7   0   63.07   16.55
   5  -7   0   40.11   18.53
  -5   7   1   23.97   15.58
   5  -7  -1   17.87   18.78
   5  -7  -2   12.19   17.82
  -5   7   2  -15.39   16.91
  -5   7   3   15.81   17.34
   5  -7  -3   19.31   19.47
  -4 -10   1    6.65    7.36
  -4 -10   1   13.60   12.74
  -4 -10   2    4.52   13.56
  -4 -10   3   15.21   10.47
  -4 -10   4   -4.41   14.89
  -4  -9   1   13.25   11.53
  -4  -9   1   15.56    6.49
  -4  -9   2    6.20    4.79
  -4  -9   2  -13.08   11.52
  -4  -9   3   59.22   12.79
  -4  -9   4   58.17   14.56
  -4  -8   1   92.67    7.94
  -4  -8   1   84.66   11.92
  -4  -8   2  134.23    8.15
  -4  -8   2  114.54   13.07
  -4  -8   3   44.25   10.58
  -4  -8   4   59.15   12.80
  -4  -7   1   92.17   11.53
  -4  -7   1  118.05   11.43
  -4  -7   1  117.38    8.36
  -4  -7   1  115.33    8.05
   4   7  -1  142.42    9.79
   4   7  -1  112.57    8.80
  -4  -7   2   20.78    5.90
   4   7  -2  207.13   11.13
  -4  -7   2  207.12   14.52
  -4  -7   2  234.32    9.26
  -4  -7   3   71.45    3.92
  -4  -7   3   80.66    3.88
  -4  -7   3   58.71    7.65
  -4  -7   4   41.51    7.38
  -4  -6   1  207.54   12.28
  -4  -6   1  256.81   11.06
  -4  -6   1  165.56   14.70
   4   6  -1  224.29   11.64
   4   6  -1  173.28   14.84
  -4  -6   1  214.29   13.91
  -4  -6   2  102.38    7.30
  -4  -6   2   77.92   11.54
   4   6  -2  100.12    7.02
   4   6  -2   81.22    7.49
  -4  -6   2   97.54    9.53
  -4  -6   2  122.83    6.76
  -4  -6   3  126.36    5.84
  -4  -6   3  107.06   10.07
   4   6  -3   86.91    5.79
  -4  -6   3  116.63    5.85
  -4  -6   3   84.71   12.56
   4   6  -3   94.31    5.95
  -4  -6   4   26.01   11.33
  -4  -5   1   33.84    6.96
   4   5  -1   33.70    5.63
  -4  -5   1   33.80    4.53
   4   5  -1   29.44    4.84
  -4  -5   1   36.44    7.91
  -4  -5   1   26.68    4.78
   4   5  -2   -5.17   10.04
  -4  -5   2    5.15    3.43
   4   5  -2    5.12    4.27
   4   5  -2   -2.03    4.06
  -4  -5   2   -0.72    5.29
  -4  -5   2   -0.16    5.60
  -4  -5   2    4.55    3.56
   4   5  -3   53.60    4.62
  -4  -5   3   46.08    9.88
  -4  -5   3   61.32    7.58
  -4  -5   3   56.11    4.41
   4   5  -3   45.93    4.41
  -4  -5   3   10.75    3.30
  -4  -5   4  140.64   13.78
  -4  -5   5   78.02   12.57
  -4  -5   6  109.68   13.79
   4   4  -1   -2.48    4.18
   4   4  -1    3.96    4.66
  -4  -4   1    3.53    4.38
  -4  -4   1    4.18    3.41
  -4  -4   1   -5.83    5.54
   4   4  -1   -2.59    5.04
  -4  -4   2  132.11    8.05
  -4  -4   2  130.13    8.99
  -4  -4   2  138.76    8.09
   4   4  -2  161.22    8.69
   4   4  -2  123.77    8.33
   4   4  -2  115.91   10.25
   4   4  -3  208.96   11.71
  -4  -4   3  258.23   10.86
   4   4  -3  245.05   12.24
  -4  -4   3  224.06   13.14
  -4  -4   3  261.55   11.29
  -4  -4   4  227.28    9.95
  -4  -4   4  236.67   10.71
  -4  -4   4  174.62   14.12
   4   4  -4  220.55   11.88
   4   4  -4  229.55   10.64
   4   4  -5   76.73    4.29
  -4  -4   5   96.27    4.16
  -4  -4   5   89.74    3.82
   4   4  -5   75.01    3.95
  -4  -4   5   57.77    8.83
  -4  -4   6    6.02   10.30
  -4  -4   7   -7.65   10.67
  -4  -4   8    0.16    8.16
   4   3  -1  347.52   16.01
   4   3  -1  302.17   16.56
  -4  -3   1  288.34   12.70
  -4  -3   1  302.67   13.15
   4   3  -1  273.15   13.99
  -4  -3   1  327.07   14.11
  -4  -3   2  237.51    9.77
   4   3  -2  227.76   12.73
   4   3  -2  182.56   12.47
  -4  -3   2  219.64   10.99
   4   3  -2  194.06   10.18
  -4  -3   2  199.96   10.20
   4   3  -3  110.93   10.81
  -4  -3   3  144.68    7.54
  -4  -3   3  156.74    8.58
   4   3  -3  144.96    7.96
   4   3  -3  128.56    7.92
   4   3  -4   17.58    3.97
  -4  -3   4   25.32    3.65
  -4  -3   4   18.57    3.55
   4   3  -4   20.31    3.65
   4   3  -4   19.67    6.56
   4   3  -5   14.04    3.93
   4   3  -5   12.06    4.16
   4   3  -5   12.88    7.48
  -4  -3   5   -1.44    2.87
  -4  -3   5   22.97    7.03
  -4  -3   5   20.24    3.48
  -4  -3   6   25.17    3.34
  -4  -3   6   17.59    6.76
  -4  -3   6   30.00    3.34
   4   3  -6    0.00    9.33
   4   3  -6   19.86    4.25
   4   3  -6   13.87    3.32
  -4  -3   7   45.14   10.58
  -4  -3   8  108.77   14.93
  -4  -3   9  149.41   16.94
  -4  -2   1  534.88   19.56
   4   2  -1  438.10   18.94
  -4  -2   1  448.82   18.23
   4   2  -1  543.46   20.94
   4   2  -1  441.13   20.08
  -4  -2   1  519.69   19.36
   4   2  -2  268.33   15.77
  -4  -2   2  328.81   16.33
   4   2  -2  283.30   13.40
   4   2  -2  308.31   13.08
  -4  -2   2  307.74   13.78
   4   2  -3   43.03    5.22
  -4  -2   3   73.81    5.31
  -4  -2   3   72.27    5.25
   4   2  -3   60.74    8.59
   4   2  -3   53.54    5.72
   4   2  -4    7.47    6.20
  -4  -2   4   29.44    4.30
  -4  -2   4   25.84    3.84
   4   2  -4   18.09    4.14
   4   2  -4   27.26    5.12
   4   2  -4   19.34    6.40
   4   2  -5   42.76    4.79
  -4  -2   5   64.28    5.34
   4   2  -5   48.57    6.31
  -4  -2   5   72.29    5.43
   4   2  -5   30.28    6.50
  -4  -2   6   98.71    6.56
  -4  -2   6  100.05    6.68
   4   2  -6   60.95   11.82
   4   2  -6   71.34    7.36
  -4  -2   7  140.81   13.52
  -4  -2   7  136.65    8.59
   4   2  -7  134.52    9.19
  -4  -2   7  141.52   11.73
  -4  -2   7  170.51    8.70
  -4  -2   8  198.67   17.65
  -4  -2   8  179.12   16.41
  -4  -2   8  282.28   12.77
  -4  -2   9   95.09   12.99
  -4  -2   9  137.30    8.05
  -4  -2   9   84.23   15.16
  -4  -2  10    4.76    9.04
  -4  -2  10    8.92   14.65
  -4  -2  11  -23.38   17.94
   4   1  -1  370.32   17.92
   4   1  -1  364.11   18.01
   4   1  -1  418.77   17.16
  -4  -1   1  413.03   17.58
  -4  -1   1  425.51   17.39
  -4  -1   2  294.62   14.57
   4   1  -2  234.92   14.38
  -4  -1   2  312.74   13.33
   4   1  -2  300.49   14.15
  -4  -1   3   33.45    4.70
   4   1  -3   26.15    5.42
   4   1  -3   38.55    7.86
   4   1  -3   26.90    5.98
  -4  -1   3   24.29    4.18
   4   1  -4   34.40    5.84
  -4  -1   4   34.11    4.70
   4   1  -4   33.67    6.74
   4   1  -4   29.82    5.59
  -4  -1   4   45.30    4.99
   4   1  -4   42.96    5.93
   4   1  -5  121.81    8.68
  -4  -1   5  142.18   10.44
   4   1  -5   91.18   11.69
  -4  -1   5  151.76    8.40
  -4  -1   5  138.17    8.16
   4   1  -5  109.92   10.28
   4   1  -5  113.43    8.40
   4   1  -6  222.12   13.39
   4   1  -6  199.04   14.96
  -4  -1   6  240.22   12.14
  -4  -1   6  217.03   15.22
  -4  -1   6  242.66   12.48
   4   1  -6  205.22   12.75
   4   1  -7  113.07   14.78
  -4  -1   7  251.41   12.26
  -4  -1   7  218.53   11.98
  -4  -1   7  173.97   15.16
   4   1  -7  186.45   11.87
  -4  -1   8  100.94   13.83
  -4  -1   8  133.18    9.36
  -4  -1   8   86.99   12.49
  -4  -1   9   15.20    8.16
  -4  -1   9   13.60   11.25
  -4  -1   9   23.76    6.95
  -4  -1  10   18.70    7.32
  -4  -1  10   -4.83   14.18
  -4  -1  10    7.69   11.62
  -4  -1  11   10.53   12.48
   4   0  -1   34.83    6.17
   4   0  -1   25.59    5.53
  -4   0   1   31.82    5.45
  -4   0   1   27.46    4.63
   4   0  -1   26.23    5.56
   4   0  -2    6.42    6.27
   4   0  -2    9.54    4.84
   4   0  -2    2.63    5.89
  -4   0   2    2.01    4.65
  -4   0   2    7.40    4.13
  -4   0   3  130.39    7.71
  -4   0   3  131.62    8.32
   4   0  -3   95.63    8.54
   4   0  -3  119.78    8.62
   4   0  -3  103.45   10.14
   4   0  -4  233.52   13.60
   4   0  -4  278.95   13.17
  -4   0   4  318.89   14.30
  -4   0   4  288.12   13.44
   4   0  -4  244.34   16.58
  -4   0   4  282.65   14.58
   4   0  -4  271.19   12.71
  -4   0   5  262.86   15.72
   4   0  -5  313.64   14.02
   4   0  -5  282.55   16.82
   4   0  -5  255.81   14.98
  -4   0   5  281.23   14.64
  -4   0   5  318.62   15.30
  -4   0   6  258.95   12.47
  -4   0   6  282.70   14.24
   4   0  -6  232.81   14.04
  -4   0   6  217.06   16.11
   4   0  -6  191.35   13.84
  -4   0   7  117.08    9.44
   4   0  -7   90.00    9.90
   4   0  -7   65.75   10.57
  -4   0   7  129.61    9.29
  -4   0   7   97.70   12.39
  -4   0   8    4.33    6.57
  -4   0   8   -6.08    9.76
  -4   0   9   -0.31    9.61
  -4   0   9    3.55    7.10
  -4   0   9    3.87    8.07
  -4   0  10   37.87   10.24
  -4   0  10   21.79   11.71
  -4   0  10   19.91   11.51
  -4   0  11   49.44   11.63
  -4   0  11   20.11   19.62
  -4   0  11   33.10   13.03
   4  -1   0   40.21    6.64
   4  -1   0   35.17    6.02
  -4   1   0   35.02    6.06
  -4   1   0   39.65    5.26
   4  -1   0   41.81    5.41
  -4   1   1   35.93    5.12
   4  -1  -1   20.54    6.28
   4  -1  -1   30.51    6.20
   4  -1  -1   34.81    5.56
  -4   1   1   28.96    5.57
   4  -1  -2   45.75    7.09
   4  -1  -2   48.04    6.85
  -4   1   2   49.75    5.61
  -4   1   2   42.63    6.38
  -4   1   3  356.03   16.56
   4  -1  -3  350.26   17.99
   4  -1  -3  343.58   18.52
  -4   1   3  407.52   17.75
  -4   1   3  346.06   18.03
  -4   1   4  471.88   19.73
  -4   1   4  420.57   18.36
  -4   1   4  383.85   19.97
   4  -1  -4  364.66   18.24
   4  -1  -4  401.13   19.80
   4  -1  -5  164.34   11.84
  -4   1   5  188.13   10.94
  -4   1   5  156.28   12.28
   4  -1  -5  139.22    9.73
  -4   1   5  185.37   11.85
  -4   1   6   43.55    8.17
   4  -1  -6   31.20    8.20
   4  -1  -6   50.85    8.51
  -4   1   6   51.52    9.33
  -4   1   6   57.78    7.10
  -4   1   7   16.43    6.16
   4  -1  -7   16.11    8.53
  -4   1   7   14.04    8.62
  -4   1   7   22.86    8.41
   4  -1  -8    2.38   11.74
  -4   1   8   -4.03    9.99
  -4   1   8    6.82    8.25
  -4   1   9   21.46   12.19
  -4   1   9   18.66    8.62
  -4   1  10   61.41   13.28
  -4   1  10   75.35   17.38
  -4   1  10  121.35   12.91
  -4   1  11   36.90   18.29
  -4   1  11   35.79   13.70
  -4   1  11   65.95   12.63
  -4   2   0   92.66    8.92
   4  -2   0   91.66    9.21
  -4   2   0   98.40    7.93
   4  -2   0  101.34    8.40
  -4   2   1  108.27    8.25
   4  -2  -1   95.74    9.03
  -4   2   1  108.30    8.42
   4  -2  -1   94.38    8.39
   4  -2  -2  186.44   12.68
  -4   2   2  232.16   12.27
  -4   2   2  214.07   11.48
   4  -2  -2  174.35   12.72
  -4   2   3  220.48   12.11
  -4   2   3  198.48   11.90
  -4   2   3  210.21   12.21
   4  -2  -3  199.15   13.02
  -4   2   4  114.23    8.62
   4  -2  -4   82.10    6.09
  -4   2   4  118.87   10.00
  -4   2   4  106.99    9.24
   4  -2  -4  121.86    9.86
   4  -2  -5   36.18    8.43
  -4   2   5   44.45    7.03
   4  -2  -5   38.84    5.69
  -4   2   5   50.49    8.23
  -4   2   5   24.98    7.54
  -4   2   6   20.31    8.25
  -4   2   6    9.65    8.48
   4  -2  -6   15.30    8.74
  -4   2   6   20.14    6.87
  -4   2   7    9.70    7.20
  -4   2   7    2.89    8.98
  -4   2   7   -2.22    9.47
   4  -2  -7  -16.58    8.92
  -4   2   8   74.54   10.39
   4  -2  -8   51.94   11.94
  -4   2   8   46.68   12.33
  -4   2   9  107.62   12.20
  -4   2   9   66.09   15.23
  -4   2  10   24.39   14.50
  -4   2  10   62.57   13.33
  -4   2  10   44.59   12.11
  -4   2  11   64.06   17.23
  -4   2  11   13.58   18.39
  -4   3   0  153.03   10.00
  -4   3   0  137.56   10.16
   4  -3   0  140.18   10.14
  -4   3   1  205.21   12.37
  -4   3   1  212.89   12.74
   4  -3  -1  185.82   12.35
  -4   3   2  216.86   11.71
  -4   3   2  186.53   11.88
   4  -3  -2  179.35   12.34
  -4   3   2  250.88   12.73
  -4   3   3   44.66    7.14
  -4   3   3   63.91    8.60
  -4   3   3   48.24    6.53
   4  -3  -3   44.81    8.85
  -4   3   4   13.82    8.26
  -4   3   4    3.87    6.20
  -4   3   4    9.20    5.15
   4  -3  -4    7.28    8.83
  -4   3   5   37.18    9.70
  -4   3   5   36.52    7.88
  -4   3   5   37.62    7.90
   4  -3  -5   36.54    9.60
  -4   3   6   82.83   13.24
   4  -3  -6   56.82   11.01
  -4   3   6   73.10   10.22
  -4   3   6   87.94    9.48
   4  -3  -7   70.83   12.58
  -4   3   7   94.39   10.74
  -4   3   7   50.44   11.30
  -4   3   8  144.93   14.09
  -4   3   8  129.03   16.37
   4  -3  -8  126.45   14.84
  -4   3   9   47.35   16.62
  -4   3   9  162.87   16.05
  -4   3  10  -14.90   15.56
  -4   3  10    3.91   13.15
  -4   4   0  126.13   10.73
   4  -4   0  122.72   11.19
  -4   4   1  239.99   14.38
   4  -4  -1  196.98   14.95
  -4   4   2   98.86    9.23
   4  -4  -2   89.48   10.07
  -4   4   2   82.54    7.60
  -4   4   2  126.72    9.95
  -4   4   3   61.43   10.97
   4  -4  -3   23.76    3.27
  -4   4   3    8.97    6.34
  -4   4   3   43.96    8.34
   4  -4  -3   22.06    9.41
   4  -4  -4   38.79   10.17
   4  -4  -4   21.76    4.17
  -4   4   4   32.10    8.11
  -4   4   4   26.66    9.70
  -4   4   4   52.03    8.63
  -4   4   5   89.40   10.62
   4  -4  -5   82.09   12.48
  -4   4   5  118.83   11.28
  -4   4   6   93.26   11.41
  -4   4   6   60.70   11.37
   4  -4  -6  101.24   13.41
   4  -4  -7   77.17   17.09
  -4   4   7   95.76   13.97
  -4   4   7  114.52   10.70
  -4   4   8   72.06   12.82
   4  -4  -8   47.74   14.80
  -4   4   8   12.59   13.08
  -4   4   9   27.49   13.60
  -4   4   9    1.98   10.06
  -4   4  10  -26.05   18.59
  -4   4  10   27.28   14.89
   4  -5   0   68.53   10.51
  -4   5   0   74.24   10.06
   4  -5  -1   63.51   10.50
  -4   5   1   80.77    9.58
   4  -5  -2   60.75   10.93
  -4   5   2   40.59    5.55
  -4   5   2   80.28    9.87
   4  -5  -2   42.45    4.48
  -4   5   3  116.27   11.56
   4  -5  -3   92.95   12.00
  -4   5   3   75.65    9.44
   4  -5  -3   61.71    5.91
   4  -5  -4   81.51    7.65
  -4   5   4  119.65   11.54
   4  -5  -4   96.85   13.04
  -4   5   4   82.04    9.86
   4  -5  -5   85.37   13.32
  -4   5   5   59.33   10.29
  -4   5   5  107.51   11.97
  -4   5   6   68.67   12.23
  -4   5   6   41.44   11.06
   4  -5  -6   59.20   14.82
  -4   5   7   36.62   13.14
   4  -5  -7   47.62   14.67
  -4   5   7   78.00   14.38
   4  -5  -8   15.13   15.29
  -4   5   8   42.96   14.84
  -4   5   8   19.65   15.07
  -4   5   9   11.80   14.87
  -4   5   9    3.30   18.32
  -4   6   0   49.66   10.77
   4  -6   0   42.13   10.92
   4  -6  -1   28.23   11.51
  -4   6   1   40.05   11.05
   4  -6  -2   73.60   12.87
  -4   6   2   58.76   11.03
  -4   6   2   26.13    5.81
   4  -6  -3  169.49   17.47
  -4   6   3  215.41   16.01
  -4   6   3  150.20   13.94
  -4   6   4  127.36   14.10
   4  -6  -4  174.97   17.44
  -4   6   4  203.42   16.87
   4  -6  -5   47.08   14.74
  -4   6   5   30.58   10.26
  -4   6   5   30.07   13.06
   4  -6  -6   46.73   16.09
  -4   6   6    7.04   10.56
  -4   6   6   21.09   13.81
  -4   6   7   20.04   14.42
   4  -6  -7    5.31   16.55
  -4   6   7   -3.72   12.96
   4  -6  -8  -17.48   18.40
  -4   6   8   19.30   18.49
  -4   6   8    4.41   16.57
  -4   7   0   80.96   11.51
   4  -7   0   69.48   14.86
  -4   7   1  129.65   15.93
   4  -7  -1  123.69   15.17
  -4   7   2  131.41   16.20
   4  -7  -2  100.50   15.11
  -4   7   3   88.36   14.76
   4  -7  -3   83.80   16.27
  -4   7   4   21.05   14.24
   4  -7  -4   26.35   16.96
   4  -7  -5    9.07   17.69
  -4   7   5   -2.42   14.51
  -4   7   6    0.15   15.86
   4  -7  -6  -12.84   18.89
   4  -7  -7   19.80   18.44
  -4   7   7    5.90   12.40
  -4   8   0  111.95   17.86
   4  -8   0   77.07   16.47
  -4   8   1   78.13   17.20
   4  -8  -1   59.28   16.73
  -4   8   2   27.29   11.37
   4  -8  -2   63.37   17.75
  -4   8   3   13.31   15.42
   4  -8  -3  -20.41   15.58
   4  -8  -4   10.86   18.26
  -4   8   4   -5.73   16.14
  -4   8   5   32.24   17.48
   4  -8  -5   20.94   20.34
   4  -9   0   31.98   18.65
  -4   9   0   36.84   18.80
  -4   9   1   14.53   18.77
   4  -9  -1    1.21   18.31
   4  -9  -2   28.55   19.03
  -4   9   2   18.43   19.18
  -3 -11   1    6.56    7.14
  -3 -11   1    6.60   11.76
  -3 -11   2    9.50   15.45
  -3 -11   3   61.02   18.39
  -3 -10   1   19.19    9.38
  -3 -10   1   31.70    8.00
  -3 -10   2  122.02    9.90
  -3 -10   2   85.41   14.71
  -3 -10   3   89.15   15.55
  -3 -10   4   35.76   14.39
  -3  -9   1  174.86   11.76
  -3  -9   1  181.25   16.19
  -3  -9   2   55.61    5.30
  -3  -9   2   40.45   10.33
  -3  -9   3   -2.13    9.64
  -3  -9   4    2.81   10.10
  -3  -8   1  153.24   13.50
   3   8  -1  152.74   11.62
  -3  -8   1  190.31   10.52
  -3  -8   1  191.46   11.59
   3   8  -1  166.52   10.48
   3   8  -1   95.34   12.99
  -3  -8   2   31.15    8.80
  -3  -8   2    4.89    5.03
  -3  -8   2   30.90    4.58
   3   8  -2   28.91    6.30
   3   8  -2   21.17    5.01
  -3  -8   3    1.00    8.83
  -3  -8   3    8.46    2.22
  -3  -8   4   43.09    9.87
   3   7  -1   90.82    7.70
  -3  -7   1  107.32    8.01
   3   7  -1   87.71    6.93
   3   7  -1   66.46   10.40
  -3  -7   1   93.01    9.87
  -3  -7   1  124.68    7.13
   3   7  -2   42.47    7.99
  -3  -7   2   16.73    4.33
   3   7  -2   55.37    5.11
  -3  -7   2   77.07    8.58
   3   7  -2   64.00    5.78
  -3  -7   2   71.50    4.83
   3   7  -3    7.68    8.33
   3   7  -3   18.05    2.44
  -3  -7   3   19.58    8.15
   3   7  -3   21.95    2.69
  -3  -7   3   23.64    2.27
  -3  -7   3   25.64    2.17
  -3  -7   4   57.11    9.47
  -3  -6   1   -2.53    3.79
   3   6  -1   -1.08    4.15
  -3  -6   1   -1.33    6.04
  -3  -6   1    1.54    3.23
   3   6  -1    5.20    6.15
   3   6  -1    2.25    3.65
  -3  -6   1    0.64    5.12
   3   6  -2   38.79    4.22
   3   6  -2   46.63    4.35
  -3  -6   2   38.79    3.62
   3   6  -2   29.92    6.53
   3   6  -2   32.76    7.66
  -3  -6   2   42.27    7.42
   3   6  -3  175.54   16.45
  -3  -6   3  224.55   13.21
  -3  -6   3  240.57    9.40
   3   6  -3  253.58    9.51
  -3  -6   3  259.01    8.97
  -3  -6   4  191.36   12.83
   3   5  -1  130.12    6.71
   3   5  -1  107.33    6.74
  -3  -5   1  107.22    7.87
  -3  -5   1  124.68    6.70
  -3  -5   1  140.62    6.94
  -3  -5   1  119.23    8.64
   3   5  -1  100.97    9.22
   3   5  -2  248.87   11.81
  -3  -5   2  269.16   12.73
   3   5  -2  208.49   14.22
   3   5  -2  241.39   17.02
  -3  -5   2  219.10    9.38
  -3  -5   2  239.01   12.75
  -3  -5   2  294.23   11.10
   3   5  -2  269.26   11.68
   3   5  -3  304.88   20.42
  -3  -5   3  378.87   12.33
  -3  -5   3  304.46   18.10
   3   5  -3  308.50   18.16
  -3  -5   3  333.75   16.10
  -3  -5   3  395.75   13.28
   3   5  -3  413.51   14.78
   3   5  -4   93.69   12.09
  -3  -5   4  110.50   10.58
   3   5  -4  129.91   12.17
  -3  -5   5    8.78    8.94
  -3  -4   1  184.08    9.89
  -3  -4   1  186.38    8.42
   3   4  -1  205.62    8.06
   3   4  -1  186.67   10.93
  -3  -4   1  166.32    9.72
  -3  -4   1  187.77    8.67
   3   4  -1  165.24    9.23
  -3  -4   2  113.69    9.44
   3   4  -2  120.88    6.88
  -3  -4   2  133.87    8.31
  -3  -4   2  136.18    6.05
  -3  -4   2  130.15    7.05
   3   4  -2  119.49    9.38
   3   4  -2  109.61    8.83
   3   4  -2  142.55    7.31
   3   4  -3   34.12    6.80
  -3  -4   3   54.04    3.61
   3   4  -3   55.13    3.92
  -3  -4   3   59.74    3.08
  -3  -4   3   49.94    5.81
  -3  -4   3   53.09    7.64
   3   4  -3   35.35    8.00
   3   4  -3   60.32    3.80
   3   4  -3   47.96    8.10
   3   4  -4   23.51    9.03
   3   4  -4   56.49    8.91
   3   4  -4   68.58    8.20
  -3  -4   4   50.60    6.30
   3   4  -5   75.64    9.88
  -3  -4   5   95.91    9.86
   3   4  -5   56.38   11.82
  -3  -4   6  104.08   11.23
   3   4  -6   85.83   12.68
   3   3  -1  200.50   10.96
  -3  -3   1  199.27    8.59
   3   3  -1  215.57    9.85
   3   3  -1  177.15    8.71
  -3  -3   1  209.72    8.93
  -3  -3   1  186.57    9.53
   3   3  -2  121.20    6.04
   3   3  -2  148.17    6.96
  -3  -3   2  117.99    7.19
  -3  -3   2  136.99    5.81
  -3  -3   2  150.21    6.56
   3   3  -2  115.62    9.73
   3   3  -3   75.01    5.09
  -3  -3   3   77.45    4.01
   3   3  -3   49.35    6.49
   3   3  -3   72.23    8.23
  -3  -3   3   71.40    3.80
   3   3  -3   58.24    3.82
   3   3  -3   57.67    6.81
   3   3  -4  198.65   16.23
   3   3  -4  175.13   15.62
  -3  -3   4  256.38   10.84
   3   3  -4  234.65   13.47
  -3  -3   4  259.78   10.27
   3   3  -4  262.57   10.30
  -3  -3   4  224.17   13.26
   3   3  -4  213.05    9.08
  -3  -3   5  312.18   10.72
   3   3  -5  286.35   17.61
   3   3  -5  225.18   15.85
   3   3  -5  225.30   18.04
   3   3  -5  256.36    9.97
  -3  -3   5  314.74   11.36
  -3  -3   5  249.20   16.21
   3   3  -5  289.52   11.30
  -3  -3   6  219.99   16.49
   3   3  -6  226.65   18.18
  -3  -3   7  125.01   13.08
  -3  -3   7  149.20   13.10
   3   3  -7  165.86   15.09
  -3  -3   8   85.46   11.31
  -3  -3   9   20.70   10.27
  -3  -3  10  -23.85   12.72
  -3  -3  11    2.08   14.69
  -3  -3  12   65.47   18.90
  -3  -2   1  482.47   17.15
   3   2  -1  470.36   18.71
   3   2  -1  523.66   20.56
  -3  -2   1  498.43   19.20
   3   2  -1  498.37   19.49
  -3  -2   1  458.79   18.06
   3   2  -2  229.26   13.19
  -3  -2   2  270.61   10.94
  -3  -2   2  263.40   10.53
   3   2  -2  248.94   10.02
   3   2  -2  253.40   12.65
   3   2  -2  276.10   10.40
   3   2  -3  185.39    7.91
  -3  -2   3  189.47    7.86
  -3  -2   3  171.39    7.47
   3   2  -3  160.68    9.91
   3   2  -3  162.79    7.67
   3   2  -3  163.20    9.87
  -3  -2   4  318.12   14.33
   3   2  -4  314.44   14.86
   3   2  -4  263.28   14.80
   3   2  -4  324.03   12.67
  -3  -2   4  349.92   13.39
   3   2  -5  295.20   16.26
  -3  -2   5  372.19   13.71
  -3  -2   5  341.70   16.10
   3   2  -5  330.58   16.35
   3   2  -5  328.57   14.67
  -3  -2   5  359.75   14.89
   3   2  -5  252.94   17.24
   3   2  -5  334.14   13.19
  -3  -2   6  124.22    9.72
   3   2  -6  106.24    7.10
   3   2  -6  114.18   10.50
   3   2  -6  113.27    6.59
  -3  -2   6  131.61    5.24
   3   2  -6  103.47   11.35
   3   2  -6   90.83   10.62
  -3  -2   6  102.53    9.38
  -3  -2   6    0.61    3.38
   3   2  -7  102.22   12.46
  -3  -2   7  116.38   10.60
  -3  -2   7  107.55    9.61
  -3  -2   7   66.08    5.84
   3   2  -7   91.73    7.12
  -3  -2   7  125.65    6.06
   3   2  -7  100.80    6.66
  -3  -2   8   24.38    8.55
   3   2  -8    7.31    4.29
  -3  -2   8   22.87    3.82
  -3  -2   8   18.08    3.46
  -3  -2   8   13.04    8.75
   3   2  -8   18.56    4.72
   3   2  -9   16.01    5.54
  -3  -2   9   30.24    4.33
  -3  -2   9   21.79    7.85
  -3  -2   9   30.48    4.78
  -3  -2  10   48.52   13.39
  -3  -2  10   75.33    5.81
  -3  -2  11   20.56   11.34
  -3  -2  12   13.96   17.21
  -3  -1   1  221.09    9.62
  -3  -1   1  228.59   10.15
   3   1  -1  215.52   10.44
   3   1  -1  232.04    9.92
   3   1  -2  450.78   20.57
   3   1  -2  474.44   18.44
   3   1  -2  425.78   17.63
  -3  -1   2  458.55   17.85
  -3  -1   2  485.76   18.67
   3   1  -2  456.47   17.88
  -3  -1   3  650.57   24.19
   3   1  -3  696.80   26.52
   3   1  -3  650.00   25.26
   3   1  -3  636.09   28.61
  -3  -1   3  661.21   27.42
   3   1  -3  593.14   26.48
  -3  -1   3  715.80   25.81
   3   1  -4  157.58   12.76
   3   1  -4  204.59   11.13
  -3  -1   4  227.11    9.78
   3   1  -4  211.39   10.85
   3   1  -4  212.96   10.01
  -3  -1   4  217.90   12.95
  -3  -1   4  211.23   10.86
  -3  -1   5   97.89    5.69
   3   1  -5   82.67    5.83
   3   1  -5   78.71    7.95
   3   1  -5   66.21    7.20
   3   1  -5   75.83    7.92
  -3  -1   5   92.32    8.47
   3   1  -5   80.61    5.64
  -3  -1   5   85.45    5.36
  -3  -1   6   57.55    4.75
   3   1  -6   25.53    8.91
   3   1  -6   47.97    4.97
  -3  -1   6   51.72    4.97
  -3  -1   6   41.53    8.22
   3   1  -6   28.06    7.25
   3   1  -6   43.20    5.37
  -3  -1   7   26.72    5.13
  -3  -1   7   22.15    4.27
   3   1  -7   16.57    8.60
   3   1  -7   16.46    5.22
   3   1  -7   23.02    5.07
  -3  -1   7   22.10    4.15
  -3  -1   7   16.74    5.90
  -3  -1   8   67.94    6.05
   3   1  -8   44.44    6.52
   3   1  -8   26.86   10.94
  -3  -1   8   65.76    9.98
  -3  -1   8   45.51    8.14
   3   1  -8   50.58    8.00
  -3  -1   8   58.57    6.44
   3   1  -9   51.37    8.10
  -3  -1   9   54.44   11.51
  -3  -1   9   73.55    9.81
  -3  -1   9   96.88    7.84
  -3  -1  10   94.71   15.99
  -3  -1  10  170.26   11.61
  -3  -1  11   32.91   14.25
  -3  -1  11   50.78    8.07
  -3  -1  12   -6.17    7.47
  -3  -1  12    6.07   16.91
  -3   0   1  406.04   16.04
  -3   0   1  376.48   15.39
   3   0  -1  377.58   14.95
   3   0  -1  378.65   14.39
   3   0  -1  332.64   14.17
   3   0  -2  631.36   22.53
   3   0  -2  614.04   23.72
  -3   0   2  633.09   23.65
   3   0  -2  534.02   23.61
  -3   0   2  632.24   26.07
  -3   0   2  677.35   24.26
   3   0  -2  633.38   23.22
  -3   0   3  529.40   24.14
   3   0  -3  557.58   20.19
  -3   0   3  562.61   19.92
   3   0  -3  468.15   23.23
   3   0  -3  537.23   22.36
  -3   0   3  591.49   22.29
   3   0  -3  549.23   21.94
  -3   0   4  116.00    6.29
  -3   0   4  115.06    6.30
   3   0  -4   81.32    8.67
   3   0  -4   95.23    7.06
   3   0  -4  104.31    7.21
  -3   0   4  108.46    8.94
   3   0  -4  117.81    6.59
   3   0  -5    5.43    4.84
   3   0  -5   -2.50    4.53
   3   0  -5   -1.90    4.12
  -3   0   5    2.05    3.37
  -3   0   5    3.28    3.90
  -3   0   5    1.10    5.21
  -3   0   6   42.13    5.08
   3   0  -6   33.16    6.85
  -3   0   6   33.62    5.74
  -3   0   6   43.21    4.22
   3   0  -6   30.11    5.31
   3   0  -6   24.91    6.43
   3   0  -6   25.76    5.81
   3   0  -7   29.33    6.87
  -3   0   7   31.71    7.89
  -3   0   7   33.23    5.62
   3   0  -7   35.38    6.66
  -3   0   7   47.18    5.92
  -3   0   8   84.33    7.92
  -3   0   8   92.26   11.72
  -3   0   8  104.35    9.12
  -3   0   8  104.61    7.86
   3   0  -8   69.16    8.92
   3   0  -8  125.09   10.51
   3   0  -9  180.89   12.48
  -3   0   9  222.05   12.07
  -3   0   9  155.52   15.28
  -3   0   9  193.81   13.83
  -3   0  10   65.54   10.76
  -3   0  10   56.66   12.86
  -3   0  10   91.41    9.31
  -3   0  11   53.04    8.70
  -3   0  11    9.26   14.39
  -3   0  12    6.83   10.64
  -3   0  12    4.64   17.07
  -3   1   0  634.61   24.19
  -3   1   0  595.98   22.96
   3  -1   0  598.80   22.49
   3  -1   0  643.56   22.46
   3  -1   0  527.43   22.32
  -3   1   1  389.36   17.92
  -3   1   1  413.80   16.47
   3  -1  -1  335.52   15.44
   3  -1  -1  398.69   15.54
   3  -1  -1  422.53   15.26
   3  -1  -2  232.53   11.70
   3  -1  -2  231.38    9.26
  -3   1   2  235.86   11.73
  -3   1   2  223.50   11.27
  -3   1   2  260.33   10.85
   3  -1  -2  226.24   10.97
   3  -1  -3   29.65    4.66
   3  -1  -3   27.11    2.99
  -3   1   3   38.64    4.46
  -3   1   3   35.53    4.99
  -3   1   3   34.46    4.20
   3  -1  -3   34.62    4.75
   3  -1  -4    3.41    4.03
   3  -1  -4    5.08    4.79
  -3   1   4    3.34    3.77
  -3   1   4    9.30    3.72
  -3   1   4   11.33    4.72
   3  -1  -5   13.68    6.03
  -3   1   5   21.82    4.18
  -3   1   5   25.14    4.78
   3  -1  -5   13.77    4.80
  -3   1   5   22.80    4.57
   3  -1  -6   62.08    6.81
  -3   1   6   70.11    6.05
   3  -1  -6   53.33    7.77
  -3   1   6   53.92    8.70
  -3   1   6   74.33    6.31
   3  -1  -7  214.62   17.77
  -3   1   7  251.08   16.42
   3  -1  -7  254.25   15.28
   3  -1  -7  281.45   14.83
  -3   1   7  302.53   14.01
  -3   1   7  296.22   13.97
  -3   1   8  223.15   12.54
  -3   1   8  217.03   12.72
   3  -1  -8  197.54   12.80
  -3   1   8  189.39   13.90
  -3   1   9  142.17   14.79
  -3   1   9  125.58   11.32
  -3   1   9  191.19   11.47
   3  -1  -9  134.78   11.07
  -3   1  10   10.15   11.48
  -3   1  10   35.61    8.75
  -3   1  10   31.15    7.45
  -3   1  11    9.18    9.52
  -3   1  11    5.29    8.40
  -3   1  12   28.28   13.44
  -3   1  12   20.22   16.88
   3  -2   0  337.14   15.99
   3  -2   0  353.15   14.87
  -3   2   0  374.24   14.74
  -3   2   0  310.47   14.24
   3  -2  -1  132.98    7.79
  -3   2   1  126.82    6.93
   3  -2  -1  119.71    7.78
  -3   2   1  120.78    7.01
  -3   2   1  124.04    7.48
  -3   2   2    4.34    3.87
  -3   2   2    8.14    4.14
  -3   2   2    7.14    3.26
   3  -2  -2    3.00    4.85
   3  -2  -2    2.79    4.65
   3  -2  -3    1.70    4.64
   3  -2  -3    1.72    5.31
  -3   2   3    1.08    4.02
  -3   2   3    0.16    3.76
  -3   2   3   -0.29    4.17
   3  -2  -4   63.73    7.29
  -3   2   4   75.51    6.04
   3  -2  -4   62.26    6.64
  -3   2   4   48.89    6.21
  -3   2   4   56.60    6.13
   3  -2  -5  479.88   25.33
  -3   2   5  516.47   21.49
   3  -2  -5  479.12   20.99
  -3   2   5  487.29   25.71
  -3   2   5  555.15   22.11
  -3   2   6  432.64   18.81
  -3   2   6  377.00   23.93
   3  -2  -6  382.65   18.39
  -3   2   6  429.39   18.47
   3  -2  -6  375.08   19.11
   3  -2  -7  201.20   14.27
   3  -2  -7  222.10   13.19
  -3   2   7  242.76   13.08
  -3   2   7  197.42   14.97
  -3   2   7  260.08   14.22
   3  -2  -8  136.23   11.73
  -3   2   8  114.55   13.69
  -3   2   8  173.84   12.95
  -3   2   8  144.19   10.83
  -3   2   9   -1.51   10.38
   3  -2  -9   -1.99    9.19
  -3   2   9    6.74    6.59
  -3   2  10    5.04   12.10
  -3   2  10   -1.08    7.27
  -3   2  10    1.84    7.98
  -3   2  11   10.61   14.82
  -3   2  11   31.40   10.48
  -3   2  12   43.24   20.37
  -3   2  12   98.67   14.59
  -3   3   0  130.60    7.78
  -3   3   0  109.75    7.94
   3  -3   0  116.55    8.08
   3  -3   0  103.86    8.22
   3  -3  -1   68.65    6.82
  -3   3   1   62.64    4.82
  -3   3   1   87.82    6.68
   3  -3  -1   66.42    3.90
   3  -3  -1   63.02    7.12
  -3   3   1   89.06    6.85
  -3   3   2   40.70    4.70
   3  -3  -2   36.59    5.87
  -3   3   2   37.73    4.54
  -3   3   2   60.82    5.42
   3  -3  -2   45.82    5.42
   3  -3  -2   48.73    3.82
  -3   3   3  111.07    7.65
   3  -3  -3  106.04    7.79
  -3   3   3   88.62    7.97
  -3   3   3  119.07    8.05
   3  -3  -3   97.69    8.50
   3  -3  -4  351.04   20.17
   3  -3  -4  358.53   20.28
  -3   3   4  382.99   18.61
  -3   3   4  425.49   17.80
  -3   3   4  368.09   22.09
  -3   3   5  436.88   19.35
   3  -3  -5  418.95   21.23
  -3   3   5  446.27   22.33
  -3   3   5  413.07   24.28
  -3   3   6  294.10   15.04
  -3   3   6  262.78   17.30
   3  -3  -6  278.26   15.76
  -3   3   6  327.72   15.95
   3  -3  -7   36.36    9.44
  -3   3   7   34.72    9.02
   3  -3  -7   34.97    7.95
  -3   3   7   40.46    7.14
  -3   3   7   39.25    7.31
   3  -3  -8    8.37    6.85
  -3   3   8    7.93    7.32
  -3   3   8   15.36    7.15
  -3   3   8   13.79    7.23
  -3   3   9    3.38   11.16
  -3   3   9   12.18    7.77
   3  -3  -9    0.46   10.35
  -3   3  10   32.32   10.07
   3  -3 -10    4.27   11.89
  -3   3  10   19.79    7.06
  -3   3  10   18.30   10.17
  -3   3  11   38.31   17.47
  -3   3  11   96.38   14.43
  -3   3  12   42.63   21.16
  -3   3  12   81.90   18.26
  -3   4   0   89.05    7.60
   3  -4   0   90.13    8.21
  -3   4   0   77.31    7.41
   3  -4   0   78.02    8.12
  -3   4   0   69.48    4.36
   3  -4   0   64.97    5.58
   3  -4  -1  128.60    9.93
   3  -4  -1  107.96    8.68
  -3   4   1   88.40    5.96
  -3   4   1  111.64    8.65
  -3   4   1  120.61    8.39
   3  -4  -1   98.45    6.11
  -3   4   2  196.03   10.12
  -3   4   2  181.87    9.45
  -3   4   2  155.66   10.71
   3  -4  -2  162.70    9.57
   3  -4  -2  176.84    8.64
   3  -4  -2  161.90   11.30
   3  -4  -3  221.91   11.90
   3  -4  -3  207.89   14.19
  -3   4   3  194.59   12.90
  -3   4   3  261.01   12.14
  -3   4   3  240.32   12.34
   3  -4  -4  250.43   17.97
  -3   4   4  255.07   16.47
  -3   4   4  332.39   16.29
  -3   4   4  290.21   16.80
   3  -4  -5  123.63   10.85
  -3   4   5  157.00   13.16
  -3   4   5  141.55   10.11
  -3   4   5  102.63    9.86
   3  -4  -6   92.58   10.95
  -3   4   6   41.85    8.89
  -3   4   6   89.64   11.20
  -3   4   6   89.40    8.53
   3  -4  -7   63.41   11.07
  -3   4   7   73.40    9.12
  -3   4   7   54.53    8.65
  -3   4   7   45.86   12.20
  -3   4   8   14.43   10.36
  -3   4   8    9.23    8.17
   3  -4  -8    4.54   10.29
  -3   4   9   32.86    9.70
  -3   4   9   54.69   10.43
   3  -4  -9   23.47   12.27
   3  -4 -10   58.07   13.97
  -3   4  10   88.55   13.70
  -3   4  10   34.44   16.21
  -3   4  11   26.73   18.56
  -3   4  11   45.25   14.59
   3  -5   0   62.98    8.03
  -3   5   0   51.80    3.72
  -3   5   0   86.78    9.44
  -3   5   0   73.76    7.73
   3  -5   0   58.65    5.57
   3  -5   0   70.74    9.58
   3  -5  -1  104.04    9.72
   3  -5  -1  107.67   11.13
  -3   5   1  127.25   10.66
   3  -5  -1   97.38    8.10
  -3   5   1  106.96    9.45
  -3   5   1   86.52    6.64
   3  -5  -2  292.10   16.36
   3  -5  -2  309.93   16.03
   3  -5  -2  271.73   18.37
  -3   5   2  240.94   15.96
  -3   5   2  277.03   15.15
  -3   5   2  335.57   18.44
  -3   5   3  461.74   19.77
  -3   5   3  346.19   23.28
  -3   5   3  438.56   23.69
   3  -5  -3  420.14   20.04
   3  -5  -3  409.32   22.84
   3  -5  -4  121.84   11.43
  -3   5   4  158.10   10.48
  -3   5   4   91.26   10.01
  -3   5   4  129.43   10.08
   3  -5  -5   31.00    9.53
  -3   5   5   31.30    8.17
  -3   5   5   17.41    7.20
  -3   5   6   14.54    8.62
   3  -5  -6   -2.56    9.51
  -3   5   6   -2.56    7.69
   3  -5  -7   18.24   11.15
  -3   5   7   28.79    8.60
  -3   5   7   27.74   10.05
  -3   5   8   46.42   10.87
  -3   5   8   23.92   13.16
   3  -5  -8   30.74   10.41
   3  -5  -9   69.98   15.11
  -3   5   9   69.68   13.30
  -3   5  10   72.86   20.06
   3  -5 -10  106.60   18.49
  -3   5  10   83.05   15.60
  -3   5  11   24.95   15.58
  -3   5  11   64.98   21.01
   3  -6   0  206.11   15.61
   3  -6   0  155.07   12.06
  -3   6   0  162.69    9.12
  -3   6   0  213.94   14.56
   3  -6   0  213.84   11.96
   3  -6  -1  216.07   12.95
   3  -6  -1  223.80   16.20
  -3   6   1  261.92   14.28
  -3   6   1  182.06   12.10
   3  -6  -2  144.64   10.86
   3  -6  -2  155.67   14.25
  -3   6   2  152.46   13.49
  -3   6   2  140.84   11.97
   3  -6  -3  104.65    9.11
  -3   6   3   65.92    8.61
  -3   6   3  135.09   10.55
   3  -6  -3   74.07   10.95
   3  -6  -4   -6.95    9.22
  -3   6   4    5.67    6.34
   3  -6  -4   16.22    6.59
  -3   6   4   14.51    8.77
  -3   6   5   -1.21    8.44
   3  -6  -5    1.66    9.79
  -3   6   5   -7.08    7.25
  -3   6   6   16.69    9.93
  -3   6   6   12.40   10.20
   3  -6  -6   25.71   12.03
   3  -6  -7   40.27   13.23
  -3   6   7   27.50   12.82
  -3   6   7   45.22   11.43
  -3   6   8   87.35   17.04
   3  -6  -8   95.87   16.57
  -3   6   8  110.74   14.79
   3  -6  -9   68.88   13.72
  -3   6   9   15.76   12.85
  -3   6   9   68.13   12.22
  -3   6  10  -13.17   20.36
  -3   6  10   32.83   15.82
   3  -6 -10   13.85   18.22
  -3   7   0   82.86   11.80
   3  -7   0   77.82   11.64
   3  -7   0   58.13    7.67
  -3   7   0   43.10    4.66
  -3   7   1   16.66    4.93
   3  -7  -1   30.50    9.61
  -3   7   1   40.41   10.07
   3  -7  -1   29.70    6.31
   3  -7  -2    2.49    5.44
  -3   7   2    9.09    5.04
  -3   7   2   -0.61    9.11
   3  -7  -2   11.09   10.03
   3  -7  -3   15.28   10.44
  -3   7   3    2.12    9.38
  -3   7   3    2.64    5.95
   3  -7  -3   14.02    7.41
  -3   7   4   30.12    9.22
   3  -7  -4   51.70    9.21
   3  -7  -4   43.44    7.53
  -3   7   4   51.70    8.91
  -3   7   5   92.89   13.26
   3  -7  -5   92.20   11.09
   3  -7  -5   81.61   15.05
  -3   7   5   62.85   12.56
  -3   7   6   86.42   10.10
   3  -7  -6   65.27   11.57
  -3   7   6   71.26   14.36
  -3   7   7   18.27   12.99
  -3   7   7   60.28   13.96
   3  -7  -7   59.38   15.91
  -3   7   8   28.35   15.60
  -3   7   8   -6.50   15.74
   3  -7  -8   27.45   18.45
  -3   7   9   30.03   17.27
   3  -7  -9    5.11   20.12
  -3   7   9   36.60   21.91
   3  -8   0   27.26   11.27
   3  -8   0    6.24    7.16
  -3   8   0   12.03   11.12
   3  -8  -1   13.37   11.09
   3  -8  -1   -1.68    7.04
  -3   8   1   18.08   11.70
   3  -8  -2   33.47   12.88
   3  -8  -2   32.14    8.19
  -3   8   2   52.71   12.28
   3  -8  -3   47.99   13.59
   3  -8  -3   19.86    9.70
  -3   8   3   33.01    8.44
  -3   8   3   43.31   12.83
  -3   8   4   34.42   11.88
  -3   8   4   55.96   14.30
   3  -8  -4   62.43   15.21
   3  -8  -4   59.42   11.91
   3  -8  -5   87.70   12.58
   3  -8  -5  102.20   17.89
  -3   8   5  110.00   17.59
  -3   8   5   71.47   14.40
  -3   8   6   10.35   13.74
  -3   8   6   41.96   15.44
   3  -8  -6   39.11   18.14
  -3   8   7   28.92   12.29
   3  -8  -7   25.47   13.04
  -3   8   7   47.32   17.05
  -3   8   8   24.72   20.46
  -3   8   8    4.50   17.69
   3  -8  -8    9.30   20.09
   3  -9   0   11.52   10.00
  -3   9   0   25.64   14.87
   3  -9   0   37.47   13.81
   3  -9  -1   30.15   14.85
  -3   9   1   18.79   16.67
   3  -9  -1   43.54   11.27
   3  -9  -2   24.25    9.98
   3  -9  -2   22.82   15.26
  -3   9   2   49.41   16.78
   3  -9  -3   34.13   13.35
  -3   9   3   77.14   18.55
   3  -9  -3   44.90   16.13
  -3   9   4   14.73   16.83
   3  -9  -4   37.42   17.29
  -3   9   5   22.65   18.30
   3  -9  -5   40.80   18.60
  -3   9   6   18.43   18.58
   3  -9  -6   16.63   19.63
   3 -10   0   17.54   15.42
  -3  10   0   48.08   17.69
   3 -10  -1   43.97   17.38
  -3  10   1   48.35   19.95
   3 -10  -2   47.37   18.11
  -3  10   2   78.89   20.83
   3 -10  -3   39.89   20.17
  -3  10   3   60.51   20.33
  -2 -11   1   94.82   11.76
  -2 -11   1   80.59   16.11
  -2 -11   2   70.85   10.98
  -2 -11   2   39.43   16.21
  -2 -11   3   34.82   12.08
  -2 -11   4   -8.32   15.09
  -2 -10   1   30.68    7.82
  -2 -10   1   30.88   11.80
  -2 -10   2    9.26    6.51
  -2 -10   2   -5.47   10.81
  -2 -10   3   21.27   12.28
  -2 -10   3   15.74    5.87
  -2 -10   4   16.29   12.61
  -2  -9   1   31.17    9.96
   2   9  -1   31.27    6.81
  -2  -9   1   23.60    6.52
  -2  -9   2   36.78    5.80
  -2  -9   2   27.08    9.71
  -2  -9   3  113.64    7.03
  -2  -9   3   86.50   13.23
  -2  -9   4  118.96   14.73
  -2  -9   5   74.07   10.51
   2   8  -1   82.97    9.17
   2   8  -1   99.96    8.47
  -2  -8   1  128.54   11.54
  -2  -8   1  109.40    8.19
  -2  -8   1  116.01    9.51
  -2  -8   2   78.63    7.03
  -2  -8   2   71.15    9.63
   2   8  -2   76.55    7.62
   2   8  -2   80.93    7.27
  -2  -8   2   93.96    6.28
  -2  -8   3   77.47    6.49
   2   8  -3   91.63    6.31
  -2  -8   3   88.17   10.85
   2   8  -3   65.80    6.76
  -2  -8   3  104.97    5.90
  -2  -8   4   83.40   10.76
  -2  -8   5   36.57    7.95
  -2  -7   1  135.17    8.72
   2   7  -1  141.18    8.73
   2   7  -1  143.12    9.20
  -2  -7   1  147.13    9.21
   2   7  -1   98.25   10.30
  -2  -7   1  132.83   10.42
  -2  -7   2  287.39   12.82
  -2  -7   2  255.30   14.40
  -2  -7   2  270.80   13.04
   2   7  -2  269.76   12.75
   2   7  -2  180.09   15.62
   2   7  -2  249.16   15.15
   2   7  -3  165.58    8.91
  -2  -7   3  166.45    8.77
   2   7  -3   82.56   12.95
   2   7  -3  114.91   13.16
   2   7  -3  155.26    8.02
  -2  -7   3  175.19   11.71
  -2  -7   3  167.20    7.76
  -2  -7   4    0.57    6.73
   2   7  -4   23.79    8.16
   2   6  -1  301.08   16.69
  -2  -6   1  363.58   15.37
   2   6  -1  365.82   16.69
   2   6  -1  401.75   16.61
  -2  -6   1  363.46   16.08
  -2  -6   1  367.48   16.98
  -2  -6   2  282.67   11.86
   2   6  -2  285.65   12.78
   2   6  -2  280.96   15.66
  -2  -6   2  237.36   11.52
   2   6  -2  210.69   15.27
  -2  -6   2  263.88   12.57
  -2  -6   3   62.82    7.41
   2   6  -3   51.20    3.39
   2   6  -3   40.17    7.01
   2   6  -3   49.72    7.16
  -2  -6   3   58.35    2.97
   2   6  -3   52.79    3.18
  -2  -6   3   54.92    3.33
   2   6  -3   25.67    7.94
   2   6  -4   -3.59    7.75
  -2  -6   4   -1.72    5.72
   2   6  -4  -20.79    8.69
  -2  -6   5   -1.01   10.76
   2   5  -1  122.52    6.04
  -2  -5   1  123.28    6.04
   2   5  -1  131.34    6.26
  -2  -5   1  128.88    8.13
  -2  -5   1  117.94    6.23
   2   5  -1  108.00    7.91
   2   5  -2   25.98    2.88
   2   5  -2   29.91    2.68
  -2  -5   2   -1.87    2.01
  -2  -5   2   30.65    2.23
  -2  -5   2   32.73    5.14
   2   5  -2   25.86    5.18
   2   5  -2   31.58    6.41
   2   5  -3   15.25    6.38
   2   5  -3   14.34    7.34
   2   5  -3    7.64    5.91
  -2  -5   3   13.87    5.06
   2   5  -4   79.51   10.38
   2   5  -4  115.02   10.45
   2   5  -4  104.15   10.37
  -2  -5   4  107.64    8.05
   2   5  -5  202.30   13.48
   2   5  -5  170.01   14.49
   2   5  -5  196.04   14.83
   2   4  -1  131.27    6.56
  -2  -4   1  119.95    6.26
   2   4  -1  112.90    7.45
   2   4  -1  113.33    5.65
  -2  -4   1  126.41    7.54
  -2  -4   1  108.54    6.66
  -2  -4   1  122.33    5.36
   2   4  -2   65.61    3.42
  -2  -4   2   54.32    5.72
   2   4  -2   63.39    6.12
   2   4  -2   54.09    6.13
   2   4  -2   67.15    3.56
  -2  -4   2   -2.66    1.68
  -2  -4   2   73.14    2.68
  -2  -4   2   58.12    5.44
   2   4  -2   57.31    6.40
  -2  -4   3  243.94   11.65
   2   4  -3  208.68   14.09
  -2  -4   3  213.63   13.23
   2   4  -3  239.19   12.60
   2   4  -3  235.83   12.35
   2   4  -4  529.98   26.44
   2   4  -4  566.47   23.37
   2   4  -4  555.11   25.02
   2   4  -5  640.51   33.88
   2   4  -5  610.92   31.99
   2   4  -5  728.82   31.18
   2   4  -6  154.93   14.36
   2   4  -6  144.53   10.96
   2   4  -6  117.09   12.68
  -2  -4   7   60.90   11.62
  -2  -4   8   34.27    9.04
  -2  -4   9   -1.10    6.28
  -2  -4  10   30.65   12.80
  -2  -4  11   91.62   16.67
  -2  -4  12   34.59   18.88
   2   3  -1  237.30   10.91
  -2  -3   1  239.27    9.36
  -2  -3   1  266.60   10.80
   2   3  -1  272.95    9.57
  -2  -3   1  233.09   10.89
  -2  -3   1  257.20    9.89
   2   3  -2  182.62    6.66
   2   3  -2  165.67    8.71
  -2  -3   2  167.86    4.51
  -2  -3   2   -0.99    1.70
  -2  -3   2  154.71    6.33
   2   3  -2  174.06    9.46
   2   3  -2  160.84    8.46
  -2  -3   2  136.00    6.83
   2   3  -2  152.04    7.02
   2   3  -3  415.18   19.59
   2   3  -3  452.39   19.23
  -2  -3   3  480.17   15.60
   2   3  -3  508.32   16.23
   2   3  -3  465.03   16.99
  -2  -3   3  415.21   19.84
  -2  -3   3  479.41   18.23
   2   3  -3  483.65   18.84
  -2  -3   3  499.86   16.44
   2   3  -4  548.89   25.35
   2   3  -4  599.88   22.16
  -2  -3   4  574.12   22.35
   2   3  -4  568.57   28.73
  -2  -3   5  242.77   12.55
  -2  -3   5  219.75   10.99
   2   3  -5  199.16   13.81
   2   3  -5  206.00   15.07
   2   3  -5  206.43   11.88
   2   3  -6  101.79   11.66
  -2  -3   6  128.12    9.23
   2   3  -6  107.21   10.82
   2   3  -6   63.84    9.39
  -2  -3   7    2.20    4.72
   2   3  -7   -3.11    7.20
   2   3  -7   -0.32    7.89
   2   3  -7  -16.25    8.57
  -2  -3   8   18.90    8.10
  -2  -3   9   73.23    9.77
  -2  -3  10  105.08   14.16
  -2  -3  11  102.64   12.43
  -2  -3  12   33.06   16.77
  -2  -3  13   33.02   19.49
  -2  -2   1  315.75   11.28
  -2  -2   1  318.07   12.74
  -2  -2   1  340.07   12.58
   2   2  -1  288.36   11.75
   2   2  -1  322.89   13.95
   2   2  -1  337.05   11.87
  -2  -2   2  587.99   20.53
   2   2  -2  571.66   21.95
  -2  -2   2  539.73   20.48
   2   2  -2  625.15   20.76
   2   2  -2  540.42   19.42
   2   2  -2  550.19   22.78
  -2  -2   2  563.37   18.68
   2   2  -3  189.19    9.92
  -2  -2   3  200.43    8.17
   2   2  -3  192.79    7.61
   2   2  -3  218.12    8.37
   2   2  -3  202.83   10.11
  -2  -2   3  220.63    4.88
   2   2  -3  208.00    9.98
  -2  -2   3   -1.75    1.02
   2   2  -4  159.63    7.71
   2   2  -4  161.07    6.49
   2   2  -4  139.36    9.33
  -2  -2   4  175.80    6.07
  -2  -2   4  133.61    6.02
   2   2  -4  151.96    8.28
  -2  -2   4  151.96    8.69
  -2  -2   4  173.97   10.09
   2   2  -4  134.88    8.96
   2   2  -5   46.29    6.92
  -2  -2   5   65.59    3.31
   2   2  -5   48.77    6.26
  -2  -2   5   63.18    7.36
   2   2  -5   50.17    3.45
  -2  -2   5   60.07    6.72
   2   2  -5   40.13    7.19
   2   2  -5   56.26    3.46
  -2  -2   5   69.86    3.31
  -2  -2   6  105.84    8.58
   2   2  -6   67.47    8.70
   2   2  -6  102.41    5.60
  -2  -2   6  118.43    5.31
  -2  -2   6  116.50    8.88
   2   2  -6   87.68    9.38
  -2  -2   6  122.22    5.40
   2   2  -6   88.57    8.92
   2   2  -6   98.18    5.07
   2   2  -7  115.92    6.56
   2   2  -7  102.03   10.99
  -2  -2   7  134.01    6.59
   2   2  -7  112.73    6.90
   2   2  -7  106.59   10.87
  -2  -2   7  140.80    6.46
  -2  -2   7  139.58   11.37
  -2  -2   8   43.56    3.87
   2   2  -8   40.17    4.30
  -2  -2   8   58.90    3.90
   2   2  -8   39.68    4.66
   2   2  -8   50.02    9.98
  -2  -2   8   52.57    8.85
   2   2  -9  121.03    8.41
   2   2  -9  135.57    9.04
  -2  -2   9  138.17    7.74
  -2  -2   9  187.88    8.95
  -2  -2   9  148.15   12.82
   2   2 -10   41.59    6.50
  -2  -2  10   55.73    9.92
  -2  -2  10   86.71    6.25
  -2  -2  10   73.83    5.70
  -2  -2  11   -1.14   11.89
  -2  -2  11   13.10    5.31
  -2  -2  12   -7.50   13.37
  -2  -2  12   25.98    6.30
  -2  -2  13   49.84   20.20
   2   1  -1  258.06   10.43
  -2  -1   1  227.03    9.25
  -2  -1   1  248.07    9.70
   2   1  -1  241.31    9.99
  -2  -1   1  269.65    9.94
   2   1  -1  232.05   11.10
   2   1  -2  642.22   24.60
   2   1  -2  703.03   22.51
   2   1  -2  634.28   23.58
  -2  -1   2  653.94   28.21
  -2  -1   2  718.42   23.95
   2   1  -2  614.32   22.99
  -2  -1   2  650.94   23.46
  -2  -1   3  314.12   12.40
  -2  -1   3  332.41   15.45
   2   1  -3  321.58   11.41
   2   1  -3  317.87   11.62
   2   1  -3  284.03   12.95
   2   1  -3  261.03   13.32
  -2  -1   3  350.36   13.03
   2   1  -4    1.55    2.01
  -2  -1   4   -2.19    2.82
   2   1  -4   -0.90    1.79
  -2  -1   4    2.01    1.70
  -2  -1   4   -0.30    1.64
   2   1  -4    2.70    4.80
   2   1  -4   -1.57    3.29
   2   1  -4    5.49    3.12
   2   1  -5   96.28    5.27
  -2  -1   5   99.01    7.94
  -2  -1   5  117.81    5.59
   2   1  -5   68.65    6.44
   2   1  -5   98.37    6.01
  -2  -1   5  103.27    5.11
   2   1  -5   84.41    7.82
   2   1  -5   91.43    6.87
  -2  -1   6  111.02    8.35
   2   1  -6   99.43    5.84
   2   1  -6   95.51    7.18
  -2  -1   6  109.18    6.11
   2   1  -6   86.67   10.00
  -2  -1   6   96.18    7.79
  -2  -1   6  119.59    5.71
   2   1  -7  134.88    7.68
  -2  -1   7  179.22    8.24
  -2  -1   7  140.76    9.97
  -2  -1   7  163.20    8.16
   2   1  -7  145.28    9.91
  -2  -1   7  161.63   11.66
  -2  -1   8  159.60   12.56
   2   1  -8  110.06   15.70
   2   1  -8  136.02    9.13
   2   1  -8  147.75    8.76
  -2  -1   8  174.68    8.50
  -2  -1   8  151.96    8.68
  -2  -1   9   97.31    7.21
  -2  -1   9   77.91   11.12
  -2  -1   9   95.35    7.34
   2   1  -9   75.47    8.25
   2   1  -9   76.91    7.19
   2   1 -10   45.75    8.30
  -2  -1  10   71.35   12.15
  -2  -1  10   75.04    7.05
  -2  -1  10   75.53    7.09
   2   1 -10   47.13    7.18
  -2  -1  11   33.17    7.19
  -2  -1  11   32.55   11.84
  -2  -1  12   18.42   14.64
  -2  -1  12   36.50    7.83
  -2  -1  13   34.34   13.80
  -2  -1  13   54.42    9.12
   2   0  -1  264.30    9.95
  -2   0   1  248.36   10.79
   2   0  -1  263.23   10.53
  -2   0   1  282.00   10.85
  -2   0   1  248.20   10.95
   2   0  -1  250.72    9.91
   2   0  -1  240.95    9.67
  -2   0   2  142.62    7.94
   2   0  -2  152.48    6.78
   2   0  -2  141.71    6.24
   2   0  -2  131.72    6.56
  -2   0   2  144.60    6.63
   2   0  -2  129.74    7.28
  -2   0   2  157.29    6.71
   2   0  -3  196.69    7.92
   2   0  -3  179.41   10.25
  -2   0   3  222.57    8.75
  -2   0   3  197.76   10.27
   2   0  -3  196.85    9.33
  -2   0   3  189.21    7.91
  -2   0   4   60.09    3.77
  -2   0   4   64.22    5.88
  -2   0   4   58.60    3.84
   2   0  -4   55.77    4.06
   2   0  -4   48.50    3.69
   2   0  -5  116.71    6.29
   2   0  -5   90.07    8.57
  -2   0   5  130.86    6.30
  -2   0   5  132.18    9.50
  -2   0   5  127.00    6.47
   2   0  -5  109.27    6.89
   2   0  -6  229.30   16.34
  -2   0   6  316.51   13.12
   2   0  -6  298.18   15.08
   2   0  -6  294.50   13.24
  -2   0   6  322.41   13.30
  -2   0   6  291.73   16.51
  -2   0   7  225.71   11.13
   2   0  -7  200.15   12.79
   2   0  -7  188.66   10.89
   2   0  -7  189.31   16.36
  -2   0   7  228.57   10.05
  -2   0   7  201.51   14.45
  -2   0   7  185.38   11.06
  -2   0   8  291.15   13.93
  -2   0   8  218.65   13.64
   2   0  -8  241.29   15.27
   2   0  -8  182.29   14.32
  -2   0   8  242.08   18.19
  -2   0   8  279.01   12.12
   2   0  -8  258.65   13.42
  -2   0   9   64.60   10.75
  -2   0   9   89.97    8.37
   2   0  -9   70.15    9.14
   2   0  -9   77.06    8.55
  -2   0   9   85.12    6.89
  -2   0  10   25.08    6.15
   2   0 -10   20.38    8.37
  -2   0  10   20.39    7.96
  -2   0  10   36.35    7.01
  -2   0  11   41.01   13.12
  -2   0  11   76.21    8.11
  -2   0  12   40.16   15.60
  -2   0  12   67.72    9.62
  -2   0  13   31.08   12.04
  -2   0  13   46.20   12.92
   2  -1   0    5.00    2.50
   2  -1   0    5.94    2.29
   2  -1   0    5.07    1.54
  -2   1   0    7.01    2.13
  -2   1   0    7.50    2.35
  -2   1   1   44.50    3.22
  -2   1   1   48.59    3.26
   2  -1  -1   52.38    3.95
   2  -1  -1   47.55    3.71
   2  -1  -1   37.05    3.26
  -2   1   1   57.70    4.02
  -2   1   2  170.80    7.48
  -2   1   2  150.35    8.08
  -2   1   2  155.36    7.20
   2  -1  -2  160.65    8.08
   2  -1  -2  157.69    7.49
   2  -1  -3  313.19   13.45
   2  -1  -3  319.48   12.89
  -2   1   3  314.95   13.60
  -2   1   3  346.56   13.08
  -2   1   3  313.17   14.58
  -2   1   4 1309.98   45.89
  -2   1   4 1215.37   48.87
   2  -1  -4 1271.72   47.11
   2  -1  -4 1248.07   45.77
  -2   1   4 1320.19   47.06
  -2   1   5  563.81   22.76
   2  -1  -5  522.32   27.86
   2  -1  -5  537.08   21.48
  -2   1   5  553.77   20.76
  -2   1   5  513.88   23.32
   2  -1  -6  161.28   10.20
   2  -1  -6  157.61    9.64
  -2   1   6  143.09    9.64
  -2   1   6  171.71    8.45
  -2   1   6  173.04    8.86
   2  -1  -6  119.24   10.31
  -2   1   7   85.80    8.17
  -2   1   7   94.86    6.97
  -2   1   7   97.79    6.88
   2  -1  -7   82.02    7.62
   2  -1  -7   69.74    7.91
   2  -1  -7   86.86    8.03
   2  -1  -8   20.63    6.07
  -2   1   8   26.87    8.18
  -2   1   8   41.72    5.33
  -2   1   8   39.95    6.51
   2  -1  -8   16.41    7.59
  -2   1   8   31.53    5.42
  -2   1   9   66.94    6.11
  -2   1   9   51.75    6.51
   2  -1  -9   46.91    9.12
  -2   1   9   62.77    8.92
  -2   1   9   35.01    8.05
  -2   1  10   89.58   11.36
   2  -1 -10   81.36    9.15
  -2   1  10   97.30    8.87
  -2   1  10   53.70   12.60
  -2   1  11  183.58   12.62
  -2   1  11  101.51   16.98
  -2   1  12   98.37   11.58
  -2   1  12   60.28   17.76
  -2   1  13   15.45   13.18
  -2   1  13    4.34   12.85
   2  -2   0  161.82    7.54
   2  -2   0  177.21    9.91
   2  -2   0  154.17    6.69
  -2   2   0  192.72    8.55
  -2   2   0  153.19    7.68
  -2   2   0  164.43    6.88
   2  -2  -1  602.56   28.80
  -2   2   1  687.06   25.72
  -2   2   1  602.18   24.80
   2  -2  -1  657.25   24.28
  -2   2   1  615.49   22.09
  -2   2   2  976.48   32.81
   2  -2  -2  932.11   34.70
  -2   2   2  915.01   38.01
   2  -2  -2  984.34   33.82
  -2   2   2 1022.69   35.29
   2  -2  -3  768.42   29.36
  -2   2   3  811.67   28.38
  -2   2   3  784.36   27.94
  -2   2   3  737.61   30.08
   2  -2  -3  792.17   29.54
  -2   2   4  537.00   20.59
   2  -2  -4  545.53   22.10
   2  -2  -4  508.64   21.74
  -2   2   4  543.72   22.39
  -2   2   4  524.29   22.35
  -2   2   5  217.47   11.75
   2  -2  -5  211.13   11.86
   2  -2  -5  205.63   11.32
  -2   2   5  230.30   10.31
  -2   2   5  224.64   11.74
  -2   2   6   -1.35    3.87
   2  -2  -6   -4.13    5.81
   2  -2  -6   -2.57    4.54
   2  -2  -6    1.64    3.57
  -2   2   6    3.33    3.63
  -2   2   6    2.91    4.59
   2  -2  -7   30.47    7.97
  -2   2   7   26.17    5.15
  -2   2   7   38.41    7.63
   2  -2  -7   23.34    7.38
   2  -2  -7   28.59    6.36
  -2   2   7   42.08    6.46
   2  -2  -8   92.67   11.86
   2  -2  -8  104.91    9.44
  -2   2   8  130.49    7.68
  -2   2   8  121.18   10.41
  -2   2   8   93.71   10.75
  -2   2   9  158.59   13.73
   2  -2  -9  121.69   16.06
   2  -2  -9  143.10   11.16
  -2   2   9  215.93   11.58
  -2   2   9  183.41   13.16
  -2   2   9  158.37   10.56
  -2   2  10  216.66   17.47
  -2   2  10  219.52   14.59
   2  -2 -10  180.92   13.77
  -2   2  10  176.52   17.30
  -2   2  11   94.84   11.40
   2  -2 -11   84.10   12.14
  -2   2  11   78.82   15.12
  -2   2  12   17.97    9.82
  -2   2  12  -14.52   14.52
  -2   2  13   30.90   18.31
  -2   2  13   16.58   12.36
   2  -3   0  720.76   27.20
  -2   3   0  646.47   26.19
  -2   3   0  687.60   24.17
   2  -3   0  699.17   26.14
  -2   3   0  760.14   26.45
   2  -3   0  687.54   26.79
  -2   3   1  794.55   28.88
   2  -3  -1  826.92   30.71
   2  -3  -1  816.12   32.54
  -2   3   1  872.31   31.12
  -2   3   1  759.40   31.68
   2  -3  -2  341.67   15.20
  -2   3   2  353.12   14.01
  -2   3   2  318.50   14.16
   2  -3  -2  318.50   17.77
   2  -3  -3  259.43   11.86
   2  -3  -3  262.94   12.31
  -2   3   3  291.09   12.34
  -2   3   3  280.68   12.34
   2  -3  -4   49.29    5.61
  -2   3   4   54.88    5.16
  -2   3   4   45.57    5.64
   2  -3  -4   52.13    6.04
  -2   3   4   36.76    5.28
  -2   3   5   57.64    5.75
   2  -3  -5   44.51    6.20
  -2   3   5   62.85    6.74
   2  -3  -5   54.15    7.03
  -2   3   5   50.99    6.36
  -2   3   6  202.91   11.54
  -2   3   6  198.31   11.00
  -2   3   6  152.94   12.70
   2  -3  -6  171.73   13.78
   2  -3  -6  180.66   12.32
  -2   3   7  112.64   11.64
   2  -3  -7  103.91   11.47
  -2   3   7  163.63   12.76
   2  -3  -7  114.64    9.42
  -2   3   7  149.78    9.46
   2  -3  -8  144.67   10.95
  -2   3   8  132.35   12.88
   2  -3  -8  154.53   10.98
  -2   3   8  165.76   14.32
  -2   3   8  175.65   11.46
  -2   3   9  149.88    9.79
  -2   3   9  112.57   12.32
  -2   3   9  143.29   13.41
  -2   3   9   95.17    8.21
   2  -3  -9  107.92   10.93
  -2   3  10   47.84    7.56
  -2   3  10   48.75   10.50
  -2   3  10   43.97    6.73
   2  -3 -10   47.69   10.58
  -2   3  11    8.90    8.74
  -2   3  11    7.35    9.74
   2  -3 -11  -11.61   11.46
  -2   3  12    4.82   10.69
  -2   3  12    4.76   10.88
  -2   3  13   13.50   14.34
  -2   3  13   -3.45   12.76
   2  -4   0  552.89   25.22
   2  -4   0  520.99   22.20
   2  -4   0  544.54   21.12
  -2   4   0  572.44   22.88
  -2   4   0  500.08   20.49
   2  -4  -1  490.24   23.56
  -2   4   1  495.43   21.28
   2  -4  -1  482.29   20.12
   2  -4  -1  474.35   21.16
  -2   4   1  505.11   20.16
   2  -4  -2  289.06   15.18
  -2   4   2  257.81   13.27
   2  -4  -2  278.24   13.43
  -2   4   2  298.02   12.86
   2  -4  -3   72.33    6.38
  -2   4   3   73.24    5.78
   2  -4  -3   76.41    7.90
  -2   4   3   76.56    6.72
   2  -4  -4   20.57    6.81
   2  -4  -4   23.37    5.73
  -2   4   4   17.09    6.05
  -2   4   4   21.56    4.98
   2  -4  -5    8.27    7.51
   2  -4  -5    1.35    5.72
  -2   4   5   14.29    5.12
  -2   4   5   10.42    6.74
  -2   4   6  262.77   17.16
   2  -4  -6  220.53   13.08
  -2   4   6  256.01   14.17
  -2   4   7  235.73   12.68
   2  -4  -7  208.37   12.19
   2  -4  -7  192.64   13.11
  -2   4   7  244.12   15.24
  -2   4   7  181.55   14.92
   2  -4  -8   78.66   10.56
   2  -4  -8   58.45   10.89
  -2   4   8   84.82    9.81
  -2   4   8   88.81   11.41
  -2   4   8   80.00   11.51
  -2   4   9   37.33   11.99
   2  -4  -9   43.02   10.54
  -2   4   9   66.04    9.65
   2  -4 -10   12.03   11.13
  -2   4  10   -5.88   11.93
  -2   4  10    4.66    9.33
   2  -4 -11    5.11   12.92
  -2   4  11    5.26   10.52
  -2   4  11   17.70   15.47
  -2   4  12   38.88   19.45
  -2   4  12   15.76   13.66
  -2   5   0  568.84   26.38
   2  -5   0  623.60   27.70
   2  -5   0  584.21   24.80
  -2   5   0  677.65   27.25
   2  -5   0  599.23   30.29
   2  -5  -1  104.26    7.69
   2  -5  -1  116.45    7.67
  -2   5   1   93.42    7.23
  -2   5   1  102.79    8.13
   2  -5  -1   91.51    8.27
  -2   5   2   18.88    6.00
   2  -5  -2   35.17    5.38
   2  -5  -2   19.46    7.46
   2  -5  -2   32.60    6.07
  -2   5   2   31.69    5.47
   2  -5  -3    4.47    5.22
   2  -5  -3    5.13    5.58
  -2   5   3    1.96    5.13
  -2   5   3    1.19    6.56
   2  -5  -4   -3.79    7.89
   2  -5  -4   10.22    6.01
  -2   5   4    9.47    5.26
  -2   5   4    7.29    7.29
   2  -5  -5  135.32   11.46
  -2   5   5  131.42    9.82
  -2   5   5  163.21   13.14
  -2   5   6  220.76   15.48
   2  -5  -6  222.13   15.57
  -2   5   6  229.18   14.24
   2  -5  -7  267.38   15.65
   2  -5  -7  226.32   17.26
  -2   5   7  247.15   15.03
  -2   5   7  300.82   19.08
   2  -5  -8   37.26   10.63
   2  -5  -8   62.37   11.41
  -2   5   8   77.51   10.52
   2  -5  -9    5.25    7.80
  -2   5   9    9.45    6.45
  -2   5   9   -1.74    7.67
  -2   5  10   -0.60    7.20
  -2   5  10   -2.25    8.84
   2  -5 -10   -1.50    9.45
   2  -5 -11    3.30   15.29
  -2   5  11   14.24   13.49
  -2   5  11   16.52   17.73
  -2   5  12   40.27   20.66
  -2   5  12   32.63   15.72
  -2   6   0   16.95    5.96
  -2   6   0   17.91    5.12
   2  -6   0   13.64    5.54
   2  -6   0   20.00    5.81
   2  -6   0   28.47    5.39
   2  -6  -1    1.87    7.06
   2  -6  -1   -3.42    5.44
  -2   6   1   10.23    6.63
   2  -6  -1   -1.37    5.63
  -2   6   1    1.82    5.47
  -2   6   2   -3.18    5.75
   2  -6  -2   -4.25    8.36
   2  -6  -2    1.97    6.50
   2  -6  -2    0.47    4.72
  -2   6   2   23.32    7.63
  -2   6   3  136.08   10.45
   2  -6  -3  141.35   10.31
  -2   6   3  171.04   13.38
   2  -6  -3  131.72   11.56
  -2   6   4  250.20   13.82
   2  -6  -4  238.65   15.43
  -2   6   5  335.56   17.90
   2  -6  -5  312.21   17.72
  -2   6   6  106.61   10.36
   2  -6  -6   80.44   11.09
   2  -6  -7   17.79   10.62
   2  -6  -7   22.55    7.98
  -2   6   7   25.27    9.27
   2  -6  -8   30.96    9.73
  -2   6   8   27.37    7.63
  -2   6   9   -1.95   11.22
   2  -6  -9    3.89   14.06
  -2   6   9    3.83    8.71
   2  -6 -10   41.46   16.47
  -2   6  10   25.14   13.17
  -2   6  10   37.75   15.95
   2  -6 -11   64.64   13.94
  -2   6  11   76.01   12.16
  -2   6  11   44.67   20.47
  -2   7   0    4.41    6.85
   2  -7   0    4.26    8.51
   2  -7   0    2.28    6.70
   2  -7   0    0.46    6.90
   2  -7  -1   83.76   11.56
   2  -7  -1  108.88   10.51
   2  -7  -1  106.51    9.64
  -2   7   1  118.44   10.21
  -2   7   2  164.67   11.56
   2  -7  -2  164.22   10.79
   2  -7  -2  137.50   11.83
   2  -7  -2  186.55   14.92
   2  -7  -3  226.46   16.50
   2  -7  -3  189.42   13.75
  -2   7   3  201.67   16.47
   2  -7  -4  276.75   17.39
  -2   7   4  309.70   18.17
   2  -7  -5   76.95    8.99
  -2   7   5   67.69    8.24
   2  -7  -6   16.57   10.30
  -2   7   6    5.52    9.11
   2  -7  -7   -4.78   11.94
  -2   7   7    5.97   10.45
   2  -7  -8   26.72   10.01
  -2   7   8   28.66    8.37
   2  -7  -9   62.60   17.64
  -2   7   9   73.95   15.56
   2  -7 -10   83.41   18.12
  -2   7  10   78.18   16.92
  -2   7  10   73.86   21.63
   2  -8   0   49.18    9.12
   2  -8   0   46.11   12.92
   2  -8   0   34.68    9.48
  -2   8   0   39.62    6.84
   2  -8  -1   75.38    9.27
  -2   8   1   78.23   10.62
   2  -8  -1   79.29   10.01
   2  -8  -2  159.75   13.04
   2  -8  -2  169.36   12.44
  -2   8   2  183.11   12.91
   2  -8  -3   99.52   13.54
   2  -8  -3  101.72   10.51
  -2   8   3   98.47   12.64
   2  -8  -4   86.78   12.89
   2  -8  -4   67.62   11.56
  -2   8   4   83.49   12.29
   2  -8  -5   42.10    9.26
  -2   8   5   44.04    8.67
   2  -8  -6    7.16   13.42
  -2   8   6   13.27   11.33
   2  -8  -7   29.07   14.76
  -2   8   7   25.05   14.02
   2  -8  -8   40.13   11.94
  -2   8   8   49.53   12.39
   2  -8  -9   62.86   19.28
  -2   8   9   80.18   19.58
   2  -9   0  111.57   13.36
   2  -9   0   91.74   11.44
  -2   9   0  126.70   14.73
   2  -9   0   83.23   12.29
   2  -9  -1   72.21   11.95
   2  -9  -1   66.89   10.45
  -2   9   1   89.28   13.62
  -2   9   2   82.96   10.57
   2  -9  -2   55.83   10.56
   2  -9  -2   77.39   13.57
   2  -9  -3   46.77   10.69
   2  -9  -3   68.72   14.42
  -2   9   3   52.07   14.26
   2  -9  -4    0.90   13.61
   2  -9  -4   13.66   10.01
  -2   9   4   20.49   13.02
   2  -9  -5   36.27   14.48
   2  -9  -5   16.52   11.23
  -2   9   5   13.58   14.18
   2  -9  -6   25.65   16.40
   2  -9  -6   45.72   12.80
  -2   9   6   46.82   15.81
   2  -9  -7   43.83   17.45
  -2   9   7   32.65   16.25
  -2   9   8   -1.49   18.65
   2  -9  -8   30.44   18.80
   2 -10   0   90.59   15.02
  -2  10   0  101.93   16.94
   2 -10   0  101.93   15.13
   2 -10  -1   35.45   12.98
   2 -10  -1   15.90   10.86
   2 -10  -1   36.94   12.22
  -2  10   1   38.62   16.15
  -2  10   2    5.87   15.05
   2 -10  -2   13.39   14.00
   2 -10  -2   22.66   11.72
   2 -10  -3    9.75   15.46
   2 -10  -3   15.90   14.81
  -2  10   3    8.70   16.21
   2 -10  -4    7.93   16.31
   2 -10  -4    4.25   13.39
  -2  10   4   24.55   16.62
   2 -10  -5    8.27   15.12
   2 -10  -5    5.23   17.63
  -2  10   5   25.10   17.93
   2 -10  -6   15.97   19.10
   2 -10  -6   57.89   21.36
  -2  10   6   44.47   19.70
   2 -11   0    3.62   16.27
   2 -11   0   26.85   16.74
   2 -11  -1    1.51   16.27
   2 -11  -1  -13.36   14.58
  -2  11   1    1.21   19.14
   2 -11  -2   25.13   17.46
   2 -11  -2  -11.95   13.63
  -2  11   2   -8.88   19.41
  -1 -12   1   31.07   13.63
  -1 -12   1   39.72   19.28
  -1 -11   1   -4.70    8.51
  -1 -11   1  -12.31   13.34
  -1 -11   2    9.63    7.59
  -1 -11   2   -3.05   10.31
  -1 -11   3   23.98    9.48
  -1 -11   3   14.99   15.28
  -1 -11   4   68.00    8.41
  -1 -11   4   68.85   17.66
  -1 -10   1   59.62    8.82
  -1 -10   1   21.33   11.48
  -1 -10   2   84.86    8.97
  -1 -10   2   76.09    9.79
  -1 -10   3  136.12   11.10
  -1 -10   3  108.68   14.81
  -1 -10   4   95.76    8.41
  -1 -10   4   53.84   11.82
  -1 -10   5   12.70    9.71
   1   9  -1   74.30    8.54
  -1  -9   1   86.54   10.16
  -1  -9   1  101.76    8.70
  -1  -9   1   67.67   10.66
   1   9  -2   38.50    7.06
  -1  -9   2   53.55    8.09
  -1  -9   2   33.66    9.37
  -1  -9   2   52.31    7.07
  -1  -9   2   28.96    8.00
  -1  -9   3   36.16    9.27
  -1  -9   3   58.26    9.32
  -1  -9   3   56.42    6.73
  -1  -9   4   43.15    5.99
  -1  -9   4   24.26    9.01
  -1  -9   4   52.31   10.71
  -1  -9   5    8.56   10.39
  -1  -9   6   15.73    8.71
  -1  -9   7   15.23   15.23
  -1  -9   8   29.58   16.84
   1   8  -1   85.04   10.04
   1   8  -1   38.37   12.16
  -1  -8   1   90.61    9.73
  -1  -8   1   68.09    8.06
  -1  -8   1   79.82    9.52
   1   8  -1   92.51    7.82
  -1  -8   1   96.48    7.24
   1   8  -2   73.45    7.53
  -1  -8   2   70.88    7.83
  -1  -8   2   76.24    6.37
  -1  -8   2   45.94    8.15
  -1  -8   2   63.05    9.28
   1   8  -2   70.24    8.78
   1   8  -3    6.74    4.84
   1   8  -3   19.45    5.90
   1   8  -3    5.81    9.29
  -1  -8   3   14.51    4.94
  -1  -8   3    1.90    7.58
  -1  -8   3   18.91    4.11
  -1  -8   4   18.61    5.09
   1   8  -4   23.66    4.29
   1   8  -4   14.32    6.52
  -1  -8   4   36.06    4.30
  -1  -8   4   21.61    8.55
  -1  -8   4   42.04    9.72
   1   8  -5   42.76    5.67
  -1  -8   5   66.06    4.28
  -1  -8   5   53.61    4.74
  -1  -8   5   30.97    9.03
  -1  -8   6   62.62    9.96
  -1  -8   7   65.50   13.33
  -1  -8   8   20.95   10.48
  -1  -8   9   33.06   16.99
  -1  -7   1   49.81    4.87
   1   7  -1   47.28    6.06
   1   7  -1   36.98    9.01
  -1  -7   1   55.72    6.07
  -1  -7   1   46.66    6.00
  -1  -7   1   51.54    7.61
   1   7  -1   55.54    6.33
  -1  -7   2   71.19    6.26
   1   7  -2   66.16    5.78
   1   7  -2   41.66    6.55
   1   7  -2   29.44    9.66
  -1  -7   2   62.18    4.89
  -1  -7   2   50.91    7.18
  -1  -7   2   57.39    6.37
   1   7  -3   30.89    4.13
   1   7  -3   27.34    5.28
   1   7  -3   18.78    8.03
  -1  -7   3   31.49    4.48
  -1  -7   3   35.45    3.99
   1   7  -3   27.24    7.14
  -1  -7   3   26.83    5.65
  -1  -7   3   35.69    7.32
   1   7  -4   37.17    3.73
   1   7  -4   36.87    4.96
  -1  -7   4    1.28    3.67
  -1  -7   4   40.16    3.31
  -1  -7   4   47.40    8.51
   1   7  -4   37.54    6.70
  -1  -7   4   43.88    7.71
   1   7  -5  231.09   11.67
   1   7  -5  207.67   17.08
  -1  -7   5  261.16   11.41
  -1  -7   5  223.24   15.87
   1   7  -5  243.64   10.24
  -1  -7   5  249.67    9.61
  -1  -7   6  121.36   13.56
  -1  -7   7   56.20   11.75
  -1  -7   8   14.63   12.14
  -1  -7   9   -3.40   10.19
   1   6  -1   51.10    5.17
   1   6  -1   71.97    5.91
   1   6  -1   44.49    8.04
  -1  -6   1   60.08    4.44
  -1  -6   1   56.01    5.58
  -1  -6   1   62.49    6.46
  -1  -6   1   53.22    5.58
   1   6  -2   81.98   10.63
   1   6  -2  123.42    7.16
   1   6  -2  126.27    7.26
  -1  -6   2  126.75    7.10
  -1  -6   2  129.76    6.87
  -1  -6   2  118.60    8.53
  -1  -6   2  122.67    8.80
   1   6  -3  283.85   15.97
   1   6  -3  321.70   14.29
   1   6  -3  311.29   13.98
   1   6  -3  293.84   18.50
   1   6  -3  210.74   17.40
  -1  -6   3  301.38   13.18
  -1  -6   3  306.67   11.96
  -1  -6   3  293.68   14.60
  -1  -6   3  237.90   15.94
   1   6  -4  219.77   18.88
   1   6  -4  309.64   11.51
   1   6  -4  269.45   12.47
   1   6  -4  248.52   15.40
   1   6  -4  212.73   16.88
  -1  -6   4  286.98   12.03
  -1  -6   4  294.25   10.38
  -1  -6   4  239.82   15.51
  -1  -6   4  251.59   13.57
   1   6  -5  138.50   11.81
   1   6  -5  152.59   13.26
   1   6  -5  115.02   14.39
  -1  -6   5  145.50   11.64
   1   6  -6  143.26   12.63
  -1  -6   6  147.48   12.24
  -1  -6   7   34.92    9.92
  -1  -6   8   37.51    9.23
  -1  -6   9   32.72   13.18
  -1  -6  10    9.22   13.21
  -1  -5   1  449.04   18.13
  -1  -5   1  399.80   19.15
  -1  -5   1  439.73   17.46
   1   5  -1  459.84   20.33
   1   5  -1  417.97   21.31
  -1  -5   1  436.44   17.48
   1   5  -1  402.71   21.34
   1   5  -1  476.06   18.95
   1   5  -2  608.88   22.65
   1   5  -2  622.63   25.30
   1   5  -2  534.57   26.20
  -1  -5   2  597.31   22.79
  -1  -5   2  599.00   21.97
  -1  -5   2  524.20   24.57
  -1  -5   2  536.89   22.68
   1   5  -2  617.74   23.88
  -1  -5   3   -2.38    9.84
   1   5  -3  675.23   24.63
   1   5  -3  680.86   23.97
   1   5  -3  678.31   27.10
   1   5  -3  614.14   25.14
   1   5  -3  578.91   30.23
  -1  -5   3  663.79   14.33
  -1  -5   3  591.66   22.87
  -1  -5   3  609.43   18.63
   1   5  -4  518.37   36.83
   1   5  -4  689.00   22.16
   1   5  -4  711.42   25.41
   1   5  -4  664.64   29.62
   1   5  -4  637.66   32.82
   1   5  -4  596.04   32.38
  -1  -5   4  605.95   20.81
  -1  -5   4  670.18   23.80
  -1  -5   4  595.10   24.89
   1   5  -5   35.58    8.74
   1   5  -5   24.22    6.45
   1   5  -5   49.31    8.98
   1   5  -5   45.84    7.65
  -1  -5   5   38.33    7.61
  -1  -5   6    8.05    6.79
   1   5  -6    5.42    9.78
   1   5  -6    6.55    8.11
   1   5  -6   -7.12    6.82
   1   5  -7   37.18    9.45
  -1  -5   7   39.29    9.28
  -1  -5   8   22.32    7.34
  -1  -5   9   69.05   13.33
  -1  -5  10   92.95   15.51
   1   4  -1 1055.54   34.83
   1   4  -1 1079.89   37.09
   1   4  -1  914.87   40.85
   1   4  -1  911.32   36.25
  -1  -4   1 1012.01   36.18
  -1  -4   1 1016.50   35.90
  -1  -4   1  962.24   39.57
  -1  -4   1 1016.79   35.06
   1   4  -2  967.49   33.24
   1   4  -2  837.12   37.49
   1   4  -2  946.01   37.39
  -1  -4   2  429.29   26.17
   1   4  -2  806.79   35.35
   1   4  -2  939.35   40.52
   1   4  -2  952.65   32.69
  -1  -4   2  936.69   27.66
  -1  -4   2  821.49   32.53
  -1  -4   2  862.96   28.38
   1   4  -3  366.46   13.99
   1   4  -3  368.81   12.38
   1   4  -3  313.10   17.12
   1   4  -3  361.24   18.79
   1   4  -3  339.08   15.21
  -1  -4   3  355.61   13.22
  -1  -4   3  331.76   11.48
  -1  -4   3  337.77   17.17
  -1  -4   3  350.30   15.24
   1   4  -3  318.86   16.41
   1   4  -4   60.11    7.24
   1   4  -4   38.22    5.72
   1   4  -4   52.39    7.89
  -1  -4   4   41.48    6.14
   1   4  -4   48.34    8.04
   1   4  -5    5.84    7.39
   1   4  -5    9.76    6.04
   1   4  -5    2.36    5.46
   1   4  -5    3.52    7.19
  -1  -4   5   -1.89    5.50
   1   4  -6   -1.73    8.29
   1   4  -6    5.64    7.04
   1   4  -6    1.19    4.18
   1   4  -6    8.91    7.40
  -1  -4   6   -0.63    4.08
  -1  -4   6    2.60    3.83
   1   4  -7  100.12   13.43
   1   4  -7   91.52   11.87
   1   4  -7   84.42    9.38
  -1  -4   7  112.05   11.12
  -1  -4   7  104.93    9.69
  -1  -4   8  218.30   14.70
  -1  -4   8  269.97   15.45
  -1  -4   9  178.73   14.08
  -1  -4   9  202.23   15.03
  -1  -4  10   62.19   13.27
  -1  -4  10   99.34   12.63
  -1  -4  11    8.31   12.30
  -1  -4  12   12.45   15.32
  -1  -4  13    4.77   18.77
   1   3  -1  542.10   20.14
   1   3  -1  572.49   19.90
   1   3  -1  475.53   20.71
   1   3  -1  575.46   21.84
   1   3  -1  459.82   20.68
  -1  -3   1  525.17   19.65
  -1  -3   1  545.77   19.85
  -1  -3   1  542.52   19.89
   1   3  -2   48.36    5.57
   1   3  -2   60.93    4.93
   1   3  -2   57.57    2.85
   1   3  -2   51.30    5.13
   1   3  -2   48.52    4.99
  -1  -3   2   46.66    2.43
  -1  -3   2   60.98    2.42
  -1  -3   2   56.67    4.73
  -1  -3   2   65.82    4.73
   1   3  -2   57.31    2.75
   1   3  -3   35.88    4.31
   1   3  -3   34.74    4.90
   1   3  -3   29.24    4.25
   1   3  -3   33.89    4.23
  -1  -3   3   46.39    4.78
  -1  -3   3   38.16    3.65
   1   3  -4   13.37    5.52
   1   3  -4   -5.86    4.16
   1   3  -4    2.95    3.10
   1   3  -4    5.54    4.94
  -1  -3   4    5.72    4.64
  -1  -3   4   -1.06    3.49
   1   3  -5  145.76   10.90
   1   3  -5  173.44    9.88
   1   3  -5  156.99    9.50
  -1  -3   5  165.97   10.34
  -1  -3   5  182.21    9.53
   1   3  -6  439.69   15.36
   1   3  -6  413.70   22.24
   1   3  -6  353.41   20.34
  -1  -3   6  495.06   15.73
  -1  -3   6  416.91   20.47
  -1  -3   6  452.67   21.76
   1   3  -6  437.33   15.44
   1   3  -7  173.85    7.26
   1   3  -7  184.69    7.52
   1   3  -7  126.12   16.57
   1   3  -7  138.24   12.46
  -1  -3   7  197.12    7.38
  -1  -3   7  179.84   12.00
  -1  -3   7  187.62    7.59
  -1  -3   7  156.31   10.42
   1   3  -8  157.67    8.01
   1   3  -8  158.47    7.59
   1   3  -8  125.90   13.18
  -1  -3   8  193.18    7.67
  -1  -3   8  169.37   12.51
  -1  -3   8  169.49   11.61
   1   3  -9   46.95    4.79
   1   3  -9   50.75    4.65
  -1  -3   9   64.03    4.65
  -1  -3   9   75.35    4.69
  -1  -3   9   59.05   10.06
  -1  -3   9   55.76    9.36
  -1  -3  10    9.31    3.51
  -1  -3  10    2.31    3.70
  -1  -3  10    5.17    9.54
   1   3 -10   12.78    4.47
  -1  -3  11    4.84    3.93
  -1  -3  11    9.54    8.74
  -1  -3  12   56.21    6.48
  -1  -3  12   37.66   15.36
  -1  -3  13   52.22   18.22
   1   2  -1   95.42    4.38
   1   2  -1  109.16    4.19
   1   2  -1  112.67    5.79
  -1  -2   1   31.00    2.92
  -1  -2   1  110.07    3.65
  -1  -2   1  107.11    4.84
  -1  -2   1   94.43    5.13
   1   2  -1   96.39    5.39
   1   2  -2   64.09    5.04
   1   2  -2   81.13    5.00
  -1  -2   2   74.26    4.41
  -1  -2   2   66.32    4.42
   1   2  -2   79.66    4.46
   1   2  -3    3.38    2.92
   1   2  -3    3.25    2.36
  -1  -2   3    5.84    3.15
  -1  -2   3    2.14    2.91
  -1  -2   3   -0.64    1.92
   1   2  -4  112.41    4.72
   1   2  -4  101.34    8.53
   1   2  -4   96.99    6.57
   1   2  -4   98.08    7.97
  -1  -2   4  114.90    7.35
  -1  -2   4  123.53    4.58
  -1  -2   4  112.03    4.07
  -1  -2   4  115.24    6.58
   1   2  -5  318.35   11.54
   1   2  -5  355.36   13.79
   1   2  -5  327.75   17.33
   1   2  -5  350.03   18.79
   1   2  -5  309.40   14.84
  -1  -2   5  367.59   11.56
  -1  -2   5  179.08    9.76
  -1  -2   5  325.70   15.96
  -1  -2   5  381.79   15.20
   1   2  -6  545.03   20.76
   1   2  -6  620.51   22.28
   1   2  -6  559.61   28.21
   1   2  -6  571.48   26.01
  -1  -2   6  631.31   12.28
  -1  -2   6   -1.85    1.56
  -1  -2   6  584.83   16.73
   1   2  -7  160.70    8.03
  -1  -2   7  144.59    6.89
  -1  -2   7  188.09   11.81
   1   2  -7  185.44    9.56
   1   2  -8   28.72    3.54
   1   2  -8   37.48    4.40
  -1  -2   8   46.73    3.79
  -1  -2   8   44.91    3.43
  -1  -2   8   43.62    8.01
  -1  -2   8   51.89    7.61
   1   2  -9   32.30    5.08
   1   2  -9   36.06    5.16
  -1  -2   9   43.87    4.39
  -1  -2   9   46.63    4.54
  -1  -2   9   34.41    7.80
  -1  -2  10   32.25    4.97
  -1  -2  10   33.59    5.22
  -1  -2  10   22.61    8.95
   1   2 -10   31.06    6.48
   1   2 -10   30.24    6.05
  -1  -2  11   65.79    6.64
  -1  -2  11   55.69   10.43
  -1  -2  12  138.97   10.29
  -1  -2  12   63.45   14.81
  -1  -2  13  115.04   10.77
  -1  -2  13   81.97   19.00
   1   1  -1    4.51    0.87
   1   1  -1    3.82    1.38
   1   1  -1    4.83    1.32
  -1  -1   1    3.51    0.73
  -1  -1   1    5.38    0.73
  -1  -1   1    4.56    1.18
  -1  -1   2   -0.60    0.45
   1   1  -2  155.87    6.51
   1   1  -2  146.73    7.17
   1   1  -2  151.10    7.88
   1   1  -2  141.77    6.35
  -1  -1   2  171.66    3.68
  -1  -1   2  166.61    5.92
   1   1  -2  166.95    6.13
  -1  -1   3    1.98    2.13
   1   1  -3    0.77    0.93
   1   1  -3    2.11    0.91
   1   1  -3   -0.31    2.17
   1   1  -3    4.97    2.56
  -1  -1   3   -0.31    0.77
  -1  -1   3    3.12    2.34
  -1  -1   3    2.56    0.75
   1   1  -4  272.24   11.59
   1   1  -4  267.13   11.28
   1   1  -4  247.07   11.99
  -1  -1   4  285.87   10.86
  -1  -1   4  295.68   10.56
  -1  -1   4  273.90   13.12
  -1  -1   4  265.07   12.51
   1   1  -5  769.41   32.66
   1   1  -5  806.66   30.43
  -1  -1   5  852.58   29.18
  -1  -1   5  809.49   27.77
  -1  -1   5  795.61   33.16
  -1  -1   5  748.56   31.68
   1   1  -6  486.41   21.90
   1   1  -6  505.32   21.93
   1   1  -6  467.64   23.88
  -1  -1   6  517.22   20.12
  -1  -1   6  528.44   19.29
  -1  -1   6  481.70   22.07
   1   1  -7  372.96   16.51
  -1  -1   7  377.04   16.21
  -1  -1   7  402.93   15.57
  -1  -1   7  376.26   19.84
   1   1  -7  327.90   16.92
   1   1  -7  308.16   19.06
   1   1  -8   74.29    6.88
   1   1  -8   79.50    6.47
   1   1  -8   73.77    9.42
  -1  -1   8   89.93    5.86
  -1  -1   8   93.92    6.17
  -1  -1   8   71.68    8.65
   1   1  -9   24.47    5.61
   1   1  -9   10.79    5.79
   1   1  -9  -23.50   11.41
  -1  -1   9   26.89    3.92
  -1  -1   9   25.65    4.58
  -1  -1   9   16.35    5.89
   1   1 -10   38.73    7.48
  -1  -1  10   71.68    7.04
  -1  -1  10   47.00   10.16
   1   1 -10   36.35    7.75
  -1  -1  11  129.08   16.09
  -1  -1  11  177.64   10.49
  -1  -1  12  115.47   10.32
  -1  -1  12   53.99   14.24
  -1  -1  13   52.78    8.96
  -1  -1  13   28.07   15.67
  -1  -1  14   36.40   19.34
  -1  -1  14   36.80   11.57
  -1   0   1  171.03    6.32
   1   0  -1  175.33    6.47
   1   0  -1  171.63    6.81
   1   0  -1  151.29    7.22
  -1   0   1  179.72    6.82
  -1   0   1  171.10    7.63
   1   0  -2  196.44    7.66
   1   0  -2  173.36    7.37
   1   0  -2  168.43    9.19
  -1   0   2  195.00    7.69
  -1   0   2  188.81    7.35
  -1   0   2  183.74    8.76
   1   0  -3 1979.57   66.80
   1   0  -3 1885.97   64.14
   1   0  -3 1780.59   67.14
  -1   0   3 2037.10   66.50
  -1   0   3 1973.43   66.94
  -1   0   3 1906.64   70.18
   1   0  -4 1197.27   43.58
  -1   0   4 1339.08   46.73
  -1   0   4 1391.51   46.36
  -1   0   4 1275.26   50.37
   1   0  -4 1318.69   50.60
   1   0  -4 1300.46   45.15
  -1   0   5  489.91   19.89
   1   0  -5  518.43   24.01
   1   0  -5  509.77   20.54
   1   0  -5  477.52   21.08
  -1   0   5  544.73   19.94
  -1   0   5  452.02   18.84
  -1   0   5  477.15   22.05
  -1   0   6   90.10    6.25
   1   0  -6   83.07    6.83
   1   0  -6  103.17    5.84
   1   0  -6   87.36    7.39
  -1   0   6   93.04    5.21
  -1   0   6   83.85    7.08
  -1   0   6  103.02    5.62
   1   0  -7   82.41    6.22
   1   0  -7   85.10    5.98
   1   0  -7   60.87    9.35
  -1   0   7   83.85    5.21
  -1   0   7   96.63    5.92
  -1   0   7   78.17    7.76
   1   0  -8   89.52    8.52
   1   0  -8  110.69    7.87
  -1   0   8  105.23    6.17
   1   0  -8   64.32   10.88
  -1   0   8   85.85    9.27
  -1   0   8  110.05    7.30
   1   0  -9   82.27    7.83
   1   0  -9   66.10   12.58
  -1   0   9  115.00    7.71
  -1   0   9  114.61    8.36
  -1   0   9   97.74    9.13
   1   0  -9   71.38    8.48
   1   0 -10  176.95   12.07
  -1   0  10  215.14   11.36
  -1   0  10  192.70   12.35
  -1   0  10  162.43   15.12
   1   0 -11  149.25   11.97
  -1   0  11  181.97   11.55
  -1   0  11  115.15   15.40
  -1   0  12   53.16    8.44
  -1   0  12   51.25   13.19
  -1   0  13   16.55    8.81
  -1   0  13  -21.34   14.78
  -1   0  14   12.58   19.44
  -1   0  14   10.23   10.38
   1  -1   0  764.10   24.30
   1  -1   0  707.00   24.95
   1  -1   0  672.06   24.53
  -1   1   0  740.06   24.85
  -1   1   0  718.75   24.53
  -1   1   0  646.33   24.98
   1  -1  -1 3275.67  110.88
   1  -1  -1 3198.51  108.87
  -1   1   1 3316.76  104.17
  -1   1   1 3165.24  102.33
  -1   1   1 2887.87  109.40
  -1   1   2 1028.07   37.36
   1  -1  -2 1018.75   37.05
   1  -1  -2  980.88   34.60
  -1   1   2 1062.28   37.39
   1  -1  -3  988.77   36.46
   1  -1  -3 1003.93   39.10
  -1   1   3 1034.35   38.41
  -1   1   3 1042.58   36.87
  -1   1   4  554.79   20.08
  -1   1   4  498.19   21.74
   1  -1  -4  560.90   21.69
   1  -1  -4  538.39   21.23
   1  -1  -4  505.94   20.59
  -1   1   4  572.18   21.10
   1  -1  -5    1.39    2.94
  -1   1   5    3.55    1.70
   1  -1  -5    3.24    2.78
  -1   1   5    5.10    2.32
   1  -1  -5   -3.28    2.65
  -1   1   5   -5.19    3.85
  -1   1   6   38.21    4.03
   1  -1  -6   38.83    6.45
   1  -1  -6   35.12    4.80
  -1   1   6   37.28    6.06
   1  -1  -6   32.83    4.50
  -1   1   6   36.39    3.27
  -1   1   6   44.57    3.70
   1  -1  -7  151.84   11.53
   1  -1  -7  189.76   10.23
   1  -1  -7  181.16   11.68
  -1   1   7  176.72    8.84
  -1   1   7  184.99   10.63
  -1   1   7  178.57   11.07
  -1   1   7  167.50    8.59
   1  -1  -8  302.86   19.10
   1  -1  -8  305.12   14.86
   1  -1  -8  229.99   19.87
  -1   1   8  311.80   14.26
  -1   1   8  337.49   16.83
  -1   1   8  304.84   17.08
   1  -1  -9  271.40   14.64
   1  -1  -9  231.24   14.73
   1  -1  -9  194.30   18.47
  -1   1   9  268.75   13.72
  -1   1   9  277.11   16.52
   1  -1 -10  104.45   10.86
  -1   1  10  145.25    9.83
  -1   1  10  163.93   12.24
  -1   1  10  111.26   10.78
  -1   1  11   19.07    6.46
   1  -1 -11    0.62    8.15
  -1   1  11    6.18    9.85
  -1   1  12   11.46    7.79
  -1   1  12   -5.65   12.63
  -1   1  13    4.85    9.85
  -1   1  13   -4.96   14.55
  -1   1  14    0.60   11.72
  -1   1  14   22.99   20.86
   1  -2   0  816.82   28.60
   1  -2   0  789.16   28.61
  -1   2   0  835.35   30.79
   1  -2   0  765.48   30.55
  -1   2   0  759.38   27.09
   1  -2  -1  162.91    7.23
  -1   2   1  158.03    6.47
   1  -2  -1  158.77    7.05
  -1   2   1  161.24    6.93
   1  -2  -2  503.28   18.60
   1  -2  -2  470.23   18.09
  -1   2   2  494.56   19.61
  -1   2   2  500.26   18.59
   1  -2  -3  169.54    9.34
   1  -2  -3  153.65    7.69
  -1   2   3  169.58    7.57
  -1   2   3  177.22    7.99
  -1   2   4  279.69   13.49
   1  -2  -4  279.07   14.09
   1  -2  -4  285.94   12.03
  -1   2   4  291.67   12.19
   1  -2  -5  281.11   13.70
   1  -2  -5  245.06   13.48
   1  -2  -5  286.09   13.12
  -1   2   5  307.24   12.86
  -1   2   5  308.71   13.59
   1  -2  -6  232.46   12.70
   1  -2  -6  246.80   11.90
   1  -2  -6  221.22   12.56
  -1   2   6  225.74   10.50
  -1   2   6  266.53   11.68
   1  -2  -7  164.42    9.85
   1  -2  -7  166.72   10.13
   1  -2  -7  159.12    9.96
  -1   2   7  166.88    8.76
  -1   2   7  185.47    9.27
  -1   2   7  162.95    8.32
   1  -2  -8   97.38    9.03
   1  -2  -8   94.82    8.83
   1  -2  -8   89.76    9.31
  -1   2   8   98.67    7.30
  -1   2   8   99.24    8.57
  -1   2   8   78.04    9.63
   1  -2  -9   85.65    8.66
   1  -2  -9   83.86   11.71
  -1   2   9   84.95    9.05
  -1   2   9   89.68   10.29
  -1   2  10   40.11    7.23
   1  -2 -10   35.65    9.07
   1  -2 -10   23.66   12.70
  -1   2  10   29.07    9.07
  -1   2  10   25.96    7.30
   1  -2 -11   -2.14   11.48
  -1   2  11   17.29    5.51
  -1   2  11   10.29    8.44
   1  -2 -12   16.74   11.57
  -1   2  12   18.87    8.98
  -1   2  12    5.20   14.08
  -1   2  13   49.10   11.80
  -1   2  13   30.62   16.98
  -1   2  14   26.82   10.04
  -1   2  14    1.16   19.48
   1  -3   0  278.45   13.18
   1  -3   0  263.40   12.64
   1  -3   0  280.22   11.84
  -1   3   0  288.50   12.98
  -1   3   0  269.94   11.29
   1  -3  -1  103.69    5.86
   1  -3  -1   93.73    5.20
  -1   3   1  106.73    5.81
  -1   3   1  104.88    5.41
   1  -3  -2  367.88   15.04
   1  -3  -2  338.71   18.16
  -1   3   2  364.34   15.52
  -1   3   2  360.44   14.58
   1  -3  -3  452.49   18.46
   1  -3  -3  417.92   17.58
  -1   3   3  433.33   17.16
  -1   3   3  436.75   17.23
   1  -3  -4   67.19    5.64
   1  -3  -4   78.22    7.19
  -1   3   4   79.47    5.05
  -1   3   4   73.25    5.48
   1  -3  -5  316.51   15.32
   1  -3  -5  274.25   14.42
   1  -3  -5  322.26   15.22
  -1   3   5  308.29   13.81
  -1   3   5  331.14   14.93
  -1   3   6  187.99   11.27
  -1   3   6  233.24   11.85
   1  -3  -6  217.22   12.28
   1  -3  -6  184.32   13.38
   1  -3  -6  163.66   12.25
   1  -3  -7   37.39    7.46
   1  -3  -7   31.52    4.90
   1  -3  -7   26.77    6.41
  -1   3   7   39.17    4.15
  -1   3   7   36.93    6.53
   1  -3  -8   18.38    6.74
   1  -3  -8   11.83    6.93
  -1   3   8   25.73    5.67
  -1   3   8   16.28    7.44
  -1   3   8   13.90    3.04
   1  -3  -9   42.40    8.43
  -1   3   9   56.63    6.15
  -1   3   9   39.76    9.33
   1  -3 -10   37.43    9.48
   1  -3 -10   57.84   12.56
  -1   3  10   47.51    8.42
  -1   3  10   39.90   10.76
  -1   3  10   32.71    8.23
   1  -3 -11   49.33   11.73
  -1   3  11   71.10   10.07
  -1   3  11   52.38   12.61
   1  -3 -12   73.32   14.26
  -1   3  12  127.71   13.55
  -1   3  12   86.89   18.77
  -1   3  13   62.61   13.41
  -1   3  13   37.29   18.40
   1  -4   0   46.97    4.42
   1  -4   0   49.47    3.81
   1  -4   0   59.87    4.95
  -1   4   0   59.33    4.43
  -1   4   0   41.69    4.12
   1  -4  -1   74.92    4.82
   1  -4  -1   82.35    5.47
   1  -4  -1   74.59    5.34
  -1   4   1   84.76    5.32
  -1   4   1   72.83    5.27
   1  -4  -2   28.68    4.89
   1  -4  -2   27.52    3.47
  -1   4   2   28.58    3.17
  -1   4   2   30.35    4.43
   1  -4  -3  164.00    9.70
   1  -4  -3  155.01    8.82
  -1   4   3  153.96    7.78
  -1   4   3  150.22    8.46
   1  -4  -4  238.32   14.20
   1  -4  -4  228.86   11.77
  -1   4   4  255.87   11.22
  -1   4   4  258.47   13.46
   1  -4  -5  196.49   13.26
   1  -4  -5  188.08   11.91
  -1   4   5  199.42   11.32
  -1   4   5  200.09   12.34
   1  -4  -6  202.07   11.66
   1  -4  -6  191.86   11.55
   1  -4  -6  171.76   12.22
  -1   4   6  206.78   10.77
  -1   4   6  212.34   11.42
   1  -4  -7   78.28   10.63
   1  -4  -7   47.73    7.31
  -1   4   7   52.29    6.70
  -1   4   7   62.06    9.22
   1  -4  -8   27.39    5.79
   1  -4  -8   18.34    6.80
  -1   4   8   36.21    5.34
  -1   4   8   37.65    7.32
  -1   4   8   29.09    3.11
   1  -4  -9   45.33    7.47
  -1   4   9   56.44    7.02
  -1   4   9   64.21   10.91
   1  -4  -9   28.18    8.99
   1  -4 -10   81.53   13.96
   1  -4 -10  119.25   12.51
  -1   4  10  123.66   11.91
   1  -4 -11  105.29   14.73
  -1   4  11  145.73   13.41
  -1   4  11   83.80   16.27
   1  -4 -12   81.75   15.71
  -1   4  12   85.83   13.31
  -1   4  12   65.63   14.42
  -1   4  13    9.15    9.30
  -1   4  13   24.45   18.76
   1  -5   0   15.47    4.57
  -1   5   0   11.94    3.98
   1  -5   0   11.35    2.88
  -1   5   0   15.59    3.94
   1  -5   0    5.38    3.84
   1  -5  -1  123.23    8.03
   1  -5  -1  115.90    7.74
  -1   5   1  112.13    7.43
   1  -5  -1  132.28    8.33
  -1   5   1  111.96    7.72
   1  -5  -2  388.01   16.37
  -1   5   2  407.36   17.43
  -1   5   2  414.38   18.11
   1  -5  -2  403.51   17.64
   1  -5  -3  277.02   17.09
   1  -5  -3  283.30   13.70
  -1   5   3  304.75   12.99
  -1   5   3  288.37   17.57
   1  -5  -4  366.33   18.60
   1  -5  -4  364.30   17.23
  -1   5   4  391.33   16.24
  -1   5   4  378.40   18.77
   1  -5  -5   83.06    7.25
  -1   5   5   88.93    6.51
  -1   5   5   96.75   10.10
   1  -5  -5   77.40   10.56
   1  -5  -6   45.76    9.76
   1  -5  -6   19.43    3.95
  -1   5   6   26.11    6.30
   1  -5  -6   17.49    6.94
  -1   5   6   17.94    4.53
   1  -5  -7   90.79    9.70
  -1   5   7   82.33    9.39
   1  -5  -7   80.04    7.34
  -1   5   7  100.24    9.31
   1  -5  -8  160.46   13.24
  -1   5   8  174.98   12.05
   1  -5  -8  113.23   10.32
  -1   5   8  196.61   16.25
   1  -5  -9  114.20   12.60
   1  -5  -9   78.80   10.25
  -1   5   9  109.36   11.84
   1  -5 -10   91.74   14.24
  -1   5  10  106.24   11.84
   1  -5 -11   82.34   15.26
  -1   5  11   87.92   13.15
   1  -5 -12    8.72   16.38
  -1   5  12   15.33   13.52
  -1   5  12   17.57   12.68
  -1   5  13   16.15   11.36
   1  -6   0  591.86   24.94
   1  -6   0  612.54   28.71
   1  -6   0  576.93   24.70
  -1   6   0  656.19   28.04
  -1   6   0  590.53   23.49
   1  -6  -1  646.61   26.71
   1  -6  -1  610.22   31.96
   1  -6  -1  668.34   28.42
  -1   6   1  652.44   31.58
  -1   6   1  678.15   27.36
   1  -6  -2  403.29   22.54
   1  -6  -2  353.70   17.02
   1  -6  -2  404.40   18.13
  -1   6   2  398.63   16.50
  -1   6   2  382.71   20.85
   1  -6  -3  146.25   10.24
  -1   6   3  166.30   12.07
   1  -6  -3  161.94   12.22
  -1   6   3  177.81   10.42
   1  -6  -4   31.59    9.12
  -1   6   4   20.90    8.02
   1  -6  -4   32.46    7.04
  -1   6   4   21.39    6.14
   1  -6  -5   18.63    6.95
   1  -6  -5    9.58    6.89
  -1   6   5   17.37    6.59
  -1   6   5   28.26    6.95
   1  -6  -6   42.75    8.41
   1  -6  -6   33.56    5.12
  -1   6   6   32.25    7.50
   1  -6  -7  200.72   13.03
  -1   6   7  206.27   11.85
   1  -6  -8  266.23   18.21
   1  -6  -8  230.75   14.12
  -1   6   8  290.45   17.50
  -1   6   9  135.90   15.11
   1  -6  -9  143.42   16.46
   1  -6 -10   15.80   13.99
  -1   6  10   27.08   11.89
   1  -6 -11   22.98   11.12
  -1   6  11    7.96    9.61
   1  -6 -12   -9.44   17.53
  -1   6  12   -1.20   14.23
  -1   6  12   -1.18   11.61
   1  -7   0  339.04   17.52
   1  -7   0  343.86   16.54
   1  -7   0  317.33   16.86
  -1   7   0  361.95   16.57
  -1   7   0  342.90   17.23
   1  -7  -1  395.39   18.67
   1  -7  -1  393.36   22.90
   1  -7  -1  383.05   18.26
  -1   7   1  356.44   20.93
  -1   7   1  358.16   17.27
   1  -7  -2   69.21    7.56
   1  -7  -2   79.40    8.55
   1  -7  -2   74.08    8.66
  -1   7   2   66.84    7.65
   1  -7  -3   37.56    8.11
   1  -7  -3   28.50    7.61
  -1   7   3   26.86    7.17
   1  -7  -4   78.65   11.97
   1  -7  -4   21.03    5.97
  -1   7   4   19.09    5.07
   1  -7  -5   45.06    9.55
  -1   7   5   66.24    7.33
   1  -7  -6  168.91   11.43
  -1   7   6  181.15   12.63
   1  -7  -7  186.47   18.32
  -1   7   7  179.89   15.93
   1  -7  -8  122.62   12.48
  -1   7   8  139.39   11.60
   1  -7  -9   41.51   10.35
  -1   7   9   44.20   10.35
   1  -7 -10   -5.54   11.84
  -1   7  10    8.54    9.59
   1  -7 -11    5.54   18.87
  -1   7  11  -13.78   11.23
   1  -8   0   97.33   11.66
   1  -8   0  101.46    9.07
   1  -8   0   75.91    8.93
   1  -8   0   84.20    9.31
  -1   8   0  107.48    8.78
   1  -8  -1   47.11    8.49
   1  -8  -1   21.69    6.35
   1  -8  -1   38.03    7.71
  -1   8   1   41.39    7.96
   1  -8  -1   31.94    8.10
   1  -8  -2   33.36   11.53
   1  -8  -2   50.80    8.98
   1  -8  -2   25.23    5.65
   1  -8  -2   41.81    8.28
  -1   8   2   42.88    8.97
   1  -8  -3   32.84    9.50
   1  -8  -3   16.69    8.50
   1  -8  -3   17.51    4.96
   1  -8  -3   19.29    9.18
  -1   8   3   34.72    8.80
   1  -8  -4   72.92   11.92
  -1   8   4   79.17   10.88
   1  -8  -5  189.82   16.14
  -1   8   5  162.45   14.19
   1  -8  -6  166.54   18.21
  -1   8   6  178.00   16.74
   1  -8  -7   22.64    8.79
  -1   8   7   35.31    9.09
   1  -8  -8    9.99   12.98
  -1   8   8   15.06   13.28
  -1   8   9   -0.60   14.63
   1  -8  -9   -4.18   16.72
   1  -8 -10   20.17   18.83
  -1   8  10    6.72   15.99
   1  -9   0   10.67    8.72
   1  -9   0   12.73    7.11
   1  -9   0   25.18    9.10
  -1   9   0   22.70    9.77
   1  -9  -1   -3.80    6.27
   1  -9  -1   12.11    8.74
  -1   9   1   -1.50    8.99
   1  -9  -1    4.50    8.54
   1  -9  -2   11.65    9.56
   1  -9  -2   14.02    5.45
   1  -9  -2   15.99    9.32
  -1   9   2   28.38   10.16
   1  -9  -3   77.75   11.79
   1  -9  -3   63.97    7.30
   1  -9  -3   53.31   10.88
  -1   9   3   82.07   12.23
   1  -9  -4   94.69   10.29
   1  -9  -4   93.10   12.85
  -1   9   4   92.31   11.03
   1  -9  -5  103.35   13.69
  -1   9   5  113.74   13.99
   1  -9  -6   47.66   10.40
  -1   9   6   21.68    9.36
   1  -9  -7   16.49   14.41
  -1   9   7   15.60   14.86
   1  -9  -8   -3.27   12.34
  -1   9   8    8.92   11.60
   1  -9  -9    2.98   18.47
  -1   9   9   30.68   18.17
   1 -10   0    1.35    9.91
   1 -10   0    4.02    8.53
   1 -10   0   15.57   11.18
  -1  10   0    2.25   11.41
   1 -10  -1   13.34   11.09
   1 -10  -1   15.76    8.04
   1 -10  -1   12.36   10.23
  -1  10   1   22.18   12.59
   1 -10  -2    5.08   11.81
   1 -10  -2   32.74   11.59
  -1  10   2   27.80   13.90
   1 -10  -3   59.44   13.42
   1 -10  -3   52.21   12.68
  -1  10   3   99.22   16.56
   1 -10  -4   48.15   15.46
   1 -10  -4   69.71   13.49
  -1  10   4   87.97   16.07
   1 -10  -5   11.42   16.17
   1 -10  -5    7.66   13.73
  -1  10   5   24.18   15.73
   1 -10  -6   20.91   15.72
   1 -10  -6  -10.77   13.34
  -1  10   6   -1.78   16.46
   1 -10  -7   -1.19   12.01
  -1  10   7   -5.34   12.90
   1 -11   0   40.04   13.20
   1 -11   0   35.53   14.30
   1 -11  -1   64.15   14.25
   1 -11  -1   57.43   14.60
  -1  11   1   55.31   16.94
   1 -11  -2   59.96   15.11
   1 -11  -2   71.86   15.07
  -1  11   2   62.06   17.65
   1 -11  -3   24.90   16.85
   1 -11  -3   21.12   14.91
  -1  11   3   31.76   17.89
   1 -11  -4   21.97   16.64
  -1  11   4    4.76   17.99
   1 -11  -4   11.00   16.36
   1 -11  -5    8.01   11.57
   1 -11  -5   20.11   18.37
  -1  11   5   10.24   12.61
   0 -11   1  129.87   13.70
   0 -11   1   93.33   16.61
   0 -11   2   60.74   16.92
   0 -11   2   95.95   13.15
   0 -11   2   45.31   14.31
   0 -11   3   52.28   11.34
   0 -11   3   19.78   14.65
   0 -11   3    4.24   15.08
   0 -11   4   20.72   10.22
   0 -11   4   20.70   15.71
   0 -11   4    5.55   16.50
   0 -11   5    1.11    8.86
   0 -11   5  -20.68   18.26
   0  10  -1   70.94   11.32
   0 -10   1   50.27    9.53
   0 -10   1   36.61   10.60
   0 -10   1   59.16   12.20
   0 -10   2   25.18    9.48
   0 -10   2   35.21   11.27
   0 -10   2   25.08   11.95
   0 -10   3   -2.49    8.63
   0 -10   3  -26.80   12.07
   0 -10   3    3.23   12.04
   0 -10   4   -2.15    8.16
   0 -10   4   26.00   13.00
   0 -10   4   -8.20   11.57
   0 -10   5   17.05    7.55
   0 -10   5   30.00   15.01
   0 -10   6   31.57    7.46
   0 -10   7   54.64   20.44
   0  -9   1   19.24    8.80
   0  -9   1   39.76    7.16
   0  -9   1   25.37    7.28
   0   9  -1   41.25    8.64
   0  -9   1   26.68   10.46
   0  -9   2    8.85    8.38
   0  -9   2    7.61    7.78
   0  -9   2    3.27    7.14
   0  -9   2    2.07    8.29
   0   9  -3   16.05    8.84
   0  -9   3   16.34    6.92
   0  -9   3   35.32    9.56
   0  -9   3    4.42    8.99
   0  -9   4   33.47    6.65
   0  -9   4   19.40   10.51
   0  -9   4   26.15    9.85
   0  -9   5  151.26   10.50
   0  -9   5   86.49   13.56
   0  -9   6  123.36    8.57
   0  -9   6   58.16   15.07
   0  -9   7   21.00    6.49
   0  -9   7   21.32   13.84
   0  -9   9   13.13   15.00
   0  -8   1   44.22    7.98
   0   8  -1   30.56    6.56
   0  -8   1   29.07    5.82
   0  -8   1   17.07    7.34
   0   8  -2   40.27    6.57
   0   8  -2   45.12    9.78
   0  -8   2   35.21    8.48
   0  -8   2   51.48    7.77
   0  -8   2   54.00    6.14
   0   8  -3   84.48    8.48
   0   8  -3   86.65    8.66
   0   8  -3   46.27   10.77
   0  -8   3   76.03    7.12
   0  -8   3   78.86    7.44
   0  -8   3   52.10    9.34
   0  -8   3   68.14    9.78
   0   8  -4  237.93   13.76
   0  -8   4  216.58   13.02
   0  -8   4  232.57   12.19
   0  -8   4  181.67   14.70
   0  -8   4  191.32   14.59
   0   8  -5  165.42   11.10
   0   8  -5  102.81   12.72
   0  -8   5  150.68   10.92
   0  -8   5  184.77   10.06
   0  -8   5  133.05   14.58
   0  -8   6   88.94    6.98
   0  -8   6   49.36   11.98
   0  -8   7   17.36    4.56
   0  -8   7   16.43   12.04
   0  -8   8    3.22    9.67
   0  -8   9   21.04   12.44
   0  -8  10   53.56   16.55
   0   7  -1   62.23    6.59
   0   7  -1   54.62    7.20
   0  -7   1   75.38    7.21
   0  -7   1   70.29    6.44
   0  -7   1   43.21    6.33
   0  -7   1   67.01    8.14
   0   7  -2  219.74   11.38
   0   7  -2  207.94   12.50
   0  -7   2  221.68   12.06
   0  -7   2  206.73   11.37
   0  -7   2  179.42   13.57
   0  -7   2  186.63   11.90
   0   7  -3  177.70    9.50
   0   7  -3  152.59   10.32
   0   7  -3  140.80   10.28
   0  -7   3  174.41    9.90
   0  -7   3  173.39    9.05
   0  -7   3  128.82   10.89
   0   7  -4  190.14   11.00
   0   7  -4  205.86   11.10
   0   7  -4  151.60   13.88
   0  -7   4  202.67    9.69
   0  -7   4  217.33    9.99
   0  -7   4  150.96   14.11
   0  -7   4  198.01   13.59
   0  -7   5  139.94   13.85
   0   7  -5  158.36    9.54
   0   7  -5  145.78   10.11
   0   7  -5  133.82   12.79
   0  -7   5  169.53    8.60
   0   7  -6   67.03    6.54
   0   7  -6   47.25    7.00
   0   7  -6   34.60    9.83
   0  -7   6   72.24    5.30
   0  -7   6   68.50    6.12
   0  -7   6   35.88   10.69
   0  -7   7   86.97    5.60
   0   7  -7   68.65    7.00
   0  -7   7   -0.89    4.15
   0  -7   7   59.70   12.91
   0  -7   8   31.09   12.77
   0  -7   8   33.35    4.80
   0  -7   9   33.17    4.26
   0  -7   9   13.10   14.72
   0  -7  10   78.86   18.69
   0  -7  11   25.03   19.99
   0  -6   1  349.94   16.15
   0  -6   1  363.65   16.05
   0   6  -1  371.43   19.08
   0   6  -1  370.80   18.20
   0  -6   1  354.70   17.14
   0  -6   2  278.31   12.95
   0   6  -2  278.65   14.88
   0   6  -2  244.15   13.50
   0  -6   2  279.70   13.41
   0  -6   2  253.92   15.95
   0  -6   2  253.34   13.04
   0  -6   3  348.13   21.81
   0   6  -3  418.30   17.70
   0   6  -3  415.89   21.27
   0   6  -3  368.75   17.61
   0  -6   3  448.44   16.58
   0  -6   3  414.24   17.45
   0  -6   3  419.30   18.46
   0   6  -3  441.14   19.53
   0   6  -4  112.78    6.59
   0   6  -4  104.46    7.32
   0   6  -4   93.20   10.58
   0   6  -4  105.63    8.68
   0  -6   4  114.40    6.45
   0  -6   4  110.32    6.16
   0  -6   4   83.77    9.30
   0  -6   4   93.39    7.89
   0   6  -5   46.62    4.83
   0   6  -5   37.23    4.85
   0   6  -5   26.63    8.47
   0   6  -5   21.92    6.91
   0  -6   5   50.28    4.42
   0  -6   5   29.48    7.50
   0   6  -6   38.97    4.15
   0   6  -6   36.96    4.81
   0   6  -6   35.66    7.90
   0  -6   6   53.98    4.97
   0  -6   6   44.80    3.88
   0  -6   6   28.88    8.62
   0   6  -7   55.57    7.12
   0  -6   7   88.51    5.23
   0  -6   7    5.37    3.92
   0  -6   7   57.17   10.71
   0   6  -7   88.07    6.95
   0   6  -8   63.43    5.68
   0  -6   8   92.30    5.84
   0  -6   8   95.07    6.15
   0  -6   8   64.28   12.74
   0   6  -8   68.13    6.54
   0  -6   9   53.51    4.89
   0  -6   9   12.56   12.24
   0  -6  10   52.52    5.16
   0  -6  10   36.36   10.30
   0  -6  11   13.63   11.57
   0  -6  12  -15.44   19.19
   0   5  -1  673.75   28.81
   0   5  -1  654.04   31.28
   0  -5   1  660.99   26.76
   0  -5   1  636.65   25.82
   0  -5   1  610.31   28.23
   0  -5   1  617.80   23.03
   0   5  -2   75.90    5.44
   0   5  -2   78.46    5.19
   0   5  -2   78.96    7.05
   0  -5   2   84.06    4.75
   0  -5   2   79.06    5.15
   0  -5   2   73.18    7.05
   0  -5   2   66.31    6.46
   0   5  -3   36.75    3.42
   0   5  -3   34.15    3.72
   0   5  -3   37.60    6.25
   0   5  -3   25.82    4.60
   0  -5   3   36.08    3.72
   0  -5   3   37.05    3.42
   0  -5   3   34.55    6.11
   0  -5   3   30.46    5.35
   0   5  -4   40.84    3.60
   0   5  -4   36.76    3.82
   0   5  -4   41.57    5.67
   0   5  -4   32.55    5.53
   0  -5   4   42.32    3.53
   0  -5   4   36.54    3.31
   0  -5   4   30.14    6.07
   0  -5   4   34.22    5.04
   0  -5   5   10.22    2.63
   0   5  -5    6.94    2.55
   0   5  -5    5.84    2.63
   0   5  -5    5.09    6.48
   0   5  -5    4.07    4.83
   0  -5   5    9.21    2.41
   0  -5   5    6.87    6.35
   0   5  -6  203.99    9.92
   0   5  -6  173.75    9.08
   0   5  -6  153.53   11.79
   0   5  -6  138.53   10.32
   0  -5   6  198.93    8.22
   0  -5   6  202.78    8.97
   0  -5   6  145.49   11.79
   0   5  -7  258.08   13.34
   0   5  -7  232.11   10.95
   0   5  -7  191.74   14.94
   0   5  -7  170.74   18.18
   0  -5   7  254.52   10.88
   0  -5   7  237.50   11.10
   0  -5   7  203.15   16.23
   0   5  -8  179.74    9.65
   0   5  -8  150.15   10.29
   0  -5   8  183.71    7.72
   0  -5   8    0.00    3.96
   0   5  -9   39.64    6.64
   0  -5   9   66.95    5.70
   0  -5   9   -2.31    4.01
   0  -5   9   32.08   11.62
   0  -5  10   11.05    4.64
   0  -5  10    7.74   11.93
   0  -5  10   -6.06    6.99
   0  -5  11    4.32    5.44
   0  -5  11   -1.27    9.68
   0  -5  11   16.99   11.85
   0  -5  12    8.28   13.27
   0  -5  12   17.44   14.95
   0   4  -1    1.35    1.95
   0   4  -1    0.31    2.60
   0   4  -1   -2.75    2.60
   0  -4   1    0.30    1.80
   0  -4   1    1.07    3.20
   0  -4   1    3.33    3.18
   0   4  -2  145.04    7.15
   0   4  -2  120.91    6.20
   0   4  -2  115.76    7.37
   0   4  -2  131.10    7.18
   0  -4   2  132.42    6.51
   0  -4   2  132.70    6.84
   0  -4   2  137.02    7.39
   0   4  -3   54.50    3.83
   0   4  -3   51.23    3.55
   0   4  -3   56.20    5.79
   0   4  -3   47.74    4.47
   0  -4   3   47.90    5.98
   0  -4   3   51.66    5.65
   0  -4   3   62.55    3.54
   0   4  -4  366.83   13.02
   0   4  -4  367.53   16.46
   0   4  -4  328.86   15.07
   0   4  -4  348.17   14.86
   0  -4   4  390.94   15.02
   0  -4   4  353.14   17.46
   0   4  -5  485.67   21.38
   0   4  -5  462.81   20.91
   0  -4   5  482.42   17.37
   0   4  -5  519.34   19.12
   0  -4   5  446.24   23.52
   0   4  -5  419.36   24.48
   0  -4   5  522.27   19.77
   0   4  -6  182.21    8.86
   0   4  -6  166.61    9.30
   0   4  -6  142.70   11.83
   0   4  -6  134.19   10.54
   0  -4   6  173.81    7.55
   0  -4   6  186.28    8.39
   0  -4   6  154.64   11.64
   0  -4   6  172.49    9.78
   0   4  -7   58.30    4.80
   0   4  -7   47.59   10.91
   0  -4   7   46.94    6.90
   0   4  -7   59.72    5.91
   0   4  -7   50.68    9.54
   0  -4   7   58.82    4.11
   0  -4   7   68.97    4.65
   0  -4   7   47.20    6.90
   0  -4   8   32.04    3.71
   0  -4   8   19.96    6.97
   0   4  -8   31.48    8.72
   0  -4   8   23.70    6.13
   0   4  -8   25.61    4.94
   0   4  -8   24.96    5.16
   0  -4   8   33.95    3.87
   0  -4   9   51.30    5.04
   0   4  -9   44.74    5.53
   0   4  -9   38.03    6.64
   0  -4   9   53.56    4.75
   0  -4   9   41.15   10.78
   0  -4   9   48.02    8.95
   0   4 -10   10.22    7.30
   0  -4  10   40.71    4.96
   0  -4  10   36.82   11.26
   0  -4  10   35.21    7.21
   0  -4  11   91.00    8.20
   0  -4  11   54.11   10.93
   0  -4  11   65.95   13.15
   0  -4  12  116.25    9.87
   0  -4  12   51.19   13.39
   0  -4  12   71.38   15.83
   0  -4  13   74.64   20.20
   0  -4  13   58.17   17.18
   0  -3   1   73.38    4.72
   0   3  -1   84.44    4.56
   0   3  -1   78.82    3.84
   0   3  -1   79.13    4.94
   0  -3   1   88.96    4.30
   0  -3   1   80.54    4.40
   0  -3   1   87.60    5.61
   0   3  -2  913.10   34.77
   0  -3   2  874.06   38.23
   0   3  -2 1000.53   33.10
   0   3  -2  905.66   33.15
   0   3  -2  854.66   31.14
   0  -3   2  937.99   32.76
   0  -3   2  925.24   31.39
   0  -3   2  876.16   31.62
   0  -3   3  896.24   28.94
   0  -3   3  837.49   28.39
   0   3  -3  903.95   29.48
   0   3  -3  864.24   30.97
   0   3  -3  840.09   35.02
   0   3  -3  833.79   35.75
   0  -3   3  797.43   35.58
   0   3  -4  237.19    8.96
   0   3  -4  238.44    9.87
   0   3  -4  228.34   11.82
   0   3  -4  200.97   10.78
   0  -3   4  204.49    8.62
   0  -3   4  256.56    9.43
   0  -3   4  227.13   10.32
   0   3  -5  411.27   15.71
   0   3  -5  389.42   14.93
   0   3  -5  358.09   16.92
   0   3  -5  336.85   20.71
   0  -3   5  379.13   14.36
   0  -3   5  420.28   14.96
   0  -3   5  387.60   17.98
   0   3  -6   29.19    5.56
   0   3  -6   22.36    7.18
   0  -3   6   36.09    3.02
   0  -3   6   51.35    3.45
   0   3  -6   35.01    3.43
   0   3  -6   42.11    3.93
   0  -3   6   50.80    7.12
   0  -3   6   38.08    5.56
   0  -3   7    7.22    2.61
   0   3  -7    1.07    3.06
   0   3  -7   -0.92    3.07
   0   3  -7    6.56    6.88
   0   3  -7   -4.07    5.54
   0  -3   7    2.30    2.14
   0  -3   7    8.52    4.51
   0  -3   7   -4.81    4.81
   0   3  -8   67.10    6.56
   0   3  -8   65.49    5.52
   0   3  -8   34.06    9.48
   0   3  -8   47.14    8.42
   0  -3   8   72.70    5.18
   0  -3   8   83.42    5.41
   0  -3   8   64.53    9.07
   0  -3   8   73.60    8.07
   0   3  -9  250.69   13.76
   0   3  -9  211.92   11.80
   0   3  -9  159.72   16.57
   0  -3   9  256.21   11.90
   0  -3   9  266.87   11.98
   0  -3   9  208.99   17.45
   0  -3   9  219.51   14.98
   0  -3  10  227.65   11.18
   0  -3  10  230.14   11.59
   0  -3  10  161.66   14.44
   0  -3  10  167.33   15.59
   0   3 -10  185.30   11.59
   0   3 -10  150.56   11.64
   0  -3  11  178.53   10.49
   0  -3  11   94.83   12.91
   0  -3  11  132.46   14.75
   0  -3  12  101.19   10.02
   0  -3  12   55.74   14.37
   0  -3  12   81.37   14.85
   0  -3  13   39.00   16.70
   0  -3  13   12.64    7.65
   0   2  -1  770.07   25.75
   0   2  -1  723.28   26.96
   0   2  -1  745.05   27.89
   0  -2   1  774.08   25.57
   0  -2   1  686.58   23.56
   0  -2   1  708.36   30.94
   0  -2   1  643.02   23.51
   0   2  -2  275.72    9.37
   0   2  -2  269.38   10.58
   0   2  -2  271.06   13.45
   0   2  -2  266.90   11.02
   0   2  -2  265.40   11.95
   0  -2   2  276.65   10.29
   0  -2   2  258.44    9.34
   0  -2   2  272.28   13.32
   0  -2   2  258.19   10.73
   0   2  -3  780.55   23.86
   0   2  -3  745.91   25.60
   0   2  -3  702.28   32.81
   0   2  -3  716.05   26.40
   0   2  -3  637.83   25.77
   0  -2   3  705.89   23.99
   0  -2   3  808.14   25.53
   0  -2   3  708.77   31.28
   0  -2   3  677.81   26.05
   0   2  -4  595.80   25.40
   0   2  -4  616.22   21.22
   0   2  -4  605.24   20.63
   0   2  -4  509.97   22.42
   0  -2   4  565.64   19.97
   0  -2   4  568.36   23.39
   0  -2   4  575.63   19.42
   0   2  -5  238.96   14.66
   0  -2   5  238.55    8.95
   0  -2   5  242.63    8.72
   0  -2   5  212.01   12.18
   0  -2   5  217.81   10.60
   0   2  -5  246.25    9.56
   0  -2   6  228.25    8.89
   0  -2   6  217.09   12.02
   0  -2   6  205.06   10.68
   0   2  -6  211.86   12.05
   0   2  -6  187.57   12.09
   0   2  -6  179.16   14.93
   0  -2   6  219.35    9.34
   0   2  -7  132.98    6.52
   0   2  -7  135.59    7.98
   0   2  -7  117.63   11.33
   0  -2   7  146.75    7.23
   0  -2   7  163.03    6.89
   0  -2   7  138.20   10.79
   0  -2   7  138.26    9.87
   0  -2   8  150.31   11.30
   0   2  -8  153.27    8.47
   0   2  -8  181.01    9.68
   0   2  -8  132.89   13.34
   0  -2   8  173.64    8.43
   0  -2   8  184.54    8.58
   0  -2   8  144.98   11.68
   0  -2   9  218.36   10.20
   0  -2   9  176.60   13.01
   0   2  -9  170.17    9.75
   0   2  -9  190.27   13.54
   0   2  -9  141.16   12.97
   0  -2   9  220.46   11.39
   0  -2   9  180.09   12.92
   0  -2  10  292.57   14.22
   0  -2  10  288.68   13.59
   0  -2  10  209.64   18.40
   0   2 -10  196.96   12.44
   0   2 -10  283.68   13.74
   0  -2  10  229.11   18.22
   0  -2  11   43.01   11.50
   0   2 -11   63.96    9.54
   0  -2  11   91.10    8.77
   0  -2  11   68.39    9.72
   0  -2  12   14.21    8.10
   0  -2  12   25.33   11.30
   0  -2  13   21.05   15.19
   0  -2  13    2.97    8.12
   0  -2  13  -14.96   13.83
   0  -2  14   16.29    9.07
   0  -2  14   19.21   16.97
   0   1  -1   -0.15    0.30
   0   1  -1   -0.91    0.45
   0   1  -1   -0.36    1.44
   0   1  -1   -0.30    0.90
   0   1  -1   -0.90    0.75
   0  -1   1    0.00    0.45
   0  -1   1   -0.15    0.44
   0  -1   1   -0.18    0.89
   0  -1   1    0.00    0.60
   0  -1   1    0.30    0.74
   0   1  -2 1917.60   56.70
   0   1  -2 1826.18   73.54
   0   1  -2 1673.29   60.78
   0  -1   2 1727.05   56.83
   0  -1   2 1878.67   55.26
   0  -1   2 1749.67   72.64
   0  -1   2 1819.97   63.00
   0  -1   3  767.06   25.76
   0  -1   3  761.05   24.64
   0  -1   3  776.12   29.42
   0   1  -3  825.02   27.78
   0   1  -3  722.00   26.34
   0  -1   4  580.12   20.73
   0   1  -4  592.90   21.04
   0   1  -4  514.87   20.15
   0  -1   4  583.68   19.10
   0  -1   4  534.58   23.58
   0  -1   4  564.02   23.14
   0  -1   5   28.20    3.84
   0   1  -5   24.03    2.43
   0   1  -5   26.42    2.77
   0   1  -5   24.80    4.29
   0   1  -5   29.57    4.05
   0  -1   5   37.64    2.63
   0  -1   5   31.71    2.72
   0  -1   5   30.83    4.18
   0   1  -6  112.56    6.06
   0   1  -6  134.59    7.21
   0   1  -6  123.51    8.39
   0  -1   6  133.82    6.29
   0  -1   6  131.84    6.52
   0  -1   6  120.67    8.61
   0   1  -7  369.87   16.96
   0  -1   7  397.83   15.53
   0   1  -7  445.05   21.87
   0   1  -7  343.95   23.68
   0   1  -7  354.01   17.64
   0  -1   7  423.95   16.92
   0  -1   7  375.91   19.88
   0  -1   7  380.29   17.90
   0  -1   8  322.31   16.55
   0   1  -8  322.11   16.67
   0   1  -8  376.65   22.56
   0  -1   8  343.92   15.53
   0  -1   8  337.86   13.83
   0  -1   8  292.15   17.66
   0   1  -9  112.95    9.47
   0   1  -9  150.57   12.39
   0  -1   9  157.37    9.89
   0  -1   9  153.31    8.71
   0  -1   9  137.74   11.41
   0   1 -10  101.31    8.74
   0   1 -10   73.42    9.20
   0  -1  10  100.32    8.44
   0  -1  10  107.18    7.64
   0  -1  10   84.68   11.21
   0  -1  10   83.85    9.59
   0   1 -11   24.33    8.22
   0  -1  11   25.12    6.32
   0  -1  11   11.64    9.65
   0  -1  11   17.49    9.39
   0  -1  12    7.07    6.91
   0  -1  12  -11.31    6.79
   0  -1  12   -3.88   10.50
   0  -1  13   46.08    9.66
   0  -1  13   24.80   15.30
   0  -1  14   52.24   11.69
   0  -1  14   14.91   17.96
   0   0  -2   58.26    2.90
   0   0   2   28.96    2.46
   0   0   2   58.26    3.20
   0   0  -2   -0.87    1.21
   0   0  -2   88.25    4.10
   0   0  -2   18.54    1.69
   0   0   2  128.19    5.30
   0   0   3   18.63    1.55
   0   0   3   21.30    1.66
   0   0   3   24.35    2.66
   0   0  -3   21.90    1.96
   0   0  -3   23.10    2.01
   0   0  -3   19.59    2.46
   0   0  -3   18.75    2.05
   0   0   4   12.56    1.80
   0   0  -4    9.72    2.24
   0   0  -4   16.72    2.17
   0   0  -4   10.63    2.47
   0   0   4   14.09    1.71
   0   0   5   75.17    4.25
   0   0   5   72.55    4.22
   0   0   5   63.06    4.73
   0   0  -5   52.44    3.60
   0   0  -5   62.72    5.01
   0   0  -5   52.99    5.87
   0   0  -5   52.33    4.09
   0   0  -6  526.91   31.52
   0   0   6  578.19   21.63
   0   0   6  588.19   22.44
   0   0   6  540.95   24.03
   0   0  -6  514.42   23.61
   0   0  -6  595.55   22.42
   0   0   7  844.26   31.26
   0   0   7  833.07   29.38
   0   0   7  726.05   32.27
   0   0   7  751.69   31.78
   0   0  -7  703.12   30.83
   0   0  -7  877.55   39.62
   0   0  -7  776.97   39.63
   0   0   8  325.26   13.06
   0   0   8  335.05   15.19
   0   0   8  285.50   16.61
   0   0   8  279.74   18.07
   0   0  -8  295.31   17.29
   0   0  -8  327.78   14.91
   0   0  -8  293.25   20.39
   0   0   9   53.00    5.54
   0   0   9   69.61    7.36
   0   0   9   40.04    7.74
   0   0   9   54.78    8.38
   0   0  -9   46.01    7.63
   0   0  -9   60.10    7.43
   0   0  10   10.80    7.69
   0   0  10   -3.36    4.88
   0   0  10    4.10    4.73
   0   0  10    0.29    5.98
   0   0 -10   -1.89    6.62
   0   0  11    6.60    6.44
   0   0  11   -2.76    7.40
   0   0  11    2.41    8.14
   0   0  11   10.44    8.97
   0   0 -11    9.27    8.17
   0   0  12   24.85    8.61
   0   0 -12   15.78   10.00
   0   0  12   37.20    8.13
   0   0  13   60.89   11.02
   0   0  13   54.32   15.37
   0   0  14   88.82   13.66
   0   0  14   32.81   19.46
   0   1   1    0.16    0.62
   0   1   1   -0.16    0.47
   0  -1  -1    0.16    0.63
   0  -1  -1    0.47    0.62
   0   1   2   37.57    2.36
   0   1   2   36.38    2.35
   0   1   2   32.24    2.13
   0  -1  -2   40.56    2.81
   0  -1  -2   37.57    2.36
   0  -1  -2   20.11    1.82
   0   1   3  165.78    7.63
   0   1   3  174.23    7.97
   0   1   3  154.30    7.70
   0  -1  -3  160.27    7.80
   0  -1  -3  176.69    7.95
   0   1   4  218.97    9.71
   0   1   4  248.87   10.14
   0   1   4  208.05   10.89
   0  -1  -4  222.76    9.64
   0  -1  -4  240.67   13.13
   0  -1  -4  210.91   10.98
   0   1   5  630.42   24.99
   0   1   5  665.97   24.35
   0   1   5  565.50   25.03
   0  -1  -5  607.68   24.99
   0  -1  -5  658.90   25.96
   0   1   6  578.16   23.72
   0   1   6  625.79   23.49
   0  -1  -6  564.12   25.78
   0  -1  -6  606.08   27.46
   0  -1  -6  550.58   29.16
   0   1   6  550.08   24.57
   0   1   7  171.86    9.64
   0  -1  -7  172.78    9.81
   0  -1  -7  209.62    9.60
   0  -1  -7  157.60   11.55
   0   1   7  190.61    9.41
   0   1   7  203.12    9.70
   0   1   8   35.23    4.57
   0   1   8   37.73    5.31
   0   1   8   24.24    4.58
   0  -1  -8   33.18    5.46
   0  -1  -8   31.61    5.51
   0  -1  -8   21.48    7.52
   0  -1  -9   18.71    5.98
   0   1   9   13.21    4.72
   0   1   9   22.54    5.75
   0   1   9   12.99    4.68
   0   1   9   13.32    6.66
   0  -1  -9    5.14    7.57
   0   1  10    1.26    5.49
   0   1  10   11.48    7.10
   0   1  10    1.05    4.49
   0   1  10    6.79    7.29
   0  -1 -10    3.61    6.91
   0   1  11   17.46    9.89
   0   1  11   22.04    7.20
   0   1  11   18.83    8.74
   0  -1 -11   13.60    8.76
   0  -1 -12  164.58   14.23
   0   1  12  192.70   13.04
   0   1  12  123.30   17.56
   0   1  13  101.86   12.22
   0   1  13   73.21   18.07
   0   1  14   31.35   19.88
   0   1  14   50.45   11.44
   0   2   0   14.62    1.51
   0   2   0   14.97    1.55
   0  -2   0   17.75    1.71
   0  -2   0   17.33    1.66
   0  -2   0   20.05    2.31
   0   2   1  227.66    9.02
   0   2   1  231.07    9.66
   0  -2  -1  240.80   10.29
   0  -2  -1  223.97    9.91
   0   2   2  680.67   27.60
   0   2   2  728.70   27.59
   0  -2  -2  692.85   29.96
   0  -2  -2  723.31   29.05
   0   2   3  114.59    6.32
   0   2   3  121.83    5.55
   0  -2  -3  120.58    5.85
   0  -2  -3  127.82    7.72
   0   2   4  357.99   16.08
   0   2   4  369.45   14.26
   0  -2  -4  348.62   14.07
   0  -2  -4  395.76   18.29
   0  -2  -4  333.23   15.32
   0   2   5  436.96   18.99
   0   2   5  459.84   19.30
   0  -2  -5  426.21   21.51
   0  -2  -5  440.71   17.31
   0  -2  -5  404.66   19.20
   0   2   6  138.40    8.38
   0   2   6  152.89    8.98
   0  -2  -6  132.21    7.90
   0  -2  -6  145.76    8.08
   0   2   7    0.78    3.29
   0   2   7   10.41    4.59
   0  -2  -7    3.83    5.05
   0  -2  -7   -1.25    4.54
   0   2   8   30.72    4.87
   0   2   8   36.46    5.98
   0  -2  -8   25.89    6.74
   0  -2  -8   32.28    6.12
   0  -2  -8   43.20    7.51
   0   2   9   88.45    8.02
   0   2   9   91.56    9.09
   0  -2  -9   74.67    8.64
   0   2  10  172.54   10.12
   0   2  10  178.59   13.31
   0  -2 -10  151.77   12.42
   0   2  11  175.08   12.71
   0   2  11  171.07   15.61
   0   2  11  134.90   14.22
   0  -2 -11  159.53   13.15
   0   2  12  144.17   12.29
   0   2  12  102.52   16.88
   0  -2 -12  140.93   14.13
   0   2  13   68.96   13.20
   0   2  13   36.03   16.22
   0   2  14    6.37    9.10
   0   2  14   27.45   22.25
   0   3   0    1.80    1.65
   0   3   0    1.71    1.71
   0  -3   0    2.95    1.24
   0  -3   0    2.40    1.65
   0  -3   0    1.79    1.79
   0  -3   0   -0.31    2.29
   0   3   1   19.83    2.68
   0   3   1   14.42    2.28
   0  -3  -1   16.68    2.52
   0  -3  -1   18.67    2.43
   0   3   2  454.19   17.66
   0  -3  -2  454.03   17.36
   0  -3  -2  418.64   16.88
   0   3   3  451.86   17.33
   0   3   3  486.90   17.63
   0  -3  -3  452.57   17.56
   0  -3  -3  447.85   17.48
   0  -3  -3  403.93   17.62
   0   3   4  430.54   17.09
   0  -3  -4  434.43   18.01
   0  -3  -4  423.46   17.77
   0   3   5  281.56   12.68
   0  -3  -5  287.93   13.30
   0   3   5  308.92   12.52
   0  -3  -5  312.94   13.74
   0   3   6   74.91    5.80
   0   3   6   89.39    7.13
   0  -3  -6   79.83    7.89
   0  -3  -6   78.49    5.49
   0  -3  -6   66.75    5.90
   0   3   7   45.83    4.54
   0   3   7   42.14    6.47
   0  -3  -7   25.68    6.92
   0  -3  -7   37.57    5.15
   0  -3  -7   35.93    5.35
   0   3   8  129.22    9.58
   0  -3  -8  112.40   11.58
   0   3   8  121.01   10.36
   0  -3  -8  133.11   11.44
   0   3   9  314.30   14.91
   0   3   9  293.82   17.94
   0  -3  -9  269.16   15.30
   0   3  10  229.94   14.14
   0   3  10  204.41   16.49
   0  -3 -10  235.06   15.68
   0   3  11  179.02   15.10
   0  -3 -11  192.01   17.57
   0  -3 -12   29.96   12.91
   0   3  12   27.20   10.61
   0   3  12    9.96   13.61
   0   3  13    8.54   11.89
   0   3  13   -6.09    9.87
   0  -3 -13   -7.32   14.18
   0   3  14   15.54   13.58
   0   3  14   36.50   23.47
   0   4   0   74.61    4.53
   0   4   0   77.30    5.36
   0  -4   0   77.14    4.89
   0  -4   0   76.10    4.83
   0  -4   0   65.56    4.63
   0   4   1  394.49   16.48
   0   4   1  440.43   17.21
   0  -4  -1  430.48   16.73
   0  -4  -1  380.19   15.42
   0  -4  -1  378.44   17.65
   0   4   2  343.61   13.87
   0   4   2  373.54   15.41
   0  -4  -2  352.49   15.99
   0  -4  -2  336.77   14.00
   0   4   3  709.69   26.61
   0   4   3  769.14   30.46
   0  -4  -3  715.95   28.66
   0  -4  -3  713.67   27.06
   0   4   4  374.70   17.97
   0   4   4  416.41   18.58
   0  -4  -4  411.24   19.65
   0  -4  -4  413.12   20.45
   0   4   5  136.49    8.10
   0   4   5  154.58    8.84
   0  -4  -5  134.15    8.82
   0  -4  -5  144.36    9.03
   0   4   6  114.71    8.25
   0   4   6  132.34    7.85
   0  -4  -6  109.38    7.82
   0  -4  -6  113.31    9.02
   0  -4  -6  100.79    7.70
   0   4   7  271.19   13.06
   0   4   7  274.80   14.00
   0  -4  -7  245.28   14.71
   0  -4  -7  258.03   14.56
   0   4   8  152.81   11.69
   0   4   8  176.03   12.77
   0  -4  -8  138.25   13.37
   0   4   9  129.14   10.74
   0   4   9  122.52   12.56
   0  -4  -9  107.95   11.33
   0   4  10  114.33   11.31
   0   4  10  126.62   15.52
   0  -4 -10  107.85   12.23
   0   4  11   43.65    7.70
   0  -4 -11   41.95    9.54
   0   4  12   22.62    8.71
   0  -4 -12    6.88   13.75
   0   4  13   11.22   12.89
   0   4  13  -22.06   17.46
   0  -4 -13   13.65   15.77
   0   5   0  784.66   30.36
   0   5   0  768.53   29.54
   0  -5   0  732.14   29.16
   0  -5   0  721.29   27.92
   0  -5   0  725.42   27.34
   0   5   1  539.90   20.86
   0   5   1  526.30   24.84
   0  -5  -1  529.31   25.94
   0  -5  -1  505.05   21.09
   0  -5  -1  559.65   21.63
   0   5   2  165.29   10.19
   0   5   2  187.10    9.83
   0  -5  -2  162.64    8.86
   0  -5  -2  167.40   10.49
   0   5   3  145.42    9.62
   0   5   3  160.71    8.69
   0  -5  -3  148.18    8.36
   0  -5  -3  130.12   10.21
   0   5   4  227.16   10.38
   0   5   4  249.96   12.21
   0  -5  -4  239.53   13.29
   0  -5  -4  225.33   11.87
   0   5   5  161.25    8.81
   0   5   5  147.24   10.46
   0  -5  -5  169.87   10.95
   0  -5  -5  147.95    9.55
   0   5   6  215.64   12.39
   0   5   6  225.32   12.06
   0   5   6  174.08    7.95
   0  -5  -6  197.35   12.79
   0  -5  -6  188.97   12.97
   0   5   7  258.39   15.05
   0   5   7  271.20   15.62
   0  -5  -7  288.78   16.26
   0  -5  -7  238.13   17.31
   0   5   8  169.77   12.38
   0   5   8  135.62   13.25
   0  -5  -8  162.09   13.59
   0   5   9   35.63    8.76
   0  -5  -9   12.90    9.98
   0   5  10   62.07    8.30
   0  -5 -10   43.99    8.75
   0  -5 -11   25.05   13.29
   0   5  11   36.97   11.46
   0   5  12   33.74   12.77
   0  -5 -12    9.57   15.81
   0   5  13   34.11   11.33
   0  -5 -13   35.02   12.99
   0  -6   0  395.44   17.89
   0   6   0  421.87   20.83
   0   6   0  412.79   18.95
   0  -6   0  431.19   17.45
   0  -6   0  375.42   19.59
   0  -6   0  316.96   18.00
   0   6   1  109.34    7.06
   0  -6  -1  108.13    8.78
   0   6   1  112.41    9.25
   0  -6  -1  104.58    6.76
   0  -6  -1  111.57    8.70
   0   6   2   82.99    7.36
   0   6   2  106.62    8.96
   0  -6  -2   88.16    8.16
   0  -6  -2   86.28    7.21
   0  -6  -2   74.78    5.75
   0   6   3   86.68    6.80
   0   6   3   89.93    8.47
   0  -6  -3   96.14    8.64
   0  -6  -3   83.38    6.80
   0   6   4  156.32    9.89
   0   6   4  194.00   12.19
   0  -6  -4  181.78   11.86
   0  -6  -4  145.60   11.08
   0   6   5  249.12   14.83
   0   6   5  273.79   14.60
   0  -6  -5  269.52   14.91
   0  -6  -5  246.40   16.18
   0   6   6  265.65   14.89
   0   6   6  309.37   18.63
   0   6   6  230.87   12.47
   0  -6  -6  276.66   17.81
   0  -6  -6  247.88   15.48
   0   6   7  101.06    9.48
   0  -6  -7   86.15   10.98
   0   6   8   51.51    9.15
   0  -6  -8   48.91    9.76
   0   6   9   23.62   10.37
   0  -6  -9   13.11   11.58
   0  -6 -10    8.37   12.63
   0   6  10    3.35   10.81
   0   6  11   13.21    8.96
   0  -6 -11   20.80   10.93
   0   6  12   47.17   15.28
   0  -6 -12   13.76   18.14
   0   7   0   63.35    6.56
   0   7   0   48.82    7.26
   0  -7   0   62.84    7.11
   0  -7   0   49.22    5.52
   0  -7   0   44.36    5.82
   0  -7   0   51.00    7.30
   0   7   1  102.51    7.62
   0   7   1  108.60    9.41
   0  -7  -1  131.90   10.06
   0  -7  -1  112.61    7.78
   0  -7  -1  132.65    9.77
   0   7   2  194.46   12.31
   0   7   2  183.98   12.69
   0  -7  -2  186.37   13.01
   0  -7  -2  178.84   11.11
   0  -7  -2  165.93   10.00
   0  -7  -2  165.51   11.13
   0   7   3  231.71   11.50
   0   7   3  243.79   13.25
   0  -7  -3  244.43   12.94
   0  -7  -3  213.51   13.25
   0   7   4  150.43   12.93
   0  -7  -4  183.03   15.37
   0  -7  -4  166.29   13.54
   0   7   5  105.40   10.99
   0  -7  -5  143.46   14.03
   0  -7  -5   98.64   11.89
   0   7   6   22.28    8.13
   0   7   6   16.29    4.31
   0  -7  -6   24.24    8.73
   0   7   7    9.96    8.60
   0  -7  -7  -10.11    9.36
   0   7   8   12.09    7.10
   0  -7  -8   15.87   10.88
   0   7   9   76.97   10.61
   0  -7  -9   75.91   13.78
   0   7  10   65.15   14.22
   0  -7 -10   80.72   16.35
   0  -7 -11   63.23   18.57
   0   7  11   36.82   15.55
   0   7  12   46.48   12.80
   0  -7 -12   64.68   20.47
   0   8   0    9.07    5.80
   0  -8   0   18.25    8.18
   0  -8   0    8.47    5.50
   0  -8   0    1.00    5.31
   0  -8   0    3.33    6.81
   0   8   1  134.69   10.74
   0  -8  -1  173.41   12.45
   0  -8  -1  155.31   10.17
   0  -8  -1  128.68   11.26
   0   8   2  279.66   18.09
   0  -8  -2  290.98   19.73
   0  -8  -2  295.97   16.94
   0  -8  -2  210.59   13.80
   0  -8  -2  258.90   16.04
   0   8   3  127.35    9.12
   0  -8  -3  159.30   14.24
   0  -8  -3  128.98   10.44
   0  -8  -3  153.30   12.86
   0  -8  -4   14.42    7.88
   0   8   4   21.56    8.63
   0  -8  -4   34.70   13.69
   0   8   5   10.88    8.49
   0   8   5    6.22    6.38
   0  -8  -5    5.66    8.49
   0  -8  -6    5.38   10.00
   0   8   6    5.67    9.41
   0   8   6   -3.17    5.71
   0   8   7   37.86   11.83
   0  -8  -7   42.05   12.73
   0  -8  -8   96.53   11.29
   0   8   8  103.13   12.04
   0   8   9  125.16   13.43
   0  -8  -9  104.30   12.66
   0   8  10  101.19   13.71
   0  -8 -10   71.46   13.84
   0   8  11   21.15   17.55
   0  -8 -11   21.75   20.85
   0   9   0   74.61    9.68
   0  -9   0   80.91   12.41
   0  -9   0   78.62    8.79
   0  -9   0   56.84    9.01
   0  -9   0   60.58    9.66
   0   9   1   79.76   10.55
   0  -9  -1   74.67   12.94
   0  -9  -1   89.99    9.96
   0  -9  -1   54.48    6.83
   0  -9  -1   79.65   10.56
   0  -9  -2   73.64   10.87
   0   9   2   70.44   10.67
   0  -9  -2   84.60   13.94
   0  -9  -2   73.70   10.08
   0  -9  -2   47.84    5.84
   0   9   3   57.38    8.89
   0   9   3   31.60   11.03
   0  -9  -3   34.61    9.77
   0  -9  -3   55.23   10.24
   0   9   4    7.54    9.91
   0   9   4   -2.61    9.46
   0  -9  -4   25.88   10.06
   0  -9  -4   11.28    9.70
   0   9   5   23.24   11.55
   0  -9  -5    6.81   10.36
   0   9   6   75.46   13.81
   0  -9  -6   34.10   12.75
   0   9   7   39.35   14.71
   0   9   8   74.09   12.38
   0  -9  -8   77.51   16.69
   0  -9  -9   34.57   17.29
   0   9   9   30.10   16.69
   0   9  10    5.07   18.05
   0  -9 -10   41.91   20.89
   0 -10   0  114.09   13.85
   0  10   0  137.93   13.58
   0 -10   0  132.88   12.09
   0 -10   0   98.37   12.55
   0  10   1   57.09   12.47
   0 -10  -1   77.10   11.88
   0 -10  -1   44.19    8.06
   0 -10  -1   54.69   12.32
   0  10   2   18.34   11.68
   0 -10  -2    7.39   10.20
   0 -10  -2   10.62    7.24
   0  10   3   10.18   12.25
   0 -10  -3   29.32   11.08
   0 -10  -3   18.89   11.36
   0  10   4   27.27   13.86
   0 -10  -4   27.71   12.83
   0 -10  -4   54.16   13.62
   0  10   5   49.50   14.15
   0 -10  -5   25.34   14.00
   0 -10  -5   -2.87   11.33
   0  10   6   55.71   16.67
   0 -10  -6   61.61   15.20
   0  10   7   93.25   14.66
   0 -10  -7   80.86   13.76
   0  10   8   22.76   19.07
   0 -10  -8   58.23   18.64
   0 -11   0   74.61   12.80
   0 -11   0   59.07   15.71
   0 -11  -1   26.56   12.32
   0 -11  -1    7.41    9.53
   0  11   2   18.64   15.09
   0 -11  -2    3.70   12.28
   0 -11  -2   -2.45   13.62
   0  11   3    6.34   15.63
   0 -11  -3    1.33   13.12
   0 -11  -3   -8.99   14.10
   0  11   4   40.74   17.36
   0 -11  -4   43.39   15.45
   0 -11  -4   18.50   11.29
   0  11   5   96.18   19.57
   0 -11  -5  118.94   18.56
   0 -11  -5   75.68   19.71
   0  11   6   66.04   19.98
   0 -11  -6   92.90   18.98
   0 -11  -6   74.67   18.94
   0 -12   0   -2.97   13.37
   0 -12   0  -13.11   16.84
   0 -12  -1   16.34   13.66
   0 -12  -1   23.19   17.16
   1 -11   1   -2.69   14.66
   1 -11   1   -9.57   14.80
   1 -11   2   11.14   11.73
   1 -11   2  -13.04   13.04
   1 -11   2    2.83   15.62
   1 -11   3   13.49   13.93
   1 -11   3    0.00   13.96
   1 -11   3    5.05   16.33
   1 -11   4    9.65   13.39
   1 -11   4   -2.32   15.94
   1 -10   1    6.75   10.05
   1 -10   1    5.15    9.82
   1 -10   1   -5.40   11.25
  -1  10  -1   14.40   11.85
   1 -10   2   58.36   11.06
   1 -10   2   45.71   11.76
   1 -10   2   48.35   12.84
  -1  10  -2   54.63   13.44
   1 -10   3   65.98   13.16
   1 -10   3   31.17   13.18
   1 -10   3   55.10   13.27
   1 -10   4  126.03   12.74
   1 -10   4   65.06   11.89
   1 -10   5   78.21   12.31
   1 -10   5   53.80   16.77
   1 -10   6    7.99    7.99
   1 -10   6   -4.45   16.51
   1 -10   7   14.63    9.48
   1 -10   7   47.16   19.09
   1  -9   1  140.75   14.05
   1  -9   1  128.34   11.64
   1  -9   1  103.71   12.31
   1  -9   1  115.73   12.53
  -1   9  -1  127.59   12.99
   1  -9   2  244.23   15.32
   1  -9   2  177.74   16.71
  -1   9  -2  247.98   17.40
   1  -9   3  182.93   13.65
   1  -9   3  127.05   12.65
   1  -9   3  147.91   14.13
  -1   9  -3  186.64   13.81
   1  -9   4   54.22    9.81
   1  -9   4   46.81    9.41
   1  -9   5   18.93    8.90
   1  -9   5   -1.31    9.20
   1  -9   6   -2.97    6.21
   1  -9   6    2.78    9.31
   1  -9   7    4.35    7.72
   1  -9   7   20.44   12.33
   1  -9   8   71.13    9.69
   1  -9   8   44.72   14.33
   1  -8   1  297.10   15.81
   1  -8   1  281.04   16.78
   1  -8   1  239.77   18.24
   1  -8   1  278.17   16.34
  -1   8  -1  334.44   17.60
   1  -8   2  137.54   12.78
   1  -8   2  163.02   11.84
   1  -8   2  121.82   12.72
   1  -8   2  128.76   11.93
  -1   8  -2  163.92   10.35
  -1   8  -2  107.82   10.06
   1  -8   3   96.47   10.32
   1  -8   3  107.11    8.87
   1  -8   3  100.14   10.69
  -1   8  -3  108.75   10.20
  -1   8  -3   78.61    8.59
   1  -8   4   49.79    8.36
   1  -8   4   55.93    6.93
   1  -8   4   29.97    8.09
   1  -8   4   30.43    7.20
  -1   8  -4   27.89    7.05
  -1   8  -4   30.06    8.31
   1  -8   5   14.41    7.35
  -1   8  -5    9.94    7.64
   1  -8   6   56.79    6.44
   1  -8   6   48.77   13.54
   1  -8   7   71.40    8.42
   1  -8   7   54.75   14.78
   1  -8   8   53.00    9.16
   1  -8   9   50.46    9.17
   1  -8   9   32.23   12.70
   1  -8  10   24.60   20.75
   1  -7   1  201.70   13.56
   1  -7   1  196.32   10.87
   1  -7   1  184.12   12.41
   1  -7   1  178.48   12.22
  -1   7  -1  228.68   12.11
  -1   7  -1  209.00   14.58
   1  -7   2  153.80   10.30
   1  -7   2  154.06    9.76
   1  -7   2  121.38   11.00
   1  -7   2  119.06    9.55
  -1   7  -2  164.03   11.42
  -1   7  -2  139.42   10.71
  -1   7  -2  127.79    9.80
   1  -7   3   49.69    6.56
   1  -7   3   36.66    5.55
   1  -7   3   43.89    8.21
   1  -7   3   28.87    7.07
  -1   7  -3   36.51    6.74
  -1   7  -3   58.37    7.42
  -1   7  -3   31.30    5.27
   1  -7   4   36.69    6.38
   1  -7   4   37.66    6.48
  -1   7  -4   30.60    6.33
  -1   7  -4   28.26    9.27
  -1   7  -4   22.14    5.77
   1  -7   5   21.68    6.10
   1  -7   5   27.27    5.35
   1  -7   5   -4.61    8.53
  -1   7  -5   21.93    5.49
  -1   7  -5    9.65    6.13
   1  -7   6  106.00    7.81
   1  -7   6   90.70    8.58
   1  -7   6   58.26   10.55
  -1   7  -6   92.60    8.63
  -1   7  -6   62.85    9.32
   1  -7   7  130.62    8.73
   1  -7   7   74.41   14.03
  -1   7  -7  122.22    9.68
   1  -7   8   45.51    6.92
   1  -7   8   24.76   14.22
   1  -7   9    8.32    6.57
   1  -7   9   19.86   11.92
   1  -7  10   20.75    7.92
   1  -7  10   37.91   17.49
   1  -7  11   -3.71   19.49
   1  -6   1   10.18    5.53
   1  -6   1   15.01    4.25
   1  -6   1   11.40    5.17
  -1   6  -1   20.93    5.01
  -1   6  -1   13.82    4.95
   1  -6   2   -0.86    5.17
   1  -6   2   -5.75    3.79
   1  -6   2    1.51    4.68
  -1   6  -2    5.60    4.24
  -1   6  -2   -3.16    4.60
  -1   6  -2    1.80    3.15
   1  -6   3   10.73    5.01
   1  -6   3    3.30    4.49
   1  -6   3   17.78    5.58
  -1   6  -3    6.44    5.09
  -1   6  -3    2.27    6.06
  -1   6  -3    0.91    3.32
  -1   6  -3    6.72    5.01
   1  -6   4   42.94    6.33
   1  -6   4   34.53    4.57
   1  -6   4   41.07    8.64
  -1   6  -4   33.65    4.71
  -1   6  -4   30.45    5.75
  -1   6  -4   41.80    8.07
  -1   6  -4   19.65    4.73
   1  -6   5  234.47   11.65
   1  -6   5  222.15   10.92
   1  -6   5  174.92   14.10
  -1   6  -5  249.10   11.68
  -1   6  -5  212.53   12.19
  -1   6  -5  207.35   15.79
  -1   6  -5  166.80   12.77
   1  -6   6  283.95   12.84
   1  -6   6  274.97   16.59
   1  -6   6  240.31   19.25
  -1   6  -6  315.52   14.45
  -1   6  -6  245.01   15.82
  -1   6  -6  253.94   16.03
   1  -6   7  162.85    9.39
   1  -6   7  187.31   11.88
  -1   6  -7  181.47   11.54
   1  -6   8   24.32    5.80
   1  -6   8    8.63   11.17
  -1   6  -8   23.16    5.80
   1  -6   9    7.79    6.03
   1  -6   9   -0.50    8.54
   1  -6  10   -4.20    6.74
   1  -6  10   16.03   15.04
   1  -6  11   58.83    9.53
   1  -6  11   40.36   13.35
   1  -6  12   28.17   20.01
   1  -5   1   24.67    4.50
   1  -5   1   31.17    3.96
   1  -5   1   21.62    4.57
  -1   5  -1   22.50    3.96
  -1   5  -1   14.22    3.77
   1  -5   2   17.18    3.18
   1  -5   2   16.22    3.64
   1  -5   2   13.62    4.24
  -1   5  -2   20.32    3.79
  -1   5  -2   17.03    3.90
  -1   5  -2   21.65    5.15
  -1   5  -2   15.79    3.31
   1  -5   3  235.35   13.32
   1  -5   3  229.19   11.20
   1  -5   3  231.99   12.67
  -1   5  -3  251.45   10.35
  -1   5  -3  226.64   12.30
  -1   5  -3  210.94   11.67
  -1   5  -3  236.26   12.29
   1  -5   4  386.32   16.09
   1  -5   4  364.88   15.37
   1  -5   4  361.58   19.02
  -1   5  -4  363.85   14.80
  -1   5  -4  355.87   17.07
  -1   5  -4  329.26   16.57
  -1   5  -4  344.81   16.47
   1  -5   5  347.60   15.27
  -1   5  -5  342.68   15.15
  -1   5  -5  336.57   15.40
  -1   5  -5  287.71   17.88
  -1   5  -5  295.86   16.04
   1  -5   6  121.71    6.99
   1  -5   6  138.65    8.31
   1  -5   6   94.97   11.48
  -1   5  -6  122.85    7.98
  -1   5  -6  129.06    9.21
  -1   5  -6  101.51   10.65
   1  -5   7   21.66    4.77
   1  -5   7   28.10    5.53
   1  -5   7   35.64    8.10
  -1   5  -7   18.05    4.48
  -1   5  -7   18.78    6.47
  -1   5  -8   24.54    5.41
   1  -5   8   32.14    4.40
   1  -5   8   42.93    6.27
   1  -5   8   18.93    7.68
   1  -5   9   67.25    6.56
   1  -5   9   29.16   11.97
  -1   5  -9   57.32    7.58
   1  -5  10   71.52    7.57
   1  -5  10   40.22   11.64
   1  -5  11   73.74    8.48
   1  -5  11   48.26   17.67
   1  -5  12  142.53   13.03
   1  -5  12   91.95   17.87
   1  -4   1  629.50   22.92
   1  -4   1  636.13   27.71
   1  -4   1  557.01   21.86
  -1   4  -1  687.78   27.93
  -1   4  -1  576.69   23.15
   1  -4   2  653.77   23.94
   1  -4   2  669.64   27.21
   1  -4   2  634.24   26.86
  -1   4  -2  731.23   28.78
  -1   4  -2  628.16   24.49
  -1   4  -2  642.69   25.27
  -1   4  -2  639.76   26.00
   1  -4   3  124.36    7.52
   1  -4   3  120.99    6.58
  -1   4  -3  119.06    6.58
  -1   4  -3  128.84    7.22
  -1   4  -3  114.46    6.71
  -1   4  -3  118.68    6.64
  -1   4  -4  205.64   11.55
   1  -4   4  233.45   11.62
   1  -4   4  223.50    9.60
   1  -4   4  203.92   14.46
  -1   4  -4  224.08    9.46
  -1   4  -4  213.24   11.90
  -1   4  -4  171.81   11.62
   1  -4   5  103.48    6.53
   1  -4   5  123.81    7.58
  -1   4  -5  110.53    6.54
  -1   4  -5  103.93    7.09
  -1   4  -5  111.06    9.63
   1  -4   6   54.30    4.36
   1  -4   6   85.03    6.24
   1  -4   6   55.31    5.63
  -1   4  -6   64.12    5.37
  -1   4  -6   55.94    6.22
  -1   4  -6   58.86    8.18
   1  -4   7   83.04    6.04
   1  -4   7  108.32    6.81
   1  -4   7   82.34   10.41
   1  -4   7   65.28    7.34
  -1   4  -7   91.65    6.63
  -1   4  -7   94.06    7.43
  -1   4  -7   58.56   10.01
   1  -4   8  298.11   13.47
   1  -4   8  352.85   15.42
   1  -4   8  216.90   17.93
   1  -4   8  245.19   16.80
  -1   4  -8  321.28   16.40
  -1   4  -8  278.58   15.88
   1  -4   9  185.55   13.24
   1  -4   9  204.14   10.95
   1  -4   9  227.90   12.68
   1  -4   9  151.40   13.77
  -1   4  -9  195.63   12.11
   1  -4  10  116.54   13.32
   1  -4  10  163.47    9.84
  -1   4 -10  138.19   12.80
   1  -4  11   64.49    8.02
   1  -4  11   43.20   13.92
   1  -4  11   79.80   12.00
   1  -4  12   14.30    8.71
   1  -4  12    9.80   11.41
   1  -4  12   21.43   12.86
   1  -4  13   44.76   11.12
   1  -4  13   -2.52   18.59
   1  -4  13   10.57   16.09
   1  -3   1  238.08    9.38
   1  -3   1  235.16    9.89
   1  -3   1  221.62   10.60
  -1   3  -1  258.17   10.07
  -1   3  -1  218.97    9.36
  -1   3  -1  243.50   10.54
   1  -3   2  761.37   27.43
   1  -3   2  671.26   23.72
   1  -3   2  644.40   24.35
  -1   3  -2  733.87   25.57
  -1   3  -2  718.85   27.08
  -1   3  -2  704.67   25.55
  -1   3  -2  681.88   25.29
   1  -3   3  459.13   18.47
   1  -3   3  418.32   17.41
  -1   3  -3  452.86   16.03
  -1   3  -3  413.84   16.16
  -1   3  -3  387.74   15.97
  -1   3  -3  375.69   16.23
   1  -3   4  239.28   11.27
   1  -3   4  312.55   11.66
   1  -3   4  245.55   12.33
  -1   3  -4  272.45   11.32
  -1   3  -4  257.36   10.99
  -1   3  -4  256.38   12.88
   1  -3   5  277.30   11.22
   1  -3   5  339.13   12.68
   1  -3   5  270.39   14.83
   1  -3   5  282.28   14.19
  -1   3  -5  304.21   11.83
  -1   3  -5  280.72   12.75
  -1   3  -5  284.12   15.63
   1  -3   6  234.70    9.99
   1  -3   6  278.95   11.24
   1  -3   6  231.46   14.00
   1  -3   6  243.85   13.34
  -1   3  -6  244.36   10.44
  -1   3  -6  223.50   10.84
  -1   3  -6  226.87   12.96
   1  -3   7  201.73    9.33
   1  -3   7  233.87   10.69
   1  -3   7  195.45   12.94
  -1   3  -7  214.74   12.84
  -1   3  -7  221.63   10.96
  -1   3  -7  179.16   14.76
   1  -3   8  208.39    9.72
   1  -3   8  250.16   11.18
   1  -3   8  151.67   13.43
   1  -3   8  178.01   12.51
  -1   3  -8  219.13   13.12
  -1   3  -8  217.54   12.12
  -1   3  -8  156.38   13.37
   1  -3   9  203.01   10.71
   1  -3   9  240.38   11.88
   1  -3   9  170.41   14.27
   1  -3   9  190.58   13.67
  -1   3  -9  210.54   11.61
  -1   3  -9  229.38   13.30
  -1   3 -10   30.63   13.46
   1  -3  10   66.97    6.73
   1  -3  10   66.85    7.57
   1  -3  10   29.54   10.79
   1  -3  10   51.63   10.15
  -1   3 -10   57.38    8.39
   1  -3  11    8.31   11.25
   1  -3  11   38.47    6.78
   1  -3  11   14.76    9.47
   1  -3  12    5.43    6.83
   1  -3  12    8.63    9.59
   1  -3  12   -0.80   11.51
   1  -3  13   26.67    8.74
   1  -3  13   13.48   17.55
   1  -3  13    1.75   13.84
   1  -2   1  855.27   28.63
   1  -2   1  805.10   31.67
   1  -2   1  761.74   28.90
  -1   2  -1  873.29   29.36
  -1   2  -1  804.06   29.30
  -1   2  -1  783.58   29.02
   1  -2   2  570.94   21.52
   1  -2   2  522.99   21.17
  -1   2  -2  572.29   20.80
  -1   2  -2  536.28   19.84
  -1   2  -2  502.23   19.95
   1  -2   3 1227.35   41.59
   1  -2   3 1061.81   41.25
  -1   2  -3 1196.23   38.17
  -1   2  -3 1136.59   38.66
  -1   2  -3 1039.94   40.98
   1  -2   4  355.14   13.50
   1  -2   4  410.14   15.08
   1  -2   4  348.72   16.16
  -1   2  -4  389.11   15.26
  -1   2  -4  377.67   14.16
   1  -2   5  172.47    7.47
   1  -2   5  173.68    7.34
   1  -2   5  190.39   11.42
   1  -2   5  153.05    8.52
  -1   2  -5  183.34    9.37
  -1   2  -5  170.75    7.76
   1  -2   6  275.96   11.06
   1  -2   6  293.52   11.20
   1  -2   6  272.18   15.11
   1  -2   6  257.83   12.80
  -1   2  -6  289.93   12.25
  -1   2  -6  250.19   11.51
  -1   2  -7  263.46   13.26
   1  -2   7  285.68   11.60
   1  -2   7  303.11   12.54
   1  -2   7  255.32   15.08
   1  -2   7  246.17   15.02
  -1   2  -7  297.81   13.38
   1  -2   8   40.71    4.53
   1  -2   8   50.55    5.66
   1  -2   8   24.17    5.93
  -1   2  -8   38.45    5.14
  -1   2  -8   37.88    5.37
   1  -2   9   53.46    5.79
   1  -2   9   43.00    5.77
   1  -2   9   37.75    7.22
   1  -2   9   53.47    7.22
  -1   2  -9   40.71    6.69
  -1   2  -9   40.20    6.04
   1  -2  10   71.34    7.53
   1  -2  10   79.17    8.32
   1  -2  10   44.34    7.76
   1  -2  10   48.14    8.65
  -1   2 -10   58.17    7.98
  -1   2 -10   28.55   10.85
   1  -2  11    9.90    8.78
  -1   2 -11   19.43    8.95
   1  -2  11   29.61    6.79
   1  -2  11   26.04   11.65
   1  -2  12   56.46    8.24
   1  -2  12   41.70   13.01
   1  -2  12   31.53   11.79
   1  -2  13   56.27   10.12
   1  -2  13   19.26   11.50
   1  -2  13   26.03   13.97
   1  -2  14   58.13   13.97
   1  -2  14   40.33   20.40
   1  -2  14   49.46   18.65
   1  -1   1   25.45    2.09
   1  -1   1   25.55    2.24
  -1   1  -1   26.44    2.09
  -1   1  -1   24.41    1.94
  -1   1  -1   24.81    1.65
  -1   1  -2    2.63    1.46
   1  -1   2    4.82    1.61
  -1   1  -2    4.07    1.45
   1  -1   3  395.37   14.38
   1  -1   3  416.97   14.46
  -1   1  -3  440.34   15.74
  -1   1  -3  406.39   14.99
   1  -1   4  531.26   19.41
   1  -1   4  568.60   19.25
  -1   1  -4  479.37   18.65
  -1   1  -4  567.98   20.20
   1  -1   5  435.60   15.94
   1  -1   5  436.78   15.03
   1  -1   5  474.07   21.89
   1  -1   5  402.84   17.34
  -1   1  -5  395.58   15.47
  -1   1  -5  479.01   21.44
   1  -1   6  311.15   12.73
   1  -1   6  310.03   11.72
   1  -1   6  319.34   16.02
   1  -1   6  312.96   14.50
  -1   1  -6  289.59   13.69
  -1   1  -6  346.57   14.11
   1  -1   7  107.00    6.11
   1  -1   7  103.68    6.00
   1  -1   7  110.85    9.35
  -1   1  -7   88.30    6.11
   1  -1   7   91.33    7.25
  -1   1  -7  114.12    8.83
   1  -1   8   20.11    4.27
   1  -1   8   19.84    4.38
   1  -1   8   17.27    6.27
   1  -1   8   14.09    4.96
  -1   1  -8   21.07    6.16
  -1   1  -8   23.31    4.73
   1  -1   9    0.77    3.83
   1  -1   9    6.81    6.48
   1  -1   9    3.36    5.59
  -1   1  -9   -3.69    6.83
  -1   1  -9    5.67    6.43
  -1   1  -9   -7.75    8.40
   1  -1   9    3.14    5.73
   1  -1  10  107.14    8.36
   1  -1  10   98.12    7.99
   1  -1  10   69.30   10.62
   1  -1  10   86.00   10.55
  -1   1 -10  105.75   10.97
  -1   1 -10   55.35   11.36
   1  -1  11  114.72    9.34
   1  -1  11   94.87    9.50
   1  -1  11   93.70   12.67
   1  -1  11  113.51   12.77
  -1   1 -11  106.22   11.18
   1  -1  12  104.47    9.98
   1  -1  12   64.42   11.15
   1  -1  12   62.08   10.97
   1  -1  13   71.59   11.18
   1  -1  13   31.80   14.90
   1  -1  13   69.31   14.89
   1  -1  14   17.75   11.11
   1  -1  14   29.66   17.32
   1  -1  14  -24.59   17.34
   1   0   0   74.84    3.56
   1   0   0   41.62    2.84
   1   0   0   14.63    1.90
  -1   0   0    7.73    1.34
  -1   0   0   33.10    2.65
  -1   0   0    0.15    0.46
   1   0   1    1.90    1.02
   1   0   1    1.57    1.00
  -1   0  -1    1.17    1.02
  -1   0  -1    1.28    1.14
   1   0   2  529.00   19.82
   1   0   2  572.72   19.29
  -1   0  -2  519.97   19.45
  -1   0  -2  575.78   20.05
   1   0   3  648.72   23.70
   1   0   3  688.29   23.20
  -1   0  -3  622.52   24.66
  -1   0  -3  717.14   25.87
   1   0   4  602.40   20.88
   1   0   4  562.13   22.10
  -1   0  -4  515.75   19.15
  -1   0  -4  616.23   25.74
   1   0   5  255.47   10.67
   1   0   5  251.99   10.17
   1   0   5  243.56   13.61
  -1   0  -5  225.87   10.24
  -1   0  -5  265.81   10.99
   1   0   6   92.94    5.54
   1   0   6   93.37    5.97
  -1   0  -6   83.42    5.81
  -1   0  -6   91.42    7.20
   1   0   7    0.31    3.37
   1   0   7    3.36    3.22
   1   0   7    7.67    4.77
  -1   0  -7    0.14    3.92
  -1   0  -7    3.83    3.52
   1   0   8   55.04    5.55
   1   0   8   58.93    5.76
   1   0   8   47.82    6.87
  -1   0  -8   40.22    5.74
  -1   0  -8   52.27    5.85
  -1   0  -8   43.29    5.55
   1   0   9  132.67    8.55
   1   0   9  127.15    8.60
   1   0   9  104.77    9.89
   1   0   9   95.09    9.72
  -1   0  -9  126.32    9.98
  -1   0  -9  114.31   11.30
  -1   0  -9   85.46    8.92
   1   0  10   93.12    7.93
   1   0  10   66.43    7.83
   1   0  10   58.20    9.34
   1   0  10   67.82    7.73
  -1   0 -10   85.23   10.39
  -1   0 -10   41.96    7.05
   1   0  11  206.53   14.07
   1   0  11  193.92   12.41
   1   0  11  137.01   13.94
   1   0  11  147.83   15.40
  -1   0 -11  194.76   17.44
   1   0  12   77.30   10.56
   1   0  12   63.40   12.69
   1   0  12   76.45   13.23
  -1   0 -12  103.64   13.82
   1   0  13   49.14   10.36
   1   0  13    6.52    9.40
   1   0  13   25.21   14.43
   1   0  14   12.75   11.83
   1   0  14   17.86   16.07
   1   0  14   13.73   17.51
   1   1   0  391.71   15.28
   1   1   0  459.01   14.73
  -1  -1   0  319.39   11.40
  -1  -1   0  300.79   12.09
  -1  -1   0  189.21   11.00
   1   1   1 1359.79   49.19
   1   1   1 1518.47   49.28
  -1  -1  -1 1351.84   46.61
  -1  -1  -1 1443.65   49.10
   1   1   2 1003.07   37.81
   1   1   2 1133.27   39.76
  -1  -1  -2 1007.22   36.35
  -1  -1  -2 1100.18   37.31
   1   1   3  123.94    6.04
   1   1   3  123.65    5.93
  -1  -1  -3  107.99    6.33
  -1  -1  -3  126.83    6.65
   1   1   4   85.90    5.25
   1   1   4  111.19    5.62
  -1  -1  -4   87.27    5.00
  -1  -1  -4   92.95    5.11
   1   1   5   35.65    3.70
   1   1   5   38.54    3.50
   1   1   5   32.53    3.51
  -1  -1  -5   25.06    3.63
  -1  -1  -5   29.51    3.54
   1   1   6    7.40    2.93
   1   1   6    8.54    3.47
   1   1   6    7.54    3.94
  -1  -1  -6    3.62    3.47
  -1  -1  -6    4.01    3.08
   1   1   7   93.83    6.22
   1   1   7   93.55    7.29
   1   1   7  101.46    7.10
  -1  -1  -7   89.65    8.29
  -1  -1  -7  104.50    9.15
  -1  -1  -7   86.31    6.84
   1   1   8  308.93   13.81
   1   1   8  310.09   14.61
   1   1   8  265.96   14.64
  -1  -1  -8  245.53   16.35
  -1  -1  -8  330.15   13.84
  -1  -1  -8  229.65   14.38
   1   1   9  495.47   19.15
   1   1   9  518.34   23.63
   1   1   9  395.56   21.70
  -1  -1  -9  416.64   25.86
  -1  -1  -9  517.50   20.40
   1   1  10  193.00   12.21
   1   1  10  199.30   13.97
   1   1  10  161.03   12.72
  -1  -1 -10  193.63   15.61
   1   1  11   78.98    9.18
   1   1  11   83.50   10.25
   1   1  11   60.97    8.55
   1   1  11   50.25   10.83
  -1  -1 -11   69.21   11.50
   1   1  12   52.79    7.14
   1   1  12   38.85   10.67
   1   1  12   39.97    9.80
   1   1  13    3.24    9.25
   1   1  13   -1.35   11.98
   1   1  13   -4.15   13.24
   1   1  14   23.41   13.77
   1   1  14   24.72   18.07
   1   2   0  134.23    5.78
   1   2   0  151.49    5.93
  -1  -2   0  138.93    5.47
  -1  -2   0  145.43    5.95
  -1  -2   0  144.11    6.29
  -1  -2   0  129.31    6.58
   1   2   1 1679.24   61.33
   1   2   1 1852.32   59.30
  -1  -2  -1 1678.85   59.03
  -1  -2  -1 1841.74   60.92
   1   2   2  883.24   33.27
   1   2   2  937.63   33.38
  -1  -2  -2  871.49   32.23
  -1  -2  -2  934.59   33.97
   1   2   3   68.45    4.20
   1   2   3   68.62    4.19
  -1  -2  -3   58.54    4.92
  -1  -2  -3   65.21    4.50
   1   2   4   -0.46    2.32
   1   2   4   -1.93    2.37
   1   2   4   -0.88    1.76
  -1  -2  -4   -0.59    2.67
  -1  -2  -4    2.16    2.78
   1   2   5   99.03    6.24
   1   2   5  113.50    6.44
  -1  -2  -5   97.52    6.13
  -1  -2  -5   99.96    7.94
   1   2   6  155.17    8.31
   1   2   6  184.62    8.74
   1   2   6  154.43    8.46
  -1  -2  -6  149.27    9.12
  -1  -2  -6  170.39   10.94
   1   2   7  593.59   23.58
   1   2   7  650.90   23.14
   1   2   7  554.04   24.46
  -1  -2  -7  585.36   26.74
  -1  -2  -7  637.94   25.47
   1   2   8  743.09   30.71
   1   2   8  822.07   29.47
  -1  -2  -8  673.96   32.16
  -1  -2  -8  779.53   29.38
   1   2   9  270.57   14.79
   1   2   9  293.21   15.80
   1   2   9  220.31   13.50
  -1  -2  -9  282.25   18.51
   1   2  10   99.59    8.91
   1   2  10  100.83   11.00
   1   2  10   62.09    8.84
  -1  -2 -10   93.99   10.61
   1   2  11   -2.17    7.30
   1   2  11   12.74   10.07
   1   2  11   -2.74    7.16
  -1  -2 -11    4.97    9.63
   1   2  12    5.26    8.97
   1   2  12   -1.80    6.45
  -1  -2 -12   -9.74   12.06
   1   2  13   51.33   11.69
   1   2  13   32.76   15.26
  -1  -2 -13   32.12   13.68
   1   2  14   83.68   14.66
   1   2  14   71.08   17.70
   1   3   0  972.78   36.68
   1   3   0 1022.75   34.46
   1   3   0  894.43   33.86
   1   3   0  881.79   34.50
  -1  -3   0  958.11   35.20
  -1  -3   0 1056.42   37.89
  -1  -3   0 1018.77   36.36
   1   3   1  667.39   23.54
   1   3   1  708.46   25.05
   1   3   1  614.14   23.54
  -1  -3  -1  672.13   25.12
  -1  -3  -1  722.29   26.35
   1   3   2  227.27   11.15
   1   3   2  242.04   10.64
  -1  -3  -2  238.11   10.78
  -1  -3  -2  233.01   11.77
   1   3   3  193.00    8.67
   1   3   3  208.80    9.67
  -1  -3  -3  199.32   11.13
  -1  -3  -3  212.25    9.00
   1   3   4  202.91    9.31
   1   3   4  222.85   10.56
   1   3   4  196.70    8.09
  -1  -3  -4  194.19   12.14
  -1  -3  -4  215.04    9.63
   1   3   5  310.69   14.98
   1   3   5  327.67   14.71
   1   3   5  284.08   12.76
  -1  -3  -5  314.34   15.12
  -1  -3  -5  335.60   18.24
   1   3   6  706.76   27.04
   1   3   6  778.74   27.82
   1   3   6  638.90   27.14
  -1  -3  -6  690.25   27.46
  -1  -3  -6  747.93   27.25
   1   3   7  461.87   17.51
   1   3   7  471.74   17.98
   1   3   7  411.78   18.66
  -1  -3  -7  427.86   20.06
  -1  -3  -7  491.37   18.32
   1   3   8  197.16   10.26
   1   3   8  200.26   12.61
   1   3   8  160.06    9.84
  -1  -3  -8  167.14   13.75
  -1  -3  -8  198.72   11.65
   1   3   9   24.18    6.24
   1   3   9   29.87    7.81
   1   3   9   21.85    5.50
  -1  -3  -9   22.77    7.49
   1   3  10   32.69    7.32
   1   3  10   25.57    9.93
  -1  -3 -10   21.48    9.19
   1   3  11   32.73    6.83
  -1  -3 -11   44.21    8.38
   1   3  12   33.95   10.50
  -1  -3 -12   28.86   13.43
   1   3  13  106.65   15.21
  -1  -3 -13   59.92   15.64
   1   3  14   85.34   12.79
   1   3  14   45.77   21.93
   1   4   0  751.62   26.37
   1   4   0  828.66   28.60
   1   4   0  709.74   29.74
   1   4   0  720.82   29.43
  -1  -4   0  756.92   28.43
  -1  -4   0  791.80   27.93
  -1  -4   0  788.79   29.98
   1   4   1  114.49    6.24
   1   4   1  123.10    6.72
   1   4   1  106.40    6.89
  -1  -4  -1  112.47    5.95
  -1  -4  -1  114.79    5.79
   1   4   2   76.53    5.15
   1   4   2   85.33    5.27
  -1  -4  -2   75.22    4.95
  -1  -4  -2   76.22    4.84
   1   4   3  266.09   11.21
   1   4   3  298.41   13.26
  -1  -4  -3  280.12   12.48
  -1  -4  -3  303.03   12.18
   1   4   4  474.26   19.32
   1   4   4  527.47   22.14
  -1  -4  -4  459.79   20.07
  -1  -4  -4  500.54   19.51
   1   4   5  292.90   13.43
   1   4   5  307.52   14.83
  -1  -4  -5  274.85   16.41
  -1  -4  -5  298.20   12.97
   1   4   6  365.10   17.84
   1   4   6  384.38   18.82
  -1  -4  -6  334.71   18.73
  -1  -4  -6  370.09   18.15
   1   4   7  190.45   10.86
   1   4   7  204.43   11.51
  -1  -4  -7  198.55   11.50
  -1  -4  -7  224.46   13.22
   1   4   8   12.32    5.77
   1   4   8    9.51    7.40
  -1  -4  -8    9.20    7.17
   1   4   9   23.67    5.92
   1   4   9   19.05    9.22
  -1  -4  -9   21.18    6.70
   1   4  10   52.67    7.63
  -1  -4 -10   43.66    8.71
   1   4  11   73.66    9.31
  -1  -4 -11   71.96    9.77
   1   4  12   86.63   11.26
  -1  -4 -12   76.94   12.18
   1   4  13   40.78   10.55
  -1  -4 -13   29.02   12.07
   1   5   0  106.61    7.13
   1   5   0  125.29    6.38
   1   5   0   96.37    8.10
  -1  -5   0  114.46    6.68
  -1  -5   0  116.98    6.55
  -1  -5   0  129.31    8.43
   1   5   1   10.36    3.05
   1   5   1   14.98    3.75
   1   5   1    5.92    4.21
  -1  -5  -1   12.17    3.28
  -1  -5  -1   13.56    3.05
  -1  -5  -1   14.09    3.83
   1   5   2   56.63    4.47
   1   5   2   70.56    5.47
   1   5   2   51.97    5.05
  -1  -5  -2   51.18    5.45
  -1  -5  -2   59.86    4.33
   1   5   3  285.67   13.29
   1   5   3  289.95   15.51
  -1  -5  -3  260.97   15.16
  -1  -5  -3  296.92   14.37
   1   5   4  499.09   20.32
   1   5   4  502.40   23.82
  -1  -5  -4  508.99   21.14
  -1  -5  -4  510.84   21.25
   1   5   5  494.71   23.72
   1   5   5  526.55   24.54
  -1  -5  -5  506.41   21.22
  -1  -5  -5  502.62   26.79
   1   5   6  113.74    8.12
   1   5   6  121.69    9.37
  -1  -5  -6  117.28   10.26
  -1  -5  -6  130.18    9.68
   1   5   7   37.42    6.99
   1   5   7   11.69    7.74
  -1  -5  -7   36.28    9.27
  -1  -5  -7   44.41    7.62
   1   5   8    3.26    4.97
   1   5   8   14.26    6.83
  -1  -5  -8    1.09    7.61
   1   5   9   15.04    8.84
  -1  -5  -9   10.86    9.15
   1   5  10   59.11    9.14
  -1  -5 -10   70.09    9.61
   1   5  11   91.86   12.36
  -1  -5 -11  104.04   14.67
   1   5  12  133.65   17.06
  -1  -5 -12   88.29   17.49
   1   5  13   16.74   15.22
  -1  -5 -13   26.78   18.26
   1   6   0   40.13    4.18
   1   6   0   33.85    4.91
   1   6   0   23.81    6.71
  -1  -6   0   39.70    4.60
  -1  -6   0   39.24    4.17
  -1  -6   0   43.96    6.06
   1   6   1  155.25    8.67
   1   6   1  174.96   10.04
   1   6   1  132.31   10.35
  -1  -6  -1  147.74    9.38
  -1  -6  -1  161.11    8.38
  -1  -6  -1  157.36    9.62
   1   6   2  308.49   15.53
   1   6   2  345.10   17.67
   1   6   2  276.77   16.67
  -1  -6  -2  342.13   17.05
  -1  -6  -2  302.42   15.67
   1   6   3  330.14   13.98
   1   6   3  316.34   17.38
   1   6   3  277.86   15.84
  -1  -6  -3  319.61   15.86
  -1  -6  -3  321.91   15.17
   1   6   4  150.36    8.81
   1   6   4  161.15   12.02
  -1  -6  -4  156.66   10.94
  -1  -6  -4  165.21    9.28
   1   6   5   75.40    7.86
   1   6   5   77.86    9.11
  -1  -6  -5   82.32    7.74
  -1  -6  -5   76.78    8.78
   1   6   6    5.54    4.62
   1   6   6   36.47    9.20
  -1  -6  -6   14.40    9.50
  -1  -6  -6    9.69    5.08
   1   6   7    3.54    5.24
  -1  -6  -7   -2.31    5.39
   1   6   8   97.89   10.67
  -1  -6  -8   80.47   10.35
   1   6   9  117.09   13.45
  -1  -6  -9  130.80   15.14
   1   6  10  112.87   11.27
  -1  -6 -10  100.11   11.88
   1   6  11   84.60   14.73
  -1  -6 -11   82.61   16.88
   1   6  12   41.78   15.86
  -1  -6 -12   29.43   17.69
   1   6  13   25.30   17.72
  -1  -6 -13   12.12   18.03
   1   7   0  145.62    7.91
   1   7   0  155.46    9.62
   1   7   0  102.60   11.72
  -1  -7   0  165.46    9.79
  -1  -7   0  153.15    9.24
  -1  -7   0  150.30   10.93
   1   7   1  327.06   13.82
   1   7   1  322.90   17.48
   1   7   1  274.79   17.79
  -1  -7  -1  364.28   16.16
  -1  -7  -1  307.43   14.81
  -1  -7  -1  321.16   16.36
   1   7   2  163.68   10.13
   1   7   2  165.72   12.05
   1   7   2  143.57   11.19
  -1  -7  -2  183.96   13.32
  -1  -7  -2  173.72   10.00
  -1  -7  -2  203.73   12.52
   1   7   3   14.76    4.52
   1   7   3   15.02    7.20
   1   7   3    6.13    4.90
  -1  -7  -3  -13.77    8.29
  -1  -7  -3   13.26    5.57
   1   7   4    7.87    4.54
  -1  -7  -4    4.82    9.03
  -1  -7  -4    4.84    4.54
   1   7   5    6.98    5.01
  -1  -7  -5   -2.79   10.22
  -1  -7  -5   11.54    7.29
   1   7   6   93.17   10.09
  -1  -7  -6   81.14   10.68
   1   7   7  158.64   14.12
  -1  -7  -7  171.30   16.56
   1   7   8  204.93   17.07
  -1  -7  -8  180.19   17.96
   1   7   9  127.37   15.33
  -1  -7  -9  122.48   15.02
   1   7  10   10.98    9.31
  -1  -7 -10    9.61   10.53
   1   7  11   -6.85   14.91
  -1  -7 -11    3.80   16.74
   1   7  12    7.88   11.37
  -1  -7 -12   12.43   13.04
   1   8   0   77.29    8.55
   1   8   0  113.51   10.04
   1   8   0   52.71   11.16
  -1  -8   0   86.88    8.91
  -1  -8   0   89.34    7.68
  -1  -8   0   78.93    9.93
   1   8   1   71.40    8.28
   1   8   1   46.31   10.28
  -1  -8  -1  103.35    9.85
  -1  -8  -1   71.84    7.11
  -1  -8  -1   57.49    9.30
   1   8   2   51.73    8.17
   1   8   2   43.58    9.23
  -1  -8  -2   76.05    9.95
  -1  -8  -2   66.26    8.03
  -1  -8  -2   90.32    9.95
   1   8   3   24.72    7.75
   1   8   3   19.04    9.22
  -1  -8  -3   42.81   10.83
  -1  -8  -3   23.08    7.00
  -1  -8  -3   43.30    7.09
   1   8   4   56.51    8.84
  -1  -8  -4   74.02   13.14
  -1  -8  -4   68.47    9.14
   1   8   5  105.74   10.85
  -1  -8  -5  171.36   15.97
  -1  -8  -5  116.84   11.61
   1   8   6  109.05    9.85
  -1  -8  -6  101.23   12.08
   1   8   7  138.10   14.56
   1   8   8   35.79   12.84
  -1  -8  -8   14.80   12.38
   1   8   9   22.52   13.30
  -1  -8  -9   14.66   14.36
   1   8  10   24.94   11.34
  -1  -8 -10   35.21   12.10
   1   8  11   -3.77   16.90
  -1  -8 -11   -5.89   18.26
   1   9   0   88.75   10.30
  -1  -9   0   85.11   11.24
  -1  -9   0   88.16    9.56
  -1  -9   0   73.98   10.04
   1   9   1   25.40    8.08
   1   9   1   37.42   12.38
  -1  -9  -1   64.12   10.42
  -1  -9  -1   43.89    7.94
  -1  -9  -1   38.32    7.13
   1   9   2   46.63    6.78
   1   9   2   14.58   11.17
  -1  -9  -2   51.53   12.42
  -1  -9  -2   59.57    8.26
  -1  -9  -2   45.97   10.32
   1   9   3  105.29   12.14
   1   9   3   67.46   11.80
  -1  -9  -3  124.38   15.72
  -1  -9  -3  122.54   12.89
  -1  -9  -3  137.52   14.69
   1   9   4   74.66    8.32
  -1  -9  -4   53.96   10.07
  -1  -9  -4   66.36    8.49
   1   9   5   53.65   11.87
  -1  -9  -5   56.91   11.43
   1   9   6   61.95   12.95
  -1  -9  -6   56.46   12.50
   1   9   7   54.80   11.34
  -1  -9  -7   41.70   10.14
   1   9   8   30.74   10.45
  -1  -9  -8   20.59   14.03
   1   9   9   27.20   11.81
  -1  -9  -9    5.38   16.74
   1   9  10   57.88   13.93
  -1  -9 -10   34.70   14.37
   1  10   0   13.35    8.95
  -1 -10   0   24.78    8.22
  -1 -10   0   19.79    7.74
   1  10   1   -6.74   10.11
  -1 -10  -1   19.04    8.64
  -1 -10  -1    9.65   10.26
   1  10   2   23.42   10.54
  -1 -10  -2   26.64    9.81
  -1 -10  -2   -0.31   11.01
  -1 -10  -3  116.66   12.66
  -1 -10  -3  113.00   14.86
   1  10   4  122.15   15.90
  -1 -10  -4  146.32   15.49
  -1 -10  -4  152.33   18.65
   1  10   5   81.09   15.29
  -1 -10  -5   52.64   12.78
  -1 -10  -5   64.98   15.05
   1  10   6   51.40   15.59
  -1 -10  -6   40.97   14.26
   1  10   7  -12.07   16.19
  -1 -10  -7   17.66   15.01
   1  10   8    2.65   11.65
  -1 -10  -8    6.93   11.94
  -1 -11   0   28.03   10.86
  -1 -11   0   37.50   13.64
  -1 -11  -1   64.41   13.49
  -1 -11  -1   76.26   15.48
  -1 -11  -2  117.25   13.65
  -1 -11  -2  112.00   13.17
   1  11   3   60.90   14.30
  -1 -11  -3   78.09   13.73
  -1 -11  -3   54.00   16.53
   1  11   4   27.49   10.77
  -1 -11  -4   33.46   13.25
  -1 -11  -4   51.73   15.97
   1  11   5    9.16   12.94
  -1 -11  -5   20.64   15.41
  -1 -11  -5   20.39   16.60
   1  11   6   -3.93   12.80
  -1 -11  -6    6.11   10.91
  -1 -11  -6   -9.73   11.17
  -1 -12   0   73.42   16.17
  -1 -12   0   90.35   19.65
  -1 -12  -1   56.12   14.67
  -1 -12  -1   99.82   19.16
  -1 -12  -2   26.28   14.16
  -1 -12  -2   35.57   19.08
  -1 -12  -3   -3.93   14.10
  -1 -12  -3  -14.10   13.65
   2 -11   1   14.42   14.87
   2 -11   1    9.16   15.47
   2 -11   2    4.33   14.32
   2 -11   2    3.15   17.54
   2 -10   1  126.95   16.33
   2 -10   1   97.10   16.19
   2 -10   1  107.64   15.71
  -2  10  -1  168.86   17.56
   2 -10   2   50.71   13.21
   2 -10   2   44.83   15.06
   2 -10   2   53.57   13.86
  -2  10  -2   60.31   15.31
   2 -10   3   -5.80   13.98
   2 -10   3   24.26   14.27
   2 -10   4   23.06   11.46
   2 -10   4    3.49   15.69
   2 -10   5   23.90   15.07
   2 -10   5   12.03   18.20
   2  -9   1   42.07   12.42
   2  -9   1   35.14   10.39
   2  -9   1   35.87   10.30
  -2   9  -1   47.52    9.54
   2  -9   2   44.47    9.66
   2  -9   2   26.13    9.82
  -2   9  -2   34.82   12.52
   2  -9   3   18.25   10.47
  -2   9  -3   20.64    9.72
   2  -9   4   42.87   10.81
   2  -9   4   41.17   14.22
  -2   9  -4   33.11   10.50
   2  -9   5   85.03   12.60
   2  -9   5   30.37   16.00
   2  -9   6   60.92   10.27
   2  -9   6   29.37   11.46
   2  -9   7   31.98    9.86
   2  -8   1   19.18   11.20
   2  -8   1   39.03    8.66
   2  -8   1   33.58    8.36
  -2   8  -1   41.16   10.18
   2  -8   2   29.58   10.70
   2  -8   2   54.05    9.10
   2  -8   2   30.33    8.35
  -2   8  -2   41.49    9.40
   2  -8   3   92.25   13.33
   2  -8   3   96.92   12.06
   2  -8   3   87.65   12.71
  -2   8  -3   98.57   10.87
   2  -8   4   63.43    9.39
  -2   8  -4   54.66    8.49
   2  -8   5   53.50    9.55
   2  -8   5   46.70   13.61
  -2   8  -5   49.69    9.11
   2  -8   6   36.49    7.98
   2  -8   7   10.63    9.20
   2  -8   7    0.16   15.24
   2  -8   8    3.58   10.32
   2  -8   8    6.69   11.10
   2  -8   9   26.30   11.51
   2  -8   9  -23.85   18.18
   2  -7   1    3.65    8.15
   2  -7   1    1.22    6.55
   2  -7   1   -2.13    5.49
  -2   7  -1    6.25    6.71
   2  -7   2   71.52    7.72
   2  -7   2   66.10    8.84
   2  -7   2   49.46    7.17
  -2   7  -2   64.89    8.38
  -2   7  -2   51.45    5.05
   2  -7   3  177.87   14.14
   2  -7   3  173.07   11.44
  -2   7  -3  199.75   12.08
  -2   7  -3  130.59    9.34
   2  -7   4  175.15   10.78
   2  -7   4  185.15   12.82
   2  -7   4  152.72   14.07
  -2   7  -4  177.11   13.39
  -2   7  -4  149.78   13.89
   2  -7   5  110.30   11.44
   2  -7   5  113.32   10.96
  -2   7  -5  114.49   11.10
   2  -7   6   18.75    6.54
   2  -7   6   32.35   12.28
  -2   7  -6   18.17    7.41
   2  -7   7   12.56    6.50
   2  -7   7   -0.50    9.13
  -2   7  -7   13.42    7.65
   2  -7   8   18.59    7.07
   2  -7   8    9.78   14.92
   2  -7   9   27.32    9.98
   2  -7  10  136.03   13.41
   2  -7  10   49.89   15.55
   2  -6   1  129.15    8.67
   2  -6   1  113.14    9.23
   2  -6   1  108.90    8.92
  -2   6  -1  135.00    8.79
  -2   6  -1  118.27    9.51
   2  -6   2  390.78   17.41
   2  -6   2  361.04   17.51
   2  -6   2  338.99   18.73
  -2   6  -2  394.55   17.12
  -2   6  -2  372.49   17.39
  -2   6  -2  325.67   15.73
   2  -6   3  339.27   15.77
   2  -6   3  337.07   18.38
  -2   6  -3  358.05   19.16
  -2   6  -3  302.58   15.89
  -2   6  -3  252.89   13.15
   2  -6   4  152.62   12.23
   2  -6   4  170.30   11.00
  -2   6  -4  179.24   10.58
  -2   6  -4  160.88   12.70
   2  -6   5   29.28    7.63
   2  -6   5   32.64    6.04
   2  -6   5   22.90    7.14
  -2   6  -5   33.38    6.48
  -2   6  -5   24.27    9.16
   2  -6   6    6.99    5.39
   2  -6   6    7.48    7.63
   2  -6   6    7.52    7.35
  -2   6  -6   11.79    6.55
   2  -6   7   16.66    5.65
   2  -6   7   24.27    8.10
  -2   6  -7   20.86    6.96
   2  -6   8  132.98    9.85
   2  -6   8  102.21   16.79
  -2   6  -8  139.21   11.15
   2  -6   9  123.41   11.32
   2  -6  10   83.40   11.03
   2  -6  10   61.10   15.25
   2  -6  11   97.09   11.60
   2  -6  11   39.65   20.15
   2  -5   1  760.75   26.22
   2  -5   1  735.79   35.78
   2  -5   1  722.49   28.95
  -2   5  -1  828.36   35.46
  -2   5  -1  700.66   28.67
   2  -5   2  220.64   14.25
   2  -5   2  213.25   11.12
   2  -5   2  206.53   12.83
  -2   5  -2  255.78   11.63
  -2   5  -2  209.38   12.66
  -2   5  -2  183.14    8.81
   2  -5   3   38.44    6.05
   2  -5   3   36.03    5.44
  -2   5  -3   30.75    5.28
  -2   5  -3   33.73    6.05
  -2   5  -3   39.21    6.20
   2  -5   4   27.30    6.19
   2  -5   4   28.69    4.76
  -2   5  -4   26.46    5.21
  -2   5  -4   14.93    6.04
  -2   5  -4   23.30    6.21
   2  -5   5   58.53    7.75
  -2   5  -5   56.08    7.21
  -2   5  -5   54.21    8.21
  -2   5  -5   48.28    7.96
   2  -5   6  105.06    8.37
   2  -5   6  151.49    9.93
   2  -5   6   72.52   11.11
  -2   5  -6  136.25    9.27
  -2   5  -6  100.64   11.19
   2  -5   7  324.54   15.35
   2  -5   7  371.72   17.30
   2  -5   7  208.59   19.37
  -2   5  -7  366.56   17.86
   2  -5   8  267.36   12.74
   2  -5   8  298.79   16.86
   2  -5   8  174.42   19.00
  -2   5  -8  297.35   17.65
   2  -5   9  140.31   10.66
   2  -5   9  113.70   16.36
  -2   5  -9  158.29   12.42
   2  -5  10   19.70    8.38
   2  -5  10   10.35    9.68
   2  -5  11    3.41    8.30
   2  -5  11   22.12   12.71
   2  -5  12   13.78   12.29
   2  -5  12   -9.93   18.23
   2  -4   1  508.28   25.28
   2  -4   1  519.61   24.87
   2  -4   1  461.12   20.10
  -2   4  -1  574.21   22.23
  -2   4  -1  501.62   22.84
   2  -4   2  111.01    8.30
   2  -4   2  125.47    7.67
  -2   4  -2  125.92    7.37
  -2   4  -2  113.52    7.42
  -2   4  -2  109.92    7.16
   2  -4   3   29.72    5.29
   2  -4   3   34.20    5.11
  -2   4  -3   37.80    5.11
  -2   4  -3   32.43    5.29
  -2   4  -3   28.08    4.96
   2  -4   4  105.32    6.38
   2  -4   4   77.22    6.54
  -2   4  -4   78.70    6.54
  -2   4  -4   80.80    6.67
  -2   4  -4   79.37    6.84
   2  -4   5  278.96   14.55
   2  -4   5  343.23   14.91
  -2   4  -5  349.14   13.94
  -2   4  -5  301.66   15.15
  -2   4  -5  272.19   14.90
   2  -4   6  349.79   16.77
   2  -4   6  418.50   20.57
  -2   4  -6  404.24   17.29
  -2   4  -6  356.47   19.52
  -2   4  -6  342.15   20.16
   2  -4   7  376.35   15.87
   2  -4   7  462.79   20.45
   2  -4   7  308.88   22.10
  -2   4  -7  410.98   19.94
  -2   4  -7  300.25   21.64
   2  -4   8  184.44   10.27
   2  -4   8  202.77   13.04
   2  -4   8  139.69   14.84
   2  -4   8  139.45   10.62
  -2   4  -8  189.57   12.60
   2  -4   9   15.00    7.06
   2  -4   9   36.46   10.56
   2  -4   9    5.24   10.48
   2  -4   9   23.73    7.03
  -2   4  -9    7.06    9.12
   2  -4  10    9.90    6.50
   2  -4  10    8.89   11.90
   2  -4  10    9.41    7.06
  -2   4 -10   -3.99    7.98
   2  -4  11    8.18    7.73
   2  -4  11   14.91   15.57
   2  -4  11  -10.03    9.25
   2  -4  12   23.10    9.75
   2  -4  12    9.84   11.56
   2  -3   1  280.68   12.94
   2  -3   1  270.51   11.19
   2  -3   1  258.80   12.44
  -2   3  -1  317.33   12.16
  -2   3  -1  280.39   11.93
   2  -3   2  245.47   12.72
   2  -3   2  219.56   10.11
  -2   3  -2  251.75   10.90
  -2   3  -2  253.56   10.80
  -2   3  -2  236.16   10.38
   2  -3   3  238.58   12.92
   2  -3   3  220.17   10.71
  -2   3  -3  242.20   10.74
  -2   3  -3  225.17   10.79
  -2   3  -3  201.71   10.16
   2  -3   4  168.22    9.93
  -2   3  -4  164.13    8.79
  -2   3  -4  152.81    8.70
  -2   3  -4  143.75    8.73
   2  -3   5  239.31   11.73
   2  -3   5  284.17   12.72
   2  -3   5  242.05   11.75
  -2   3  -5  262.61   13.50
  -2   3  -5  256.35   12.68
  -2   3  -5  240.84   13.14
   2  -3   6  390.16   16.44
   2  -3   6  491.81   20.98
   2  -3   6  380.77   17.99
  -2   3  -6  431.08   19.39
  -2   3  -6  438.33   18.77
  -2   3  -6  355.94   21.42
   2  -3   7   59.88    6.05
   2  -3   7   86.58    7.87
   2  -3   7   50.52    9.54
   2  -3   7   50.08    6.07
  -2   3  -7   86.22    7.83
  -2   3  -7   64.36    7.39
  -2   3  -7   59.93    8.70
   2  -3   8   25.24    5.17
   2  -3   8   37.60    6.71
   2  -3   8   18.90    7.33
   2  -3   8    5.42    4.63
  -2   3  -8   18.15    6.20
  -2   3  -8   40.32    9.50
   2  -3   9   27.83    6.07
   2  -3   9   30.87    7.88
   2  -3   9   12.71    8.14
   2  -3   9    9.57    5.74
  -2   3  -9   10.80    6.37
   2  -3  10   41.89    8.33
   2  -3  10   30.57    8.13
  -2   3 -10   21.83    9.95
   2  -3  11   71.80   10.33
   2  -3  11   62.36   10.66
  -2   3 -11   69.11   12.26
   2  -3  12   72.56   10.55
   2  -3  12   33.57   12.72
   2  -3  12   54.65   12.34
   2  -3  13   80.48   12.59
   2  -3  13   45.11   13.93
   2  -3  13   66.27   15.57
   2  -2   1    2.23    2.97
   2  -2   1    2.73    2.89
  -2   2  -1    6.84    2.73
  -2   2  -1    2.97    2.52
  -2   2  -1    3.47    1.81
   2  -2   2  180.25    9.08
   2  -2   2  156.59    7.87
  -2   2  -2  186.36    7.91
  -2   2  -2  164.06    8.18
  -2   2  -2  159.02    7.36
   2  -2   3  484.72   16.26
   2  -2   3  264.50   11.59
  -2   2  -3  457.86   18.12
  -2   2  -3  437.84   17.09
  -2   2  -3  404.09   16.60
   2  -2   4  366.80   15.29
   2  -2   4  422.43   16.71
   2  -2   4  342.78   15.15
  -2   2  -4  405.92   15.64
  -2   2  -4  384.34   15.34
   2  -2   5  117.87    6.55
   2  -2   5  127.39    7.02
   2  -2   5  107.03    6.25
  -2   2  -5  144.54    8.04
  -2   2  -5  114.24    7.30
   2  -2   6  135.98    7.18
   2  -2   6  133.27    7.69
   2  -2   6  113.90    7.51
  -2   2  -6  137.90    8.50
  -2   2  -6  129.77    8.26
   2  -2   7   44.26    5.21
   2  -2   7   49.19    5.94
   2  -2   7   39.24    6.33
   2  -2   7   36.96    4.75
  -2   2  -7   51.53    5.95
  -2   2  -7   30.44    5.63
   2  -2   8    4.02    5.51
   2  -2   8   14.00    5.57
   2  -2   8    3.92    8.02
   2  -2   8    8.84    5.37
  -2   2  -8    7.59    6.55
  -2   2  -8   23.72    6.43
   2  -2   9  156.30    9.64
   2  -2   9  156.36   10.79
   2  -2   9  150.20   11.80
   2  -2   9  134.84   10.97
  -2   2  -9  167.48   11.27
   2  -2  10  132.58    9.93
   2  -2  10  137.99   10.87
   2  -2  10  110.77   11.29
   2  -2  10   82.83   11.21
  -2   2 -10  133.93   10.98
   2  -2  11  115.02   10.85
   2  -2  11   89.89   12.61
  -2   2 -11   87.43   11.88
   2  -2  12   47.44   10.10
   2  -2  12   38.72   12.08
   2  -2  13   16.04   10.74
   2  -2  13   -1.11   11.28
   2  -2  13   -7.03   13.44
   2  -1   1   94.98    5.06
   2  -1   1   90.59    5.15
   2  -1   1   80.89    3.64
  -2   1  -1   94.49    5.15
  -2   1  -1   75.95    4.75
  -2   1  -1   78.90    3.57
   2  -1   2  465.70   18.34
  -2   1  -2  404.88   16.78
  -2   1  -2  421.59   16.12
   2  -1   3  434.20   16.92
   2  -1   3  475.81   17.32
  -2   1  -3  490.01   17.74
  -2   1  -3  458.74   18.01
   2  -1   4  313.97   13.42
   2  -1   4  366.37   13.60
  -2   1  -4  369.97   14.09
  -2   1  -4  325.02   13.53
   2  -1   5  232.18   10.88
   2  -1   5  256.65   10.78
  -2   1  -5  286.42   14.33
  -2   1  -5  224.86   11.14
   2  -1   6    9.13    3.74
   2  -1   6   11.25    3.89
  -2   1  -6   15.12    4.19
  -2   1  -6   12.50    4.03
   2  -1   7   87.07    6.64
   2  -1   7   99.63    6.81
  -2   1  -7   92.77    6.94
   2  -1   8  124.28    8.02
   2  -1   8  112.20    7.60
   2  -1   8   91.18   10.63
   2  -1   8   95.23    8.05
  -2   1  -8  120.08    9.36
   2  -1   9   89.48    7.70
   2  -1   9  106.15    8.38
   2  -1   9   84.24    9.18
   2  -1   9   74.44    8.17
  -2   1  -9  104.36   10.26
   2  -1  10  184.40   11.24
   2  -1  10  173.27   12.10
   2  -1  10  147.27   14.76
   2  -1  10  129.60   12.40
  -2   1 -10  184.40   12.88
   2  -1  11  115.05   10.75
   2  -1  11   77.86   13.63
   2  -1  11   83.75   11.87
  -2   1 -11   85.80   11.79
   2  -1  12   86.74   10.76
   2  -1  12   63.34   14.33
   2  -1  12   49.63   12.76
  -2   1 -12   85.22   13.63
   2  -1  13   14.08   10.60
   2  -1  13   14.48   14.80
   2  -1  13    0.62   13.03
   2  -1  14   23.94   13.03
   2  -1  14   21.41   19.26
   2  -1  14   30.17   17.33
   2   0   0  263.25   10.65
   2   0   0  258.99   10.83
   2   0   0  254.88   10.50
  -2   0   0  262.74    7.62
  -2   0   0  248.69    7.63
  -2   0   0   44.12    4.39
   2   0   1  518.07   17.98
  -2   0  -1  538.57   20.38
  -2   0  -1  512.75   18.53
   2   0   2  112.00    5.27
   2   0   2  123.99    5.75
  -2   0  -2  123.42    5.44
  -2   0  -2  109.55    6.15
   2   0   3  224.18    9.28
   2   0   3  204.53    8.71
  -2   0  -3  243.88    9.90
   2   0   4  142.37    7.16
   2   0   4  141.20    6.63
  -2   0  -4  129.01    7.70
  -2   0  -4  143.72    8.64
   2   0   5  216.73    9.97
   2   0   5  217.97   10.10
  -2   0  -5  194.07    9.52
  -2   0  -5  230.48   12.52
   2   0   6  159.46    8.27
   2   0   6  152.07    8.59
  -2   0  -6  138.15    9.38
  -2   0  -6  175.52   11.30
   2   0   7  155.22    8.12
   2   0   7  140.39    9.62
  -2   0  -7  139.30    9.35
  -2   0  -7  162.65    9.03
   2   0   8  478.55   20.01
   2   0   8  423.84   17.61
  -2   0  -8  394.03   17.94
  -2   0  -8  466.41   26.61
   2   0   9  151.38   10.37
   2   0   9  150.46    9.73
   2   0   9  130.30   12.03
  -2   0  -9  163.52   11.29
   2   0  10  109.66    9.14
   2   0  10   80.51    9.78
   2   0  10   74.64    8.97
  -2   0 -10   88.12    9.88
   2   0  11  103.00   10.05
   2   0  11   57.30   10.97
  -2   0 -11   92.08   11.70
   2   0  12   37.77    9.56
   2   0  12   47.70   12.10
   2   0  12   25.71   11.69
  -2   0 -12   40.96   12.60
   2   0  13   46.10   11.84
   2   0  13   32.53   14.32
   2   0  13   41.13   15.21
   2   0  14   20.74   13.17
   2   0  14   49.19   17.37
   2   0  14    0.46   17.62
   2   1   0  429.88   16.86
   2   1   0  486.54   16.21
  -2  -1   0  476.52   16.51
  -2  -1   0  447.26   17.11
  -2  -1   0  442.04   17.58
   2   1   1  609.11   22.35
   2   1   1  649.86   21.74
  -2  -1  -1  655.25   22.88
   2   1   2   49.39    3.64
   2   1   2   50.47    3.51
  -2  -1  -2   48.52    3.79
  -2  -1  -2   51.80    3.49
   2   1   3    5.61    2.58
   2   1   3    2.36    2.36
  -2  -1  -3    5.84    2.50
  -2  -1  -3    6.22    2.43
   2   1   4  488.18   19.47
   2   1   4  520.74   19.55
  -2  -1  -4  461.25   17.93
  -2  -1  -4  536.23   24.79
   2   1   5  411.58   16.69
   2   1   5  437.69   16.93
  -2  -1  -5  406.83   19.54
  -2  -1  -5  445.86   17.49
   2   1   6  747.10   29.19
   2   1   6  751.32   28.83
  -2  -1  -6  655.18   25.50
  -2  -1  -6  798.72   30.17
   2   1   7  526.54   20.57
   2   1   7  519.16   19.51
   2   1   7  507.26   23.34
  -2  -1  -7  465.08   18.56
  -2  -1  -7  516.89   29.04
   2   1   8  190.16   11.10
   2   1   8  184.47    9.83
   2   1   8  149.95   12.50
  -2  -1  -8  165.44   11.02
  -2  -1  -8  171.33   13.22
   2   1   9   63.94    7.05
   2   1   9   69.21    8.16
   2   1   9   49.08    8.36
  -2  -1  -9   45.74    8.11
   2   1  10    9.32    6.27
   2   1  10    6.90    7.59
   2   1  10    1.80    5.07
  -2  -1 -10    3.21    7.95
   2   1  11   34.95    8.25
   2   1  11   29.34    9.46
  -2  -1 -11   42.73   10.99
   2   1  12   71.45   11.14
   2   1  12   48.20   11.47
   2   1  12   66.95   13.84
  -2  -1 -12   71.90   14.33
   2   1  13  113.34   11.90
   2   1  13   51.03   14.00
   2   1  13   92.17   14.55
  -2  -1 -13  102.40   13.10
   2   1  14   60.68   14.69
   2   1  14   19.87   16.26
   2   1  14   32.93   18.95
   2   2   0  258.65   10.77
   2   2   0  294.14   10.39
  -2  -2   0  256.20   10.46
  -2  -2   0  275.52   10.36
  -2  -2   0  279.10   12.12
   2   2   1  151.27    7.11
   2   2   1  160.84    6.62
  -2  -2  -1  147.62    6.60
  -2  -2  -1  159.17    7.27
   2   2   2  611.42   24.42
   2   2   2  671.37   22.76
  -2  -2  -2  590.99   21.88
  -2  -2  -2  655.60   23.76
   2   2   3  624.13   25.59
   2   2   3  654.26   24.17
  -2  -2  -3  586.79   26.06
  -2  -2  -3  676.81   23.60
   2   2   4  868.41   34.96
   2   2   4  933.80   32.71
  -2  -2  -4  794.46   33.57
  -2  -2  -4  965.63   36.93
   2   2   5  647.19   26.59
   2   2   5  685.35   26.18
  -2  -2  -5  574.42   23.30
  -2  -2  -5  675.90   30.27
   2   2   6  186.90    9.83
   2   2   6  205.48   10.36
  -2  -2  -6  169.77    9.47
  -2  -2  -6  198.64   10.30
   2   2   7  125.57    7.93
   2   2   7  121.53    8.97
   2   2   7  115.47    8.99
  -2  -2  -7  102.90    9.23
  -2  -2  -7  108.89    8.07
   2   2   8    3.70    4.94
   2   2   8    2.26    6.36
   2   2   8    2.69    3.70
  -2  -2  -8    6.64    7.20
  -2  -2  -8    4.94    5.71
   2   2   9   38.23    6.02
   2   2   9   39.44    8.35
   2   2   9   26.05    5.45
  -2  -2  -9   47.63    6.48
   2   2  10  154.47   12.05
   2   2  10  137.01   11.97
   2   2  10  110.25   11.83
  -2  -2 -10  154.77   13.43
   2   2  11   97.91   10.00
   2   2  11   69.40    8.88
  -2  -2 -11   98.67   12.76
   2   2  12   86.41    9.20
   2   2  12   62.57   12.40
  -2  -2 -12   98.18   11.50
   2   2  13   63.63   13.41
   2   2  13   40.23   13.51
  -2  -2 -13   32.58   16.60
   2   2  14   13.92   14.53
   2   2  14   14.55   18.77
   2   3   0  297.27   12.98
   2   3   0  344.30   12.47
  -2  -3   0  305.21   11.83
  -2  -3   0  332.53   12.60
  -2  -3   0  316.49   13.21
   2   3   1  416.67   17.00
   2   3   1  469.11   16.90
  -2  -3  -1  423.33   15.68
  -2  -3  -1  451.57   16.32
   2   3   2  752.04   29.86
   2   3   2  828.63   28.27
  -2  -3  -2  749.49   27.23
  -2  -3  -2  783.97   29.77
   2   3   3 1079.13   44.12
   2   3   3 1192.07   43.62
  -2  -3  -3 1030.65   38.23
  -2  -3  -3 1104.65   43.86
   2   3   4  115.18    7.04
   2   3   4  118.69    7.13
  -2  -3  -4  102.19    6.82
  -2  -3  -4  118.13    7.81
   2   3   5   51.86    5.45
   2   3   5   58.00    5.91
  -2  -3  -5   56.56    6.05
  -2  -3  -5   47.67    5.45
   2   3   6   53.15    4.68
   2   3   6   45.25    5.19
   2   3   6   48.04    4.52
  -2  -3  -6   47.98    6.62
  -2  -3  -6   49.73    6.23
   2   3   7   38.07    4.83
   2   3   7   32.78    6.77
  -2  -3  -7   32.50    6.91
  -2  -3  -7   33.26    5.29
   2   3   8  120.35    9.05
   2   3   8  133.91    9.89
   2   3   8   91.14    8.33
  -2  -3  -8  129.36   11.22
   2   3   9  172.41   11.23
   2   3   9  165.88   13.10
   2   3   9  130.45   11.08
  -2  -3  -9  172.10   13.85
   2   3  10  192.24   11.22
   2   3  10  138.07   12.43
  -2  -3 -10  216.67   14.31
   2   3  11   54.40    9.87
   2   3  11   32.98    8.41
  -2  -3 -11   51.17   12.33
   2   3  12   16.11   10.89
   2   3  12   -8.09    9.31
  -2  -3 -12   -2.15   13.81
   2   3  13    7.17   12.35
  -2  -3 -13   -2.13   15.86
   2   3  14   20.28   16.04
   2   4   0  114.91    5.80
   2   4   0  130.86    6.34
   2   4   0  114.10    7.01
  -2  -4   0  114.96    6.03
  -2  -4   0  125.77    5.82
  -2  -4   0  134.96    7.80
  -2  -4   0  107.64    7.23
   2   4   1  289.50   12.00
   2   4   1  313.13   11.86
  -2  -4  -1  296.02   12.38
  -2  -4  -1  316.00   12.35
  -2  -4  -1  280.46   12.92
   2   4   2  416.85   17.24
   2   4   2  442.18   17.68
  -2  -4  -2  385.13   16.70
  -2  -4  -2  442.90   15.47
  -2  -4  -2  382.61   15.94
   2   4   3  434.68   18.06
   2   4   3  492.35   18.24
  -2  -4  -3  433.40   17.95
  -2  -4  -3  467.60   17.66
  -2  -4  -3  422.81   16.94
   2   4   4  209.99   10.41
   2   4   4  240.17   10.87
  -2  -4  -4  221.00   10.97
  -2  -4  -4  228.81   10.74
  -2  -4  -4  204.29   11.21
   2   4   5    8.41    4.21
   2   4   5   11.91    4.94
  -2  -4  -5    3.63    5.37
  -2  -4  -5    9.81    4.83
  -2  -4  -5    5.23    2.85
   2   4   6   42.72    6.09
   2   4   6   45.21    6.99
  -2  -4  -6   46.95    7.14
  -2  -4  -6   53.94    7.65
   2   4   7   37.58    5.93
   2   4   7   21.69    7.57
  -2  -4  -7   28.38    8.45
  -2  -4  -7   47.09    7.49
   2   4   8  100.03    8.91
   2   4   8  117.96    9.57
   2   4   8   79.47    6.65
  -2  -4  -8  118.26   10.01
   2   4   9  194.75   11.75
   2   4   9  117.96   10.16
  -2  -4  -9  202.68   14.08
   2   4  10   73.98    9.79
   2   4  10   57.05    9.00
  -2  -4 -10   98.80   13.05
   2   4  11   33.83   11.12
   2   4  11   27.84    7.46
  -2  -4 -11   69.98   13.60
   2   4  12   12.75   11.68
  -2  -4 -12   31.34   14.75
   2   4  13    9.76   10.37
  -2  -4 -13    0.61   11.90
   2   5   0  350.27   16.13
   2   5   0  377.97   15.84
  -2  -5   0  353.39   15.07
  -2  -5   0  377.45   15.72
  -2  -5   0  367.37   15.74
   2   5   1  501.30   21.87
   2   5   1  552.92   21.01
   2   5   1  462.09   20.71
  -2  -5  -1  493.55   20.43
  -2  -5  -1  526.39   20.84
  -2  -5  -1  550.31   21.81
   2   5   2  417.22   17.98
   2   5   2  461.29   18.80
   2   5   2  370.82   18.01
  -2  -5  -2  412.17   19.25
  -2  -5  -2  448.55   17.27
   2   5   3   22.05    4.35
   2   5   3   28.44    4.99
   2   5   3   23.31    2.43
  -2  -5  -3   21.55    5.14
  -2  -5  -3   26.86    4.66
   2   5   4    5.91    4.35
   2   5   4   14.36    5.13
  -2  -5  -4   12.01    5.86
  -2  -5  -4   20.21    5.29
   2   5   5    7.32    5.29
   2   5   5    8.64    5.71
  -2  -5  -5    3.66    6.01
  -2  -5  -5    8.87    5.45
   2   5   6   17.14    5.77
   2   5   6   13.63    6.74
  -2  -5  -6   14.80    7.92
  -2  -5  -6    9.82    6.23
   2   5   7  211.84   12.43
   2   5   7  171.08    8.82
  -2  -5  -7  236.49   17.10
  -2  -5  -7  233.82   14.61
   2   5   8  272.79   14.95
  -2  -5  -8  279.33   15.42
   2   5   9  167.05   12.05
  -2  -5  -9  180.11   14.22
   2   5  10   29.16    9.77
  -2  -5 -10   26.06   11.63
   2   5  11   27.34   12.05
  -2  -5 -11   25.95   13.90
   2   5  12   12.28   14.43
  -2  -5 -12   18.27   16.43
   2   5  13   14.94   17.68
  -2  -5 -13   29.73   18.14
   2   6   0  426.74   17.98
   2   6   0  425.80   17.59
   2   6   0  358.94   17.45
  -2  -6   0  381.15   18.77
  -2  -6   0  417.17   17.37
  -2  -6   0  426.64   18.73
   2   6   1  120.46    7.57
   2   6   1  121.08    8.24
   2   6   1  103.33    6.73
  -2  -6  -1  114.72    7.65
  -2  -6  -1  114.48    7.57
  -2  -6  -1  138.37    9.50
   2   6   2    0.15    4.46
   2   6   2   -1.18    4.44
  -2  -6  -2   -4.44    4.74
  -2  -6  -2   -1.54    4.16
   2   6   3    5.40    4.63
   2   6   3    3.70    4.88
  -2  -6  -3   10.35    6.06
  -2  -6  -3    8.02    4.63
   2   6   4   17.32    6.03
   2   6   4   23.48    6.80
  -2  -6  -4   18.31    7.39
  -2  -6  -4   19.64    5.72
   2   6   5  353.39   18.69
   2   6   5  427.20   21.24
  -2  -6  -5  377.18   18.24
  -2  -6  -5  373.68   17.81
   2   6   6  355.23   17.96
  -2  -6  -6  301.54   20.97
  -2  -6  -6  380.97   18.00
   2   6   7  266.88   15.54
  -2  -6  -7  295.89   16.81
   2   6   8  144.90   12.94
  -2  -6  -8  124.89   12.92
   2   6   9   -6.20   10.07
  -2  -6  -9  -16.89   11.16
   2   6  10    3.56    8.66
  -2  -6 -10    5.56    9.12
   2   6  11   18.01   13.86
  -2  -6 -11   27.56   16.17
   2   6  12   38.13   16.85
  -2  -6 -12   58.80   19.61
   2   7   0   36.21    5.08
   2   7   0   39.22    5.68
  -2  -7   0   31.62    5.53
  -2  -7   0   42.02    4.78
  -2  -7   0   30.33    7.18
   2   7   1   24.73    5.13
   2   7   1   30.89    7.02
   2   7   1   21.84    4.51
  -2  -7  -1   29.55    6.28
  -2  -7  -1   31.51    4.98
  -2  -7  -1   32.37    5.61
   2   7   2   14.12    5.92
   2   7   2   13.27    6.56
  -2  -7  -2    7.01    6.86
  -2  -7  -2   10.32    4.56
  -2  -7  -2   15.50    6.91
   2   7   3  146.24   10.92
   2   7   3  126.74   10.82
  -2  -7  -3  130.17    8.62
  -2  -7  -3  124.43   10.28
   2   7   4  287.54   16.16
  -2  -7  -4  302.30   17.31
  -2  -7  -4  297.94   16.48
   2   7   5  277.48   15.89
  -2  -7  -5  264.02   16.79
  -2  -7  -5  265.07   15.12
   2   7   6  256.50   14.23
  -2  -7  -6  256.34   14.98
   2   7   7   62.28    8.94
  -2  -7  -7   57.52    8.63
   2   7   8    8.15   11.08
  -2  -7  -8    1.38   10.46
   2   7   9   20.92   13.07
  -2  -7  -9   17.69   12.92
   2   7  10   39.30   11.21
  -2  -7 -10   48.51   12.29
   2   7  11   74.53   18.07
  -2  -7 -11   61.68   17.92
   2   7  12   39.45   19.81
  -2  -7 -12   56.36   20.57
   2   8   0   58.58    6.92
   2   8   0   75.58    9.49
  -2  -8   0   71.24    8.88
  -2  -8   0   68.41    6.49
  -2  -8   0   68.45    9.54
   2   8   1   58.29    7.29
  -2  -8  -1   69.93    8.59
  -2  -8  -1   57.99    6.85
  -2  -8  -1   38.90    8.75
   2   8   2  144.49   10.57
  -2  -8  -2  146.49   11.81
  -2  -8  -2  144.19   10.86
  -2  -8  -2  156.74   13.16
   2   8   3  138.78    9.44
  -2  -8  -3  143.57   12.83
  -2  -8  -3  141.93   11.08
  -2  -8  -3  137.72   12.62
   2   8   4  140.50   10.09
  -2  -8  -4  146.76   13.86
  -2  -8  -4  135.98   11.12
   2   8   5   69.10   10.47
  -2  -8  -5   56.84   13.60
  -2  -8  -5   61.84   10.16
   2   8   6   64.42    8.83
  -2  -8  -6   61.84   10.64
   2   8   7   56.04   12.32
  -2  -8  -7   43.73   12.31
   2   8   8    5.63   13.08
  -2  -8  -8    4.56   11.86
   2   8   9   61.30   12.04
  -2  -8  -9   57.65   11.73
   2   8  10   65.51   15.37
  -2  -8 -10   83.60   18.87
   2   8  11   26.70   12.90
  -2  -8 -11   11.68   12.59
   2   9   0   29.09    7.57
  -2  -9   0   54.84    8.74
  -2  -9   0   38.69    6.70
  -2  -9   0   22.37    9.93
   2   9   1   36.00    8.64
  -2  -9  -1   52.47   10.24
  -2  -9  -1   44.93    7.48
  -2  -9  -1   30.94    7.67
   2   9   2  157.35   13.52
  -2  -9  -2  143.49   13.63
  -2  -9  -2  171.92   12.82
  -2  -9  -2  166.21   14.94
   2   9   3  187.62   13.82
  -2  -9  -3  200.77   16.53
  -2  -9  -3  222.36   14.92
  -2  -9  -3  224.99   16.48
   2   9   4   63.35    8.21
  -2  -9  -4   58.90   10.42
  -2  -9  -4   72.27   10.32
   2   9   5   21.58    8.49
  -2  -9  -5   21.58    7.00
   2   9   6    4.33   11.79
  -2  -9  -6    7.01   10.89
   2   9   7   23.33   13.46
  -2  -9  -7   10.92   12.71
   2   9   8   34.31   16.04
  -2  -9  -8   42.85   15.90
   2   9   9   82.66   17.75
  -2  -9  -9   52.66   17.42
   2   9  10   15.31   18.61
  -2  -9 -10   21.46   18.76
  -2 -10   0   84.98   10.46
  -2 -10   0   76.83   10.64
   2  10   1  119.39   12.84
  -2 -10  -1  168.57   12.63
  -2 -10  -1  161.04   15.80
   2  10   2   58.47   11.23
  -2 -10  -2   89.59   11.41
  -2 -10  -2   75.59   14.30
   2  10   3   34.40    8.76
  -2 -10  -3   47.38    8.49
  -2 -10  -3   37.62   12.81
   2  10   4   18.85   11.84
  -2 -10  -4   29.95   11.11
  -2 -10  -4    6.89   11.74
   2  10   5    4.39   13.18
  -2 -10  -5   10.25   11.86
  -2 -10  -5   -9.21   12.38
   2  10   6   26.12   14.83
  -2 -10  -6   18.34   13.50
   2  10   7    2.50   16.62
  -2 -10  -7   31.91   15.16
   2  10   8   37.44   18.00
  -2 -10  -8   48.35   16.69
  -2 -11   0   55.39   10.14
  -2 -11   0    2.20   14.38
  -2 -11  -1   29.03   10.69
  -2 -11  -1   -2.23   10.12
  -2 -11  -2    7.07   10.97
  -2 -11  -2    5.29   10.87
  -2 -11  -3   10.67   11.54
  -2 -11  -3    7.66   10.42
  -2 -11  -4   27.69   13.28
  -2 -11  -4   -9.80   16.02
   2  11   5   45.73   16.33
  -2 -11  -5   31.16   16.03
  -2 -11  -5   36.55   17.04
   2  11   6    2.89   17.33
  -2 -11  -6   35.09   16.48
  -2 -11  -6   19.28   18.49
  -2 -12   0   22.73   11.58
  -2 -12   0   -0.58   18.41
  -2 -12  -1   10.39   12.41
  -2 -12  -1   25.18   18.96
  -2 -12  -2   28.76   13.67
  -2 -12  -2    0.90   18.63
   3 -10   1   19.78   14.95
  -3  10  -1    5.44   18.12
   3 -10   2   11.59   15.65
   3 -10   2  -16.74   11.37
   3 -10   3   32.01   15.71
   3  -9   1   27.45   13.20
   3  -9   1   33.16   10.91
  -3   9  -1   32.31   15.78
   3  -9   2   50.52   13.47
  -3   9  -2   43.11   12.87
   3  -9   3   38.52   13.85
   3  -9   3   24.18   14.89
  -3   9  -3   39.27   13.40
   3  -9   4   21.51   13.30
   3  -9   4    7.16   11.99
   3  -9   5   23.69   14.51
   3  -9   5   30.49   17.99
   3  -9   6   40.50   13.07
   3  -8   1   37.47   11.28
   3  -8   1   24.19    8.07
  -3   8  -1   37.78   12.65
   3  -8   2  103.81   14.63
  -3   8  -2   80.40   11.88
   3  -8   3   62.76   11.52
  -3   8  -3   56.87   11.96
   3  -8   4   42.64   11.72
  -3   8  -4   43.39   13.52
   3  -8   5   -9.68   10.42
   3  -8   5    0.79   14.81
  -3   8  -5    9.38   11.17
   3  -8   6   15.50   10.34
   3  -8   6    7.13   10.93
   3  -8   7   20.52   11.29
   3  -8   7    6.05   19.41
   3  -8   8   13.41   14.29
   3  -8   8   14.34   15.46
   3  -7   1  148.06   13.38
   3  -7   1  117.06   11.53
  -3   7  -1  153.41   13.85
   3  -7   2  119.64   14.09
  -3   7  -2  172.14   11.73
   3  -7   3   71.66   10.35
  -3   7  -3   50.86   10.03
   3  -7   4   35.27    9.95
  -3   7  -4   33.76    8.90
   3  -7   5   35.27    7.48
  -3   7  -5   34.97    9.13
   3  -7   6   19.12   10.23
   3  -7   6   22.80   10.37
  -3   7  -6   22.98   12.31
   3  -7   7  116.91   12.32
   3  -7   7   79.02   13.52
  -3   7  -7  119.26   13.78
   3  -7   8   66.08   11.32
   3  -7   8   32.75   18.23
   3  -7   9   30.39   11.84
   3  -6   1   72.97    8.98
   3  -6   1   65.08    9.08
   3  -6   1   55.25    6.78
  -3   6  -1   73.52    8.78
   3  -6   2   -1.42    9.93
   3  -6   2   11.17    7.50
  -3   6  -2    3.83    6.89
   3  -6   3   33.56   10.71
   3  -6   3   57.82    9.60
  -3   6  -3   54.17    8.23
   3  -6   4  117.19   12.65
   3  -6   4  149.61   11.88
  -3   6  -4  150.52   11.28
  -3   6  -4   94.09   10.66
   3  -6   5  202.31   15.08
  -3   6  -5  191.79   13.19
  -3   6  -5  129.25   13.18
   3  -6   6  135.22   11.54
  -3   6  -6  160.78   13.20
   3  -6   7   69.87    9.78
   3  -6   7   69.82   14.89
  -3   6  -7   84.94   10.68
   3  -6   8   59.14   11.35
  -3   6  -8   61.49   12.67
   3  -6   9   -4.70    9.54
   3  -6   9   -0.98   11.59
   3  -6  10   26.54   10.56
   3  -6  10   16.31   13.54
   3  -5   1   27.99    8.24
   3  -5   1   33.38    6.78
  -3   5  -1   38.31    6.78
   3  -5   2   45.14    8.69
   3  -5   2   44.89    7.21
  -3   5  -2   42.44    6.60
   3  -5   3  191.53   13.60
   3  -5   3  181.84   11.69
  -3   5  -3  189.60   11.10
  -3   5  -3  161.54   10.12
   3  -5   4  472.12   21.96
   3  -5   4  446.88   20.52
  -3   5  -4  504.54   21.23
  -3   5  -4  409.15   21.50
   3  -5   5  246.93   16.07
  -3   5  -5  275.21   13.89
  -3   5  -5  198.05   14.89
   3  -5   6  155.31   11.26
   3  -5   6  187.10   13.94
  -3   5  -6  200.53   11.92
  -3   5  -6  124.23   13.10
   3  -5   7   22.80    8.59
   3  -5   7    6.49    7.46
  -3   5  -7   26.95    9.33
   3  -5   8   12.40    9.15
   3  -5   8   -0.49    8.03
  -3   5  -8   -5.46   10.33
   3  -5   9   26.06    8.84
   3  -5   9   18.76   10.70
  -3   5  -9    7.07    9.72
   3  -5  10   25.29    9.86
   3  -5  10    3.62   12.67
   3  -5  11   62.24   12.39
   3  -4   1  125.91    9.71
   3  -4   1  128.22    8.84
  -3   4  -1  151.92    9.17
  -3   4  -1  125.91    9.28
   3  -4   2  387.35   17.68
   3  -4   2  373.38   16.98
  -3   4  -2  421.43   16.91
  -3   4  -2  364.24   17.50
   3  -4   3  327.79   15.92
   3  -4   3  300.16   14.22
  -3   4  -3  331.29   15.01
  -3   4  -3  292.72   16.46
  -3   4  -3  300.25   14.64
   3  -4   4  234.88   12.77
   3  -4   4  188.41    9.93
  -3   4  -4  210.70   12.05
  -3   4  -4  187.34   11.15
   3  -4   5  104.57    8.87
   3  -4   5  157.64   12.72
  -3   4  -5  131.49    9.05
  -3   4  -5  119.09    9.32
   3  -4   6    7.89    5.66
   3  -4   6   -6.78    8.83
  -3   4  -6    7.44    6.25
  -3   4  -6    3.68    6.75
   3  -4   7   22.26    6.53
   3  -4   7   19.98    9.68
  -3   4  -7   16.92    7.12
  -3   4  -7   18.29    8.99
   3  -4   8   11.70    6.66
   3  -4   8   17.01   10.97
   3  -4   8   -2.30    7.41
  -3   4  -8    9.33    8.88
   3  -4   9  111.54   10.26
   3  -4   9   61.75   11.61
  -3   4  -9  117.74   12.91
   3  -4  10  154.88   12.36
   3  -4  10  118.74   14.95
  -3   4 -10  123.31   14.08
   3  -4  11   56.18   11.67
   3  -4  11   39.07   14.02
   3  -4  12   30.87   13.15
   3  -4  12    8.99   12.74
   3  -3   1  319.00   14.24
   3  -3   1  308.73   14.19
  -3   3  -1  336.38   14.83
  -3   3  -1  314.61   15.39
   3  -3   2  537.46   25.35
   3  -3   2  492.71   20.53
  -3   3  -2  555.97   21.53
  -3   3  -2  480.62   21.90
  -3   3  -2  505.72   19.92
   3  -3   3  326.16   13.98
   3  -3   3  253.14   12.73
  -3   3  -3  273.55   12.62
  -3   3  -3  277.32   13.17
  -3   3  -3  254.88   11.74
   3  -3   4   -1.95    4.51
   3  -3   4    2.29    6.27
  -3   3  -4    4.36    4.81
  -3   3  -4    1.22    5.96
  -3   3  -4    4.35    4.50
   3  -3   5   10.02    4.79
   3  -3   5   21.06    7.07
  -3   3  -5    7.03    5.08
  -3   3  -5   17.37    6.61
  -3   3  -5    8.82    5.02
   3  -3   6   46.23    5.98
   3  -3   6   58.76    8.94
  -3   3  -6   50.11    6.72
  -3   3  -6   28.62    6.47
   3  -3   7   81.74    8.22
   3  -3   7   91.90   10.32
   3  -3   7   54.04    5.14
  -3   3  -7   78.61    8.66
  -3   3  -7   68.66    9.64
   3  -3   8  289.09   14.36
   3  -3   8  320.81   18.67
   3  -3   8  236.72   16.39
   3  -3   8  220.34   14.19
  -3   3  -8  322.98   16.46
  -3   3  -8  204.30   18.82
   3  -3   9  199.94   13.34
   3  -3   9  145.19   16.36
   3  -3   9  150.68   12.09
  -3   3  -9  205.43   14.67
   3  -3  10  107.17   10.27
   3  -3  10   62.52   15.31
   3  -3  10   55.56   10.20
  -3   3 -10  109.54   12.19
   3  -3  11   15.23    9.32
   3  -3  11    1.49   14.88
  -3   3 -11    8.58   11.68
   3  -3  12   -4.14   11.68
   3  -3  12   16.36   17.67
   3  -2   1  642.92   27.62
   3  -2   1  605.60   24.31
  -3   2  -1  678.80   25.77
  -3   2  -1  637.77   24.72
   3  -2   2  325.28   14.76
   3  -2   2  290.59   13.55
  -3   2  -2  306.81   13.27
  -3   2  -2  286.33   12.95
  -3   2  -2  277.89   11.70
   3  -2   3   99.74    7.36
  -3   2  -3  103.46    6.68
  -3   2  -3   87.93    7.20
  -3   2  -3   86.27    5.68
   3  -2   4   33.01    5.26
   3  -2   4   33.94    6.43
   3  -2   4   26.17    1.89
  -3   2  -4   33.31    5.11
  -3   2  -4   34.83    5.69
  -3   2  -4   31.47    4.24
   3  -2   5    4.94    4.19
   3  -2   5   -6.69    5.80
   3  -2   5    5.14    2.18
  -3   2  -5    5.24    4.49
  -3   2  -5    4.76    5.80
  -3   2  -5    5.67    4.45
   3  -2   6  205.01   10.46
   3  -2   6  218.87   11.50
   3  -2   6  146.93    9.20
  -3   2  -6  209.05   12.54
  -3   2  -6  206.32   11.63
   3  -2   7  240.80   11.99
   3  -2   7  277.46   14.98
   3  -2   7  169.95   12.31
  -3   2  -7  240.65   16.43
   3  -2   8  259.86   13.48
   3  -2   8  292.78   16.06
   3  -2   8  211.06   14.22
  -3   2  -8  284.96   15.58
   3  -2   9  148.62   10.96
   3  -2   9  161.00   12.92
   3  -2   9  108.87    9.86
  -3   2  -9  142.96   11.69
   3  -2  10   27.95    8.33
   3  -2  10   26.63    7.28
  -3   2 -10   34.79    9.82
   3  -2  11   35.02    9.95
   3  -2  11   13.23   13.73
   3  -2  11   24.10    9.43
  -3   2 -11   37.83   10.54
   3  -2  12   24.02   11.27
   3  -2  12   -8.01   15.85
   3  -2  12   17.41   11.87
   3  -2  13   42.14   13.95
   3  -2  13   54.99   22.04
   3  -1   1  361.82   15.02
   3  -1   1  332.05   14.50
   3  -1   1  301.98   13.50
  -3   1  -1  354.82   14.54
  -3   1  -1  358.74   14.73
   3  -1   2  130.26    8.55
   3  -1   2  112.74    5.76
  -3   1  -2  122.19    7.01
  -3   1  -2  114.88    7.22
  -3   1  -2  112.52    5.38
   3  -1   3    8.73    3.61
   3  -1   3   11.52    3.50
  -3   1  -3    7.37    3.76
  -3   1  -3   10.35    4.08
   3  -1   4  172.28   10.18
   3  -1   4  198.48    9.36
  -3   1  -4  194.70   11.10
  -3   1  -4  170.17    8.90
   3  -1   5  185.47    9.90
   3  -1   5  193.68   10.40
  -3   1  -5  199.63   12.01
  -3   1  -5  192.82   10.68
   3  -1   6  178.25    9.90
   3  -1   6  198.49   10.86
  -3   1  -6  220.48   11.59
  -3   1  -6  172.93   10.27
   3  -1   7  546.89   23.03
   3  -1   7  552.41   22.76
  -3   1  -7  566.49   23.50
   3  -1   8  222.37   12.61
   3  -1   8  207.55   13.44
  -3   1  -8  252.16   16.97
   3  -1   9   66.75    8.12
   3  -1   9   66.60    9.52
   3  -1   9   64.10   11.90
   3  -1   9   46.00    7.52
  -3   1  -9   76.05    7.53
   3  -1  10   34.54    8.23
   3  -1  10   30.34    8.67
   3  -1  10   21.41    7.80
  -3   1 -10   41.56    9.57
   3  -1  11   55.31   10.00
   3  -1  11   31.02   13.21
   3  -1  11   51.29   10.54
  -3   1 -11   60.97   11.34
   3  -1  12   36.90   11.76
   3  -1  12   16.26   14.15
   3  -1  12   31.85   12.80
  -3   1 -12   41.07   13.55
   3  -1  13   41.03   13.39
   3  -1  13   15.65   13.90
   3  -1  13   33.31   14.61
   3   0   0  379.63   15.58
   3   0   0  358.93   15.73
   3   0   0  335.40   13.73
  -3   0   0  392.17   15.63
  -3   0   0  358.34   14.27
   3   0   1   27.94    3.48
   3   0   1   37.65    4.48
   3   0   1   31.78    3.33
  -3   0  -1   32.32    3.94
  -3   0  -1   40.83    4.19
   3   0   2    0.60    3.02
   3   0   2    1.00    3.15
  -3   0  -2    1.51    3.17
  -3   0  -2    1.14    3.15
   3   0   3  215.77   11.02
   3   0   3  256.09   11.08
  -3   0  -3  245.55   11.21
  -3   0  -3  224.68   10.20
   3   0   4  556.51   22.28
   3   0   4  583.17   22.06
  -3   0  -4  609.45   21.92
  -3   0  -4  524.17   21.55
   3   0   5  986.43   38.79
   3   0   5 1071.83   36.33
  -3   0  -5 1093.02   43.42
  -3   0  -5  956.41   40.40
   3   0   6  473.77   19.97
   3   0   6  454.99   18.28
  -3   0  -6  459.01   19.05
  -3   0  -6  374.80   19.47
   3   0   7  156.90    9.80
   3   0   7  155.53   10.02
  -3   0  -7  170.28   11.17
   3   0   8   38.82    5.62
   3   0   8   51.67    7.98
  -3   0  -8   47.61    5.92
   3   0   9   -3.17    6.35
   3   0   9    3.09    8.33
   3   0   9   -2.51    8.38
  -3   0  -9   -1.21    8.01
   3   0  10   38.53    8.28
  -3   0 -10   28.60   10.09
   3   0  11  123.42   11.89
   3   0  11   77.94   12.42
  -3   0 -11  102.13   13.22
   3   0  12  150.40   14.56
   3   0  12   91.63   14.81
  -3   0 -12  131.26   15.89
   3   0  13   48.17   13.28
   3   0  13   50.62   19.15
   3   0  13   42.24   12.46
   3   1   0   86.44    5.63
   3   1   0   91.75    5.90
   3   1   0  102.57    6.23
  -3  -1   0   92.48    5.04
  -3  -1   0   84.46    5.18
  -3  -1   0   83.08    4.18
   3   1   1  295.96   12.04
   3   1   1  309.63   11.70
  -3  -1  -1  334.87   12.99
  -3  -1  -1  294.08   12.37
   3   1   2  282.64   11.92
   3   1   2  300.48   11.87
  -3  -1  -2  301.64   11.80
  -3  -1  -2  272.78   11.55
   3   1   3  801.26   32.53
   3   1   3  862.71   29.47
  -3  -1  -3  897.51   38.52
  -3  -1  -3  794.55   33.25
   3   1   4  660.30   26.11
   3   1   4  686.13   26.53
  -3  -1  -4  715.04   26.65
   3   1   5  252.13   11.84
   3   1   5  221.99   11.64
  -3  -1  -5  198.14   13.22
  -3  -1  -5  244.60   12.13
   3   1   6  136.43    8.82
   3   1   6  132.32    8.90
  -3  -1  -6  107.54    8.06
  -3  -1  -6  145.50   11.12
   3   1   7    2.30    5.06
   3   1   7    4.18    5.53
  -3  -1  -7    3.24    7.01
  -3  -1  -7    0.46    5.98
   3   1   8    9.33    5.96
   3   1   8    8.47    6.86
  -3  -1  -8    8.71    6.57
   3   1   9  104.93    9.62
   3   1   9  137.64   12.43
  -3  -1  -9  103.25   10.68
   3   1  10  150.88   11.88
   3   1  10  120.45   12.66
  -3  -1 -10  153.91   13.54
   3   1  11   86.37   11.95
   3   1  11   70.71   12.73
  -3  -1 -11   97.99   13.31
   3   1  12   67.36   12.79
   3   1  12   27.32    9.11
  -3  -1 -12   50.97   14.44
   3   1  13   30.40   13.33
   3   1  13   11.89   15.17
   3   1  13    5.97   16.69
  -3  -1 -13   -6.44   16.77
   3   2   0  341.70   14.55
   3   2   0  397.90   14.27
  -3  -2   0  388.15   13.89
  -3  -2   0  351.93   13.10
  -3  -2   0  351.69   15.32
   3   2   1  372.49   16.17
   3   2   1  384.95   14.31
  -3  -2  -1  385.78   15.89
  -3  -2  -1  343.15   14.24
   3   2   2  556.99   24.07
   3   2   2  622.09   21.47
  -3  -2  -2  627.53   24.33
   3   2   3   76.74    5.74
   3   2   3   73.98    5.69
  -3  -2  -3   70.53    5.55
  -3  -2  -3   73.65    5.74
   3   2   4   57.29    5.44
   3   2   4   57.60    5.38
  -3  -2  -4   52.39    5.78
  -3  -2  -4   60.85    5.75
   3   2   5   53.63    5.90
   3   2   5   49.47    5.76
  -3  -2  -5   41.13    5.75
  -3  -2  -5   40.61    5.43
   3   2   6  152.09    8.75
   3   2   6  140.49    8.84
  -3  -2  -6  133.13   10.71
  -3  -2  -6  174.09    9.54
   3   2   7  179.29   11.05
   3   2   7  149.09   10.05
  -3  -2  -7  148.14   11.12
  -3  -2  -7  184.39   11.21
   3   2   8  115.86    9.89
   3   2   8  129.97   10.28
  -3  -2  -8  117.25   10.82
   3   2   9  158.38   11.56
   3   2   9  125.22   11.29
  -3  -2  -9  146.72   12.17
   3   2  10   53.02    7.65
  -3  -2 -10   52.26    8.11
   3   2  11    6.08    9.73
   3   2  11    6.29    8.39
  -3  -2 -11   37.10   12.32
   3   2  12   27.38   11.95
   3   2  12   14.84   11.69
  -3  -2 -12    7.72   14.07
   3   2  13   31.45   13.70
   3   2  13   -2.63   14.22
  -3  -2 -13   12.49   16.85
   3   3   0  215.12   10.76
   3   3   0  257.84   10.56
  -3  -3   0  238.41   10.95
  -3  -3   0  232.07   10.11
  -3  -3   0  245.46   11.49
   3   3   1   93.40    5.76
   3   3   1  102.29    6.05
  -3  -3  -1  103.40    6.05
  -3  -3  -1  109.28    5.93
  -3  -3  -1   96.00    6.54
   3   3   2  313.78   14.33
   3   3   2  340.88   12.61
  -3  -3  -2  302.44   14.29
  -3  -3  -2  340.26   13.62
   3   3   3  216.81   11.79
   3   3   3  232.24   10.63
  -3  -3  -3  203.55   10.85
  -3  -3  -3  237.48   11.35
   3   3   4   27.72    4.99
   3   3   4   34.99    4.99
  -3  -3  -4   27.25    5.26
  -3  -3  -4   27.72    4.83
   3   3   5  135.45    7.71
   3   3   5  134.38    8.81
  -3  -3  -5  133.69    8.26
  -3  -3  -5  132.64    9.10
   3   3   6   95.96    8.29
   3   3   6   98.39    8.48
  -3  -3  -6   78.79    9.42
  -3  -3  -6  100.01    8.60
   3   3   7  118.19    8.13
   3   3   7  126.40   10.57
  -3  -3  -7  145.58   12.51
  -3  -3  -7  133.28   10.16
   3   3   8  140.82   10.44
   3   3   8  100.36    9.35
  -3  -3  -8  125.78   11.98
   3   3   9   66.60    8.67
   3   3   9   49.48    8.15
  -3  -3  -9   61.97   10.05
   3   3  10   34.16    9.70
   3   3  10   11.55    7.49
  -3  -3 -10   45.85   11.70
   3   3  11   26.63   10.56
   3   3  11   14.18    8.29
  -3  -3 -11   12.09   13.32
   3   3  12   36.68   13.39
   3   3  12   22.63   10.46
  -3  -3 -12   28.61   15.68
   3   3  13   42.48   11.80
  -3  -3 -13   34.62   13.31
   3   4   0  221.87   10.71
   3   4   0  255.42   10.89
  -3  -4   0  221.52    9.86
  -3  -4   0  237.01   10.13
  -3  -4   0  238.16   12.49
   3   4   1  299.94   12.99
   3   4   1  306.19   13.88
  -3  -4  -1  296.82   11.95
  -3  -4  -1  297.46   12.38
  -3  -4  -1  299.51   15.78
   3   4   2   37.76    4.98
   3   4   2   47.98    5.48
  -3  -4  -2   40.15    5.61
  -3  -4  -2   52.84    4.99
   3   4   3   73.08    6.26
   3   4   3   70.19    6.05
  -3  -4  -3   55.93    6.32
  -3  -4  -3   64.66    5.95
   3   4   4   67.76    5.49
   3   4   4   65.66    6.60
  -3  -4  -4   69.71    7.02
  -3  -4  -4   70.41    6.74
   3   4   5   94.24    6.76
   3   4   5   82.11    7.73
  -3  -4  -5   73.87    7.44
  -3  -4  -5   88.46    6.76
   3   4   6  153.01    9.45
   3   4   6  187.43   11.90
  -3  -4  -6  146.51   11.56
  -3  -4  -6  158.48   10.54
   3   4   7  165.97   10.69
  -3  -4  -7  186.21   14.96
  -3  -4  -7  181.42   11.94
   3   4   8  170.92   11.29
   3   4   8  148.68   10.68
  -3  -4  -8  175.28   12.99
   3   4   9   33.08    9.48
   3   4   9   22.31    6.07
  -3  -4  -9   49.23   11.81
   3   4  10   26.60   10.05
   3   4  10   19.43    6.75
  -3  -4 -10   44.54   12.69
   3   4  11   69.85   10.17
   3   4  11   28.00    8.03
  -3  -4 -11   69.23   11.24
   3   4  12   90.05   15.76
  -3  -4 -12   79.96   17.90
   3   4  13   30.81   14.42
  -3  -4 -13   37.49   18.06
   3   5   0   12.58    4.04
   3   5   0   15.87    3.37
   3   5   0    6.31    5.26
  -3  -5   0   14.04    3.65
  -3  -5   0   12.12    3.73
  -3  -5   0   12.26    5.23
  -3  -5   0   -3.73    5.59
   3   5   1    7.30    3.73
   3   5   1   10.14    4.51
  -3  -5  -1    3.52    4.93
  -3  -5  -1    8.85    3.73
  -3  -5  -1   13.85    5.42
  -3  -5  -1    7.58    5.57
   3   5   2   20.37    4.36
   3   5   2   19.73    4.66
  -3  -5  -2   21.70    6.06
  -3  -5  -2   28.30    4.83
  -3  -5  -2   22.70    5.56
   3   5   3  124.32    7.41
   3   5   3  147.07    9.16
  -3  -5  -3  116.79    8.97
  -3  -5  -3  142.24    7.90
  -3  -5  -3  102.27    7.63
   3   5   4  583.82   25.65
   3   5   4  609.32   27.32
  -3  -5  -4  577.36   26.82
  -3  -5  -4  625.17   23.90
  -3  -5  -4  548.02   23.78
   3   5   5  349.08   16.37
  -3  -5  -5  326.43   16.75
  -3  -5  -5  376.27   17.18
  -3  -5  -5  320.55   15.99
   3   5   6   99.28   10.04
  -3  -5  -6  105.55   11.20
  -3  -5  -6  128.36   12.09
  -3  -5  -6   97.70    8.08
   3   5   7   55.01    8.45
   3   5   7   41.25    4.76
  -3  -5  -7   53.61   10.17
  -3  -5  -7   40.96    5.13
   3   5   8   33.55    7.50
  -3  -5  -8   31.99    7.65
   3   5   9   37.51    7.32
   3   5   9   21.27    5.64
  -3  -5  -9   49.65    8.57
   3   5  10  117.69   11.20
  -3  -5 -10  120.64   11.51
   3   5  11  138.84   16.08
  -3  -5 -11  130.36   18.69
   3   5  12   55.80   15.03
  -3  -5 -12   76.95   18.10
   3   6   0   27.37    4.64
   3   6   0   37.02    4.68
  -3  -6   0   36.03    4.96
  -3  -6   0   34.48    4.19
  -3  -6   0   32.03    6.41
  -3  -6   0   24.73    7.18
   3   6   1  106.55    7.35
   3   6   1  117.12    8.04
   3   6   1   84.44    6.98
  -3  -6  -1  130.15    7.79
  -3  -6  -1  108.87    7.50
  -3  -6  -1  127.95    8.81
  -3  -6  -1   87.36    9.29
   3   6   2  373.89   18.66
   3   6   2  414.41   16.85
   3   6   2  357.68   17.53
  -3  -6  -2  394.15   18.56
  -3  -6  -2  426.44   17.11
  -3  -6  -2  412.43   21.19
  -3  -6  -2  352.94   18.22
   3   6   3  417.04   20.61
   3   6   3  522.95   21.04
   3   6   3  371.75   19.32
  -3  -6  -3  434.71   20.07
  -3  -6  -3  477.57   23.77
  -3  -6  -3  400.55   20.57
   3   6   4  265.18   14.24
  -3  -6  -4  239.48   15.01
  -3  -6  -4  297.67   14.61
   3   6   5  105.69   10.17
  -3  -6  -5  111.91   12.26
  -3  -6  -5  134.64   12.21
   3   6   6   11.53    7.17
  -3  -6  -6   44.81   11.64
  -3  -6  -6   18.54    8.57
   3   6   7   17.45    9.04
   3   6   7    4.92    2.62
  -3  -6  -7   12.31    9.66
   3   6   8   40.49    7.79
  -3  -6  -8   40.17    8.26
   3   6   9  135.21   13.88
  -3  -6  -9  134.28   16.36
   3   6  10  117.88   15.98
  -3  -6 -10  152.12   20.33
   3   6  11   83.88   15.59
  -3  -6 -11   63.53   17.43
   3   6  12   -9.50   16.40
  -3  -6 -12   32.95   19.01
   3   7   0  220.09   11.14
   3   7   0  198.43   11.46
   3   7   0  124.58   11.54
  -3  -7   0  219.70   11.79
  -3  -7   0  199.87   11.40
  -3  -7   0  194.49   14.50
   3   7   1  263.79   13.57
   3   7   1  283.99   14.78
   3   7   1  224.56   13.42
  -3  -7  -1  273.90   14.75
  -3  -7  -1  292.10   14.68
  -3  -7  -1  298.20   16.01
   3   7   2  200.45   12.32
   3   7   2  160.96    9.96
  -3  -7  -2  199.81   12.07
  -3  -7  -2  231.61   13.74
  -3  -7  -2  175.80   13.22
   3   7   3  148.42   11.81
  -3  -7  -3  146.05   12.23
  -3  -7  -3  178.71   12.02
   3   7   4    9.24    6.78
  -3  -7  -4   12.94    9.39
  -3  -7  -4   25.88    7.86
   3   7   5   13.43    5.56
  -3  -7  -5   14.37   10.10
  -3  -7  -5   17.90    6.18
   3   7   6   72.79    8.39
  -3  -7  -6   77.43    8.86
   3   7   7   67.59   10.39
  -3  -7  -7   72.54   11.63
   3   7   8   81.67   12.56
  -3  -7  -8  103.16   14.12
   3   7   9  108.61   15.03
  -3  -7  -9  111.54   15.65
   3   7  10   52.86   12.96
  -3  -7 -10   59.64   12.81
   3   7  11   12.44   18.12
  -3  -7 -11  -19.04   18.73
   3   8   0  136.97    9.62
   3   8   0   90.40   11.02
  -3  -8   0  124.77   11.06
  -3  -8   0  146.18    9.34
  -3  -8   0  128.47   12.31
   3   8   1  195.63   11.19
   3   8   1  128.88   10.80
  -3  -8  -1  158.97   11.87
  -3  -8  -1  187.67   12.05
  -3  -8  -1  169.85   13.26
   3   8   2  104.05   10.20
  -3  -8  -2  103.22   10.78
  -3  -8  -2  123.07    9.79
  -3  -8  -2  110.98   12.35
   3   8   3   23.34    8.49
  -3  -8  -3   19.96    9.42
  -3  -8  -3   24.85    7.58
  -3  -8  -3   11.86    8.17
   3   8   4    3.34    8.96
  -3  -8  -4    1.85    9.84
  -3  -8  -4    3.80    7.90
   3   8   5   14.16   10.66
  -3  -8  -5   19.34    9.29
   3   8   6  105.27   11.10
  -3  -8  -6   88.94   12.58
   3   8   7  122.08   12.50
  -3  -8  -7  152.63   14.83
   3   8   8  100.00   15.81
  -3  -8  -8   81.80   15.18
   3   8   9   12.08   16.05
  -3  -8  -9   13.76   16.21
   3   8  10    5.80   18.02
  -3  -8 -10   21.98   18.48
  -3  -9   0  190.10   11.99
  -3  -9   0  153.10   15.20
   3   9   1   42.80    9.14
  -3  -9  -1   47.36    8.11
  -3  -9  -1   69.69   11.78
   3   9   2    0.74    8.74
  -3  -9  -2   10.37    7.11
  -3  -9  -2   28.26   10.73
   3   9   3    7.73    7.44
  -3  -9  -3  -10.56    8.33
  -3  -9  -3    4.91   10.90
   3   9   4    4.18    7.46
  -3  -9  -4   13.58    8.81
  -3  -9  -4   15.77   12.02
   3   9   5   41.44   12.74
  -3  -9  -5   31.56   11.38
   3   9   6   73.47   11.18
  -3  -9  -6   53.98   13.24
   3   9   7   88.35   12.58
  -3  -9  -7   60.25   11.48
   3   9   8   26.79   11.30
  -3  -9  -8   32.81   11.00
   3   9   9    7.83   19.58
  -3  -9  -9    4.82   17.93
  -3 -10   0   12.35    9.05
  -3 -10   0   34.05   12.72
  -3 -10  -1    9.40   10.12
  -3 -10  -1  -14.82   12.15
  -3 -10  -2   13.08   11.05
  -3 -10  -2   -8.28    8.88
  -3 -10  -3   35.44   11.11
  -3 -10  -3   37.00   13.77
   3  10   4   59.67   13.66
  -3 -10  -4   71.08   12.96
  -3 -10  -4   53.60   15.41
   3  10   5   44.57   14.40
  -3 -10  -5   55.42   14.42
  -3 -10  -5   71.33   13.01
   3  10   6   31.60   10.61
  -3 -10  -6   24.10    9.72
   3  10   7   28.14   15.19
   3  10   8    0.74   18.45
  -3 -10  -8   26.13   18.46
  -3 -11   0   -2.57    8.71
  -3 -11   0  -13.08   14.97
  -3 -11  -1   19.01    9.87
  -3 -11  -1   31.41   16.67
  -3 -11  -2   18.90   12.75
  -3 -11  -2   23.06   16.18
  -3 -11  -3   61.06   13.97
  -3 -11  -3   49.29   17.51
  -3 -11  -4   74.33   15.04
  -3 -11  -4   96.41   18.46
  -3 -11  -5   23.42   15.82
  -3 -11  -5   34.02   13.97
   4  -9   1   74.48   17.46
  -4   9  -1   56.12   17.76
   4  -9   2   40.47   20.92
  -4   9  -2   31.07   17.44
   4  -8   1   69.07   17.24
  -4   8  -1   77.00   14.66
   4  -8   2   14.63   13.57
  -4   8  -2   27.59   13.87
   4  -8   3   25.25   15.06
  -4   8  -3   21.30   14.76
   4  -8   4   38.36   15.17
  -4   8  -4    7.43   14.56
   4  -8   5   16.46   15.25
   4  -8   6  125.44   17.36
   4  -8   6   56.42   22.09
   4  -7   1    7.97   12.87
  -4   7  -1   19.92   10.57
   4  -7   2   37.06   11.95
  -4   7  -2   28.95   11.34
   4  -7   3   46.47   14.53
  -4   7  -3   58.54   12.55
   4  -7   4  143.52   16.54
  -4   7  -4  128.59   15.16
   4  -7   5   68.88   14.59
   4  -7   6   33.82   12.99
  -4   7  -6   43.48   15.26
   4  -7   7   72.70   13.55
   4  -7   7   18.49   19.12
   4  -6   1   40.00   10.62
  -4   6  -1   15.23    9.69
   4  -6   2   78.40   11.86
  -4   6  -2   94.08   12.03
   4  -6   3  190.20   17.30
  -4   6  -3  215.50   17.18
   4  -6   4  121.52   14.13
  -4   6  -4  136.50   13.53
   4  -6   5   78.39   11.60
  -4   6  -5   82.80   12.21
   4  -6   6    9.85   10.30
  -4   6  -6   24.09   11.67
   4  -6   7    1.96   10.86
  -4   6  -7   10.40   12.06
   4  -6   8   12.90   12.75
   4  -6   8    5.68   12.47
  -4   6  -8   13.80   14.85
   4  -6   9   38.52   13.89
   4  -5   1  153.41   11.66
  -4   5  -1  195.08   13.70
   4  -5   2  129.13   11.62
  -4   5  -2  135.30   12.24
   4  -5   3  114.94   11.89
  -4   5  -3  135.84   11.91
   4  -5   4   54.96    9.51
   4  -5   5   11.74   10.52
  -4   5  -5   17.38   11.13
   4  -5   6   34.16   10.03
  -4   5  -6   31.12   10.33
   4  -5   7    6.35    9.67
  -4   5  -7   12.24   10.73
   4  -5   8   57.91   11.60
  -4   5  -8   66.94   13.56
   4  -5   9  118.99   14.73
   4  -5   9  101.49   20.71
  -4   5  -9   78.58   15.59
   4  -5  10   67.02   17.59
   4  -5  10   27.58   21.93
   4  -4   1  121.18   11.03
  -4   4  -1  119.48   11.18
   4  -4   2   80.18    9.13
  -4   4  -2  104.70    9.15
   4  -4   3   -5.23    7.38
  -4   4  -3   -5.69    6.76
  -4   4  -4   21.13    7.66
  -4   4  -4   23.42    5.94
   4  -4   5   86.96   10.10
  -4   4  -5  128.00   10.90
  -4   4  -5   76.77    8.23
   4  -4   6  183.61   13.03
  -4   4  -6  225.25   14.74
  -4   4  -6  135.19   12.38
   4  -4   7  161.83   12.66
  -4   4  -7  173.64   14.18
   4  -4   8   68.73   11.02
  -4   4  -8   80.63   12.23
   4  -4   9   25.79   10.80
   4  -4   9   36.80   15.50
  -4   4  -9   44.69   12.91
   4  -4  10    8.95   14.47
   4  -4  10    8.61   18.36
  -4   4 -10    0.30   14.62
   4  -4  11   10.69   13.21
   4  -4  11   15.62   20.83
   4  -3   1   69.72    8.99
   4  -3   1   30.59    7.27
  -4   3  -1   33.53    5.11
  -4   3  -1   23.87    7.96
   4  -3   2   82.90    9.60
   4  -3   2   54.53    7.87
  -4   3  -2   46.83    6.94
  -4   3  -2   80.25   10.03
   4  -3   3  110.28   11.85
  -4   3  -3   83.67    7.87
  -4   3  -3   69.59    5.52
   4  -3   4  109.74    9.69
   4  -3   4  145.88   12.17
  -4   3  -4  102.85    8.92
  -4   3  -4   88.97    7.43
   4  -3   5  283.55   16.07
  -4   3  -5  339.41   17.20
  -4   3  -5  256.51   13.84
   4  -3   6  158.87   11.80
  -4   3  -6  203.30   12.91
  -4   3  -6  153.81   11.70
   4  -3   7  110.11   10.36
  -4   3  -7  150.90   12.51
  -4   3  -7   68.07   11.72
   4  -3   8   30.96    8.91
  -4   3  -8   47.57   10.73
   4  -3   9   15.78    9.47
  -4   3  -9   10.37   11.12
   4  -3  10   68.73   12.12
  -4   3 -10   36.61   13.60
   4  -3  11  109.22   14.46
   4  -3  11   38.78   15.88
   4  -2   1   91.37    9.77
   4  -2   1  116.73    8.84
  -4   2  -1  122.44    7.93
  -4   2  -1   93.55    8.90
   4  -2   2   54.37    7.97
  -4   2  -2   63.33    6.94
  -4   2  -2   51.13    8.11
   4  -2   3  298.38   15.24
   4  -2   3  333.56   16.37
  -4   2  -3  335.03   15.60
  -4   2  -3  287.78   16.48
  -4   2  -3  292.57   13.31
   4  -2   4  250.38   13.94
   4  -2   4  297.46   17.73
  -4   2  -4  309.76   14.47
  -4   2  -4  235.42   12.00
   4  -2   5  122.39    9.38
   4  -2   5  162.17   13.03
  -4   2  -5  140.42   10.00
  -4   2  -5  119.11    8.11
   4  -2   6  150.98   10.60
   4  -2   6  156.22   15.06
   4  -2   6  121.24    6.19
  -4   2  -6  189.87   11.70
  -4   2  -6  113.73   10.42
   4  -2   7  106.91   10.08
   4  -2   7   88.54    6.09
  -4   2  -7  119.68   12.36
  -4   2  -7   69.69   10.73
   4  -2   8   73.76   11.38
   4  -2   8   63.44    6.78
  -4   2  -8  101.02   10.19
   4  -2   9   50.47    9.65
   4  -2   9   52.48    7.66
  -4   2  -9   53.94   11.16
   4  -2  10   88.50   13.05
  -4   2 -10   81.91   13.35
   4  -2  11  107.17   14.77
   4  -2  11   49.42   17.90
  -4   2 -11   68.47   14.45
   4  -2  12   41.01   14.96
   4  -1   1  154.61   10.53
   4  -1   1  136.02    8.29
  -4   1  -1  161.80    9.32
  -4   1  -1  152.57   10.10
   4  -1   2  360.42   17.44
   4  -1   2  374.19   16.30
   4  -1   2  329.30   15.89
  -4   1  -2  396.49   17.34
  -4   1  -2  378.73   16.74
   4  -1   3  560.57   23.61
   4  -1   3  607.81   24.78
   4  -1   3  535.72   20.96
  -4   1  -3  623.45   23.26
  -4   1  -3  559.37   22.99
  -4   1  -3  490.63   19.61
   4  -1   4  602.02   26.37
   4  -1   4  665.29   28.91
  -4   1  -4  644.96   28.54
  -4   1  -4  576.51   25.94
   4  -1   5   81.86    8.15
   4  -1   5  107.11   10.02
  -4   1  -5   99.95    8.93
   4  -1   6   19.29    6.74
   4  -1   6   41.75    8.18
  -4   1  -6   21.44    7.35
   4  -1   7   17.72    7.33
  -4   1  -7   28.10    8.71
   4  -1   8   50.34    9.59
  -4   1  -8   75.13   10.21
   4  -1   9  140.19   12.16
   4  -1   9   74.20    9.77
  -4   1  -9  123.71   13.35
   4  -1  10  133.73   13.87
   4  -1  10  120.03   14.40
   4  -1  10   75.71   11.40
  -4   1 -10  169.80   18.09
   4  -1  11   94.50   14.21
   4  -1  11   68.73   18.76
  -4   1 -11   73.15   14.94
   4  -1  12   15.73   14.39
   4  -1  12  -16.30   18.91
  -4   1 -12   13.50   14.99
   4   0   0  355.61   17.05
   4   0   0  321.56   14.10
  -4   0   0  352.25   15.33
  -4   0   0  339.17   15.47
   4   0   1  479.03   22.60
   4   0   1  581.64   23.20
   4   0   1  511.12   21.94
  -4   0  -1  571.82   24.24
  -4   0  -1  558.53   23.03
   4   0   2  861.26   34.18
   4   0   2  961.99   36.25
   4   0   2  887.61   35.01
  -4   0  -2  954.24   33.88
  -4   0  -2  921.77   32.80
   4   0   3  375.17   16.73
   4   0   3  407.92   18.85
  -4   0  -3  387.48   16.74
  -4   0  -3  367.09   16.54
   4   0   4   37.29    6.32
   4   0   4   41.75    6.82
  -4   0  -4   42.84    6.33
  -4   0  -4   48.85    7.25
   4   0   5    4.32    5.40
   4   0   5   11.24    6.46
  -4   0  -5   10.48    6.32
  -4   0  -5    3.37    6.60
   4   0   6    1.23    6.16
   4   0   6    9.87    7.23
  -4   0  -6    7.39    6.93
   4   0   7   48.99    6.77
  -4   0  -7   58.52    6.93
   4   0   8  213.75   14.02
  -4   0  -8  230.72   14.03
   4   0   9  292.89   17.03
  -4   0  -9  312.96   18.41
   4   0  10   82.73   12.85
   4   0  10   55.21   14.06
  -4   0 -10   95.26   13.31
   4   0  11   13.64   12.59
   4   0  11  -10.02   13.97
  -4   0 -11  -13.79   12.74
   4   0  12   -7.45   14.00
   4   0  12  -11.37   12.66
  -4   0 -12   -7.74   16.23
   4   1   0  444.28   20.89
   4   1   0  479.01   22.48
   4   1   0  453.72   19.67
  -4  -1   0  529.30   19.35
  -4  -1   0  460.94   20.19
   4   1   1  361.16   16.41
   4   1   1  416.23   18.81
   4   1   1  364.50   16.06
  -4  -1  -1  423.39   16.05
  -4  -1  -1  386.09   16.10
  -4  -1  -1  375.35   16.08
   4   1   2   59.00    6.04
   4   1   2   69.04    6.68
  -4  -1  -2   75.22    6.05
  -4  -1  -2   54.44    6.39
   4   1   3    5.89    4.65
   4   1   3    6.46    5.06
  -4  -1  -3    8.36    4.80
  -4  -1  -3    7.72    5.20
   4   1   4    9.47    4.97
   4   1   4   -5.56    5.14
  -4  -1  -4    0.16    5.28
  -4  -1  -4    1.25    5.56
   4   1   5  114.29    9.20
   4   1   5  115.34    9.81
  -4  -1  -5  131.22   10.14
  -4  -1  -5   91.56    9.52
   4   1   6  277.15   14.73
  -4  -1  -6  293.43   18.28
   4   1   7  184.13   12.29
  -4  -1  -7  207.16   15.85
   4   1   8  138.62   12.35
  -4  -1  -8  140.16   13.43
   4   1   9   58.11   10.41
  -4  -1  -9   53.98   11.63
   4   1  10    7.29   10.02
   4   1  10    0.83    7.94
  -4  -1 -10   13.82   11.54
   4   1  11   12.66   11.91
   4   1  11    0.16   12.45
  -4  -1 -11  -16.89   13.42
   4   1  12   30.54   14.37
   4   1  12   16.93   16.77
  -4  -1 -12   45.66   16.47
   4   2   0   87.74    7.13
   4   2   0  104.14    7.44
   4   2   0   79.91    8.05
  -4  -2   0   94.99    6.68
  -4  -2   0   97.74    6.72
  -4  -2   0   89.96    5.46
   4   2   1  100.68    6.86
   4   2   1  125.55    8.80
  -4  -2  -1  125.62    8.12
  -4  -2  -1  117.08    7.53
  -4  -2  -1  106.36    7.17
   4   2   2   42.78    5.30
   4   2   2   44.02    5.60
  -4  -2  -2   46.98    5.61
  -4  -2  -2   37.45    5.32
   4   2   3    6.09    4.84
   4   2   3    7.20    5.12
  -4  -2  -3    6.09    4.99
  -4  -2  -3    4.71    5.12
   4   2   4   76.46    7.22
   4   2   4   92.71    8.00
  -4  -2  -4  110.55    8.79
  -4  -2  -4   80.50    8.26
   4   2   5  259.44   14.67
   4   2   5  234.43   13.50
  -4  -2  -5  255.06   13.43
   4   2   6  269.63   14.19
  -4  -2  -6  305.69   18.09
   4   2   7  138.17   11.56
  -4  -2  -7  141.28   11.72
   4   2   8   57.14    7.91
  -4  -2  -8   44.75    9.30
   4   2   9   15.39    9.70
  -4  -2  -9   -0.77    9.85
   4   2  10   29.35   11.16
   4   2  10   20.16   10.74
  -4  -2 -10   27.67   12.54
   4   2  11   43.25   13.05
   4   2  11   14.33   13.35
  -4  -2 -11   58.58   14.73
   4   2  12   84.34   12.52
   4   2  12   75.57   16.16
  -4  -2 -12   67.93   17.48
   4   3   0  227.62   11.51
   4   3   0  230.05   11.57
   4   3   0  227.61   13.79
  -4  -3   0  236.76   11.84
  -4  -3   0  247.11   10.62
  -4  -3   0  202.20   10.12
   4   3   1   12.93    5.14
   4   3   1   19.98    4.61
  -4  -3  -1   16.51    4.68
  -4  -3  -1   13.27    4.61
  -4  -3  -1   15.99    4.53
   4   3   2   24.40    5.32
   4   3   2   33.39    5.55
  -4  -3  -2   36.14    5.33
  -4  -3  -2   31.31    5.27
   4   3   3   46.13    5.97
   4   3   3   33.00    5.78
  -4  -3  -3   44.25    6.29
   4   3   4  176.97   11.55
   4   3   4  205.54   11.37
  -4  -3  -4  177.27   11.19
  -4  -3  -4  206.84   10.65
   4   3   5  258.86   14.59
  -4  -3  -5  235.53   13.50
  -4  -3  -5  253.52   14.43
   4   3   6  246.37   14.08
  -4  -3  -6  242.39   15.06
  -4  -3  -6  204.78   12.80
   4   3   7  167.39   12.42
  -4  -3  -7  146.27   12.25
   4   3   8   55.91   10.13
  -4  -3  -8   48.44    9.82
   4   3   9   35.47   10.38
  -4  -3  -9   36.09   11.15
   4   3  10   65.70   12.47
   4   3  10   34.53   10.70
  -4  -3 -10   47.85   13.39
   4   3  11  180.72   17.61
   4   3  11  119.08   16.03
  -4  -3 -11  136.11   19.12
   4   3  12   79.43   16.84
  -4  -3 -12   57.30   18.19
   4   4   0   52.56    5.63
   4   4   0   56.12    6.32
  -4  -4   0   45.87    5.16
  -4  -4   0   45.62    6.03
  -4  -4   0   56.94    6.13
   4   4   1   50.91    6.11
   4   4   1   50.16    5.72
  -4  -4  -1   65.74    5.82
  -4  -4  -1   54.75    5.72
  -4  -4  -1   49.38    6.19
   4   4   2  112.54    7.60
   4   4   2  121.72    8.52
  -4  -4  -2  118.97    8.23
  -4  -4  -2   98.49    8.50
   4   4   3  434.93   20.95
   4   4   3  459.42   19.66
  -4  -4  -3  441.69   19.35
  -4  -4  -3  479.57   20.26
   4   4   4  389.69   18.24
  -4  -4  -4  356.67   17.75
  -4  -4  -4  392.68   18.55
   4   4   5  151.99   10.15
  -4  -4  -5  106.51   11.90
  -4  -4  -5  131.99    9.66
   4   4   6   44.22    6.93
  -4  -4  -6   82.85   11.44
  -4  -4  -6   57.75    8.35
   4   4   7   80.85   10.22
  -4  -4  -7   88.38   10.85
   4   4   8   70.23   11.27
  -4  -4  -8   61.47   11.90
   4   4   9  108.02   12.63
   4   4   9   93.34   11.18
  -4  -4  -9  113.00   13.57
   4   4  10  104.91   11.32
   4   4  10   46.61   11.42
  -4  -4 -10  126.57   14.26
   4   4  11   42.10   14.75
  -4  -4 -11   73.14   18.75
   4   4  12   31.87   15.25
  -4  -4 -12   12.20   18.45
   4   5   0  122.48    8.24
   4   5   0  142.55    8.78
  -4  -5   0  123.41    8.39
  -4  -5   0  109.11    8.45
  -4  -5   0  128.30    9.75
  -4  -5   0  118.71    8.74
   4   5   1  389.72   19.74
   4   5   1  439.81   18.00
  -4  -5  -1  460.92   20.71
  -4  -5  -1  413.53   20.04
   4   5   2  341.25   15.96
  -4  -5  -2  316.93   15.72
  -4  -5  -2  365.20   18.00
  -4  -5  -2  351.47   18.16
   4   5   3  227.22   12.62
  -4  -5  -3  241.37   13.48
  -4  -5  -3  257.51   14.22
   4   5   4  124.83    9.82
  -4  -5  -4  114.29   10.10
  -4  -5  -4  129.23   10.45
   4   5   5   16.84    7.40
  -4  -5  -5   17.51    9.85
  -4  -5  -5   32.89    7.87
   4   5   6   31.94    8.66
  -4  -5  -6   25.80    8.81
   4   5   7   59.54   10.69
  -4  -5  -7   75.41   11.02
   4   5   8  109.21   11.78
  -4  -5  -8  141.96   14.61
  -4  -5  -8   84.41    8.73
   4   5   9  100.51   14.07
  -4  -5  -9  126.57   16.57
   4   5  10   51.70   13.82
  -4  -5 -10   50.15   16.77
   4   5  11   31.62   15.58
  -4  -5 -11   27.92   17.74
   4   5  12   11.64   16.99
  -4  -5 -12    5.97   19.90
   4   6   0  180.12   10.49
   4   6   0  198.15   10.84
   4   6   0  122.03   12.80
  -4  -6   0  219.36   11.35
  -4  -6   0  188.49   13.75
  -4  -6   0  180.96   13.45
   4   6   1  114.30    8.53
  -4  -6  -1  120.83   10.09
  -4  -6  -1  138.91    8.74
  -4  -6  -1  118.12   11.43
  -4  -6  -1   97.55   10.51
   4   6   2  148.28   10.31
  -4  -6  -2  157.59   10.54
  -4  -6  -2  188.51   10.87
  -4  -6  -2  172.09   13.70
  -4  -6  -2  134.17   10.11
   4   6   3   37.80    7.67
  -4  -6  -3   46.90    8.57
  -4  -6  -3   46.70    7.99
  -4  -6  -3   44.87    8.12
   4   6   4   36.46    8.15
  -4  -6  -4   29.85    9.09
  -4  -6  -4   38.02    8.31
  -4  -6  -4   23.44    7.04
   4   6   5   73.02   10.22
  -4  -6  -5   43.25   10.72
  -4  -6  -5   80.07   10.22
  -4  -6  -5   59.82    8.35
   4   6   6  101.59   10.71
  -4  -6  -6  105.51   11.03
  -4  -6  -6   53.25    8.55
   4   6   7   40.58   10.51
  -4  -6  -7   60.48   11.92
  -4  -6  -7   41.71    8.29
   4   6   8   78.37   10.19
  -4  -6  -8   75.09   10.82
   4   6   9   59.58   11.09
  -4  -6  -9   64.10   12.65
   4   6  10    7.61   14.13
  -4  -6 -10   13.35   16.77
   4   6  11   15.44   16.21
  -4  -6 -11   14.67   20.07
   4   7   0   65.97    7.28
   4   7   0   43.51    9.99
  -4  -7   0   59.42    8.51
  -4  -7   0   80.92    7.15
  -4  -7   0   64.50    9.91
  -4  -7   0   54.43   10.53
   4   7   1   24.09    6.34
   4   7   1    6.17    7.72
  -4  -7  -1   24.27    8.88
  -4  -7  -1   34.29    6.81
  -4  -7  -1   17.30    8.36
  -4  -7  -1   15.43    8.91
   4   7   2   23.97    7.59
   4   7   2   12.66    7.02
  -4  -7  -2   19.79    9.83
  -4  -7  -2   23.66    6.97
  -4  -7  -2   23.37    8.90
  -4  -7  -2   18.16    8.76
   4   7   3   33.61    7.76
   4   7   3   22.29    6.79
  -4  -7  -3   24.99    9.67
  -4  -7  -3   32.99    8.22
  -4  -7  -3   40.77    9.33
  -4  -7  -3    9.90    8.95
   4   7   4   32.89    9.01
  -4  -7  -4   41.33   13.24
  -4  -7  -4   47.32    9.64
  -4  -7  -4   38.83    8.68
   4   7   5  100.37   11.89
  -4  -7  -5  131.14   12.87
   4   7   6  112.15   11.15
  -4  -7  -6  123.20   11.32
   4   7   7   20.07   11.83
  -4  -7  -7   27.54   12.76
   4   7   8   -1.87   13.99
  -4  -7  -8    6.06   10.26
   4   7   9    2.79   14.28
  -4  -7  -9    1.09   16.14
   4   7  10  -24.59   15.93
  -4  -7 -10    0.77   18.87
  -4  -8   0    9.35    6.94
  -4  -8   0   17.32    9.98
  -4  -8  -1   10.63    8.36
  -4  -8  -1   12.33    9.80
   4   8   2    9.75    8.69
  -4  -8  -2   11.43    7.32
  -4  -8  -2   13.54    9.93
   4   8   3   44.90    9.65
  -4  -8  -3   50.25    9.21
  -4  -8  -3   66.65   11.92
   4   8   4   97.33   12.07
  -4  -8  -4  115.39   11.82
  -4  -8  -4  108.80   14.49
   4   8   5   44.62   11.83
  -4  -8  -5   75.13   12.95
   4   8   6   27.80   12.14
  -4  -8  -6   26.11   12.75
   4   8   7   15.22   13.68
  -4  -8  -7    4.15   13.99
   4   8   8    9.69   14.76
  -4  -8  -8   17.68   16.30
   4   8   9   20.74   12.14
  -4  -8  -9   19.82   12.60
  -4  -9   0   12.19    7.93
  -4  -9   0   20.72   11.38
  -4  -9  -1   30.13    7.44
  -4  -9  -1   20.25   11.68
  -4  -9  -2   58.82    9.91
  -4  -9  -2   55.60   12.60
  -4  -9  -3   73.85   11.64
  -4  -9  -3   52.63   14.01
   4   9   4   59.32   14.18
  -4  -9  -4   51.06   12.07
  -4  -9  -4   34.94   14.08
   4   9   5    1.81   14.90
  -4  -9  -5   17.16   12.50
  -4  -9  -5   21.53   13.68
   4   9   6   30.32   15.55
  -4  -9  -6   23.08   14.34
   4   9   7   27.50   17.84
  -4  -9  -7    8.61   16.17
   4   9   8   52.35   20.15
  -4  -9  -8   91.68   20.06
  -4 -10   0   68.12    9.66
  -4 -10   0   63.09   15.24
  -4 -10  -1   91.00   11.42
  -4 -10  -1   80.14   15.61
  -4 -10  -2   82.99   12.23
  -4 -10  -2   63.87   15.68
  -4 -10  -3   60.18   12.82
  -4 -10  -3   18.34   15.46
  -4 -10  -4   25.11   13.23
  -4 -10  -4   27.26   15.41
  -4 -10  -5    6.48   13.98
  -4 -10  -5    9.55   17.06
  -4 -10  -6   15.93   15.64
  -4 -10  -6   13.99   17.33
  -4 -11  -1   59.99   13.55
  -4 -11  -1   69.61   19.02
   5  -7   1  112.32   20.90
  -5   7  -1   92.68   18.59
   5  -7   2  110.82   18.95
  -5   7  -2  146.64   19.44
   5  -7   3   67.39   17.86
  -5   7  -3   65.85   17.56
   5  -7   4   17.39   17.39
   5  -6   1  108.92   17.32
  -5   6  -1  138.85   15.80
   5  -6   2   88.84   14.55
  -5   6  -2  111.71   16.42
   5  -6   3   -0.31   15.62
  -5   6  -3    5.57   13.76
   5  -6   4    2.63   14.53
   5  -6   5   23.78   13.75
  -5   6  -5   35.98   16.68
   5  -6   6   26.51   18.03
  -5   6  -6    7.55   19.26
   5  -5   1   23.87   14.11
  -5   5  -1   55.48   12.26
   5  -5   2   -6.67   12.41
  -5   5  -2   -2.48   10.86
   5  -5   3    2.79   11.95
   5  -5   4   33.97   12.11
  -5   5  -4   33.82   13.19
   5  -5   5  125.81   15.86
  -5   5  -5  118.22   16.47
   5  -5   6  150.12   16.01
  -5   5  -6  148.88   18.31
   5  -5   7   42.84   14.49
  -5   5  -7   81.36   17.43
   5  -5   8   28.68   16.11
  -5   5  -8   48.47   17.34
   5  -4   1   46.65   11.67
  -5   4  -1   14.77    9.18
   5  -4   2   48.54   12.30
  -5   4  -2   43.56   10.59
   5  -4   3  106.87   13.26
   5  -4   4  186.26   16.58
  -5   4  -4  233.99   18.34
   5  -4   5  125.30   14.34
  -5   4  -5  138.35   16.36
   5  -4   6   81.95   13.50
  -5   4  -6   82.11   13.97
   5  -4   7   14.20   12.51
  -5   4  -7   21.00   14.36
   5  -4   8   11.22   13.06
  -5   4  -8   28.58   17.37
   5  -4   9   13.59   15.43
  -5   4  -9   28.10   17.72
   5  -3   1   50.64   11.23
  -5   3  -1   50.17    9.05
   5  -3   2  128.54   11.44
   5  -3   3  103.43   11.88
  -5   3  -3  151.88   12.23
   5  -3   4  115.83   12.66
  -5   3  -4  142.77   12.84
   5  -3   5   74.02   10.91
  -5   3  -5   98.28   12.16
   5  -3   6   85.81   12.59
  -5   3  -6  104.74   11.37
   5  -3   7   90.30   12.86
  -5   3  -7  107.46   15.34
   5  -3   8   56.31   13.40
  -5   3  -8   50.62   15.55
   5  -3   9   24.61   13.61
  -5   3  -9   44.18   16.82
   5  -3  10   59.94   16.40
   5  -3  10   43.15   14.82
  -5   3 -10   28.68   18.06
   5  -2   1  163.76   11.63
   5  -2   2  124.75   12.68
  -5   2  -2  170.29   12.41
   5  -2   3  231.72   16.65
  -5   2  -3  274.29   16.86
   5  -2   4   58.46    9.37
  -5   2  -4   84.65   10.00
  -5   2  -4   57.37    4.95
   5  -2   5   36.91    8.88
  -5   2  -5   28.04    9.04
   5  -2   6   34.66   10.26
  -5   2  -6   38.39   10.89
   5  -2   7  107.64   12.74
  -5   2  -7  105.94   14.74
   5  -2   8   70.88   13.42
  -5   2  -8   76.73   14.65
   5  -2   9   50.81   13.78
  -5   2  -9   59.84   15.93
   5  -2  10   37.96   16.86
  -5   2 -10   30.67   12.91
   5  -1   1  320.25   18.15
   5  -1   1  309.35   15.36
  -5   1  -1  408.43   18.28
  -5   1  -1  354.98   19.41
   5  -1   2   67.60    9.07
   5  -1   2  101.86    6.71
  -5   1  -2  107.41    9.56
   5  -1   3   29.21    7.66
   5  -1   3   23.47    4.28
  -5   1  -3   20.31    7.34
   5  -1   4   20.47    7.66
   5  -1   4   15.14    3.97
  -5   1  -4   18.59    7.81
  -5   1  -4    9.30    3.54
   5  -1   5   24.51    9.06
   5  -1   5   23.09    4.09
  -5   1  -5   22.48    8.28
  -5   1  -5   22.36    4.97
   5  -1   6   82.12   11.24
  -5   1  -6   92.09   12.33
   5  -1   7  133.99   12.63
  -5   1  -7  123.59   14.01
   5  -1   8  145.93   14.11
  -5   1  -8  149.33   17.65
   5  -1   9   40.94   13.35
  -5   1  -9   23.92   15.03
   5  -1  10   18.10   13.84
  -5   1 -10   -7.15   15.51
   5  -1  11   -2.56   14.77
   5  -1  11    3.43   14.88
  -5   1 -11    9.19   18.54
   5   0   0   51.86    7.20
   5   0   0   44.80    7.21
  -5   0   0   53.27    7.51
  -5   0   0   57.54    8.05
   5   0   1   18.29    6.88
   5   0   1    0.00    4.89
  -5   0  -1   22.98    6.25
  -5   0  -1   11.55    7.65
   5   0   2   32.39    7.36
   5   0   2   29.50    5.33
  -5   0  -2   22.69    6.57
  -5   0  -2   23.17    8.55
   5   0   3   13.94    7.21
   5   0   3   18.76    5.63
  -5   0  -3   28.99    7.21
  -5   0  -3   20.25   10.13
  -5   0  -3   14.84    2.31
   5   0   4  125.90   10.86
   5   0   4  134.25    8.94
  -5   0  -4  156.94   11.51
   5   0   5  238.53   14.69
  -5   0  -5  286.95   18.78
   5   0   6  125.91   12.08
  -5   0  -6  134.20   14.43
   5   0   7   21.50    9.35
  -5   0  -7   20.25   10.91
   5   0   8   41.36   11.00
  -5   0  -8   40.59   12.24
   5   0   9   20.76   12.30
  -5   0  -9   37.53   13.54
   5   0  10   19.52   13.42
  -5   0 -10   38.88   16.32
   5   0  11   56.36   12.55
   5   0  11   41.96   15.58
  -5   0 -11   63.31   18.59
   5   1   0    8.14    5.79
   5   1   0   12.74    6.37
  -5  -1   0    4.07    5.48
  -5  -1   0   -2.30    6.46
   5   1   1   24.30    6.59
   5   1   1   18.36    6.55
  -5  -1  -1   23.20    5.80
  -5  -1  -1   16.54    7.48
   5   1   2  146.28   10.59
   5   1   2  142.76    9.40
  -5  -1  -2  142.98    9.80
  -5  -1  -2  138.35   11.24
  -5  -1  -2  129.19    6.69
   5   1   3  207.62   12.85
   5   1   3  235.26   12.71
  -5  -1  -3  250.28   14.60
  -5  -1  -3  180.92   15.04
   5   1   4  254.61   14.31
  -5  -1  -4  288.01   17.78
   5   1   5  167.24   12.66
  -5  -1  -5  208.19   13.79
   5   1   6   43.52    9.75
  -5  -1  -6   36.14    7.86
   5   1   7   22.22    9.70
  -5  -1  -7    7.35   10.17
   5   1   8   14.00   10.11
  -5  -1  -8    3.58   11.05
   5   1   9  109.17   14.23
  -5  -1  -9   84.00   14.68
   5   1  10  126.75   14.58
  -5  -1 -10  130.89   15.04
   5   1  11  164.56   19.46
   5   1  11   51.82   17.88
  -5  -1 -11  139.08   20.81
   5   2   0   22.92    6.28
   5   2   0   10.61    7.36
  -5  -2   0   13.34    5.49
  -5  -2   0   20.52    8.04
   5   2   1  125.64   10.12
   5   2   1   96.55    9.21
  -5  -2  -1  136.03   10.45
  -5  -2  -1  108.56    9.19
  -5  -2  -1  105.66    6.64
   5   2   2  150.01   10.64
   5   2   2  164.23   12.06
  -5  -2  -2  179.38   11.45
  -5  -2  -2  174.53   11.03
  -5  -2  -2  152.04    9.40
   5   2   3  262.03   15.47
  -5  -2  -3  328.65   16.01
  -5  -2  -3  254.30   15.07
   5   2   4  169.77   11.63
  -5  -2  -4  192.90   14.32
  -5  -2  -4  185.77   14.58
   5   2   5   63.15    9.82
  -5  -2  -5   57.13    7.77
   5   2   6   19.26    8.53
  -5  -2  -6   22.10    9.79
   5   2   7   81.59   11.18
  -5  -2  -7   89.93   12.12
   5   2   8   77.99   12.52
  -5  -2  -8   79.71   12.83
   5   2   9  139.01   15.86
  -5  -2  -9  125.51   15.39
   5   2  10  238.45   19.93
  -5  -2 -10  230.29   18.39
   5   2  11   77.89   17.69
   5   2  11   45.50   19.15
  -5  -2 -11   81.54   19.52
   5   3   0  209.99   12.27
   5   3   0  163.15   13.63
  -5  -3   0  213.61   12.43
  -5  -3   0  194.77   12.67
  -5  -3   0  170.91   10.89
   5   3   1  247.28   14.06
   5   3   1  199.83   15.08
  -5  -3  -1  276.52   13.64
  -5  -3  -1  221.80   12.77
  -5  -3  -1  229.96   12.30
   5   3   2  259.95   14.73
  -5  -3  -2  278.50   14.76
  -5  -3  -2  244.56   15.36
  -5  -3  -2  253.19   14.06
   5   3   3  180.92   12.47
  -5  -3  -3  216.67   13.45
  -5  -3  -3  190.14   13.50
   5   3   4   52.78    8.59
  -5  -3  -4   61.05    9.55
  -5  -3  -4   39.63   10.36
   5   3   5   12.39    5.72
  -5  -3  -5   30.18    9.38
   5   3   6  101.91   11.91
  -5  -3  -6  114.11   12.55
   5   3   7  178.70   15.21
  -5  -3  -7  179.64   14.42
   5   3   8  201.41   17.95
  -5  -3  -8  213.97   17.65
   5   3   9   75.77   14.51
  -5  -3  -9   48.17   14.19
   5   3  10   27.84   10.83
  -5  -3 -10   49.18   16.55
   5   3  11   13.49   17.01
  -5  -3 -11   26.52   16.86
   5   4   0  491.62   22.90
  -5  -4   0  641.94   28.20
  -5  -4   0  601.73   25.18
  -5  -4   0  541.40   24.41
   5   4   1  255.57   14.95
  -5  -4  -1  284.35   14.69
  -5  -4  -1  254.31   15.15
  -5  -4  -1  267.92   15.40
   5   4   2   98.68    9.72
  -5  -4  -2  115.97    8.80
  -5  -4  -2  105.35   10.12
  -5  -4  -2   90.14    9.15
   5   4   3   20.67    8.43
  -5  -4  -3   30.21    7.48
  -5  -4  -3   34.50    9.15
  -5  -4  -3   29.62    7.75
   5   4   4   20.69    8.91
  -5  -4  -4   17.98    8.60
  -5  -4  -4    9.20    9.75
   5   4   5   54.09    9.71
  -5  -4  -5   50.59    9.87
   5   4   6  156.42   13.55
  -5  -4  -6  172.94   14.67
   5   4   7  163.50   16.03
  -5  -4  -7  145.61   15.39
   5   4   8   84.11   13.56
  -5  -4  -8  102.38   14.82
   5   4   9   34.44   10.80
  -5  -4  -9   39.92   11.27
   5   4  10   10.41   15.69
  -5  -4 -10   -9.17   14.76
   5   4  11    0.00   16.18
  -5  -4 -11   16.64   19.72
   5   5   0  129.38   10.07
  -5  -5   0  141.81    9.64
  -5  -5   0  143.69   10.16
  -5  -5   0  129.25   10.55
   5   5   1   94.53    9.24
  -5  -5  -1   97.84    8.93
  -5  -5  -1   85.11    9.17
  -5  -5  -1   90.52    9.65
   5   5   2    8.86    7.12
  -5  -5  -2   20.10    7.44
  -5  -5  -2   18.09    8.49
  -5  -5  -2   20.28    7.87
   5   5   3    5.71    8.25
  -5  -5  -3   16.65    7.77
  -5  -5  -3   -0.41    8.97
  -5  -5  -3   13.68    8.82
   5   5   4   32.56    9.69
  -5  -5  -4   46.06    9.22
   5   5   5  118.51   12.44
  -5  -5  -5  148.38   13.26
   5   5   6   92.52   12.25
  -5  -5  -6  127.44   13.38
   5   5   7   92.30   14.11
  -5  -5  -7   95.47   14.11
   5   5   8   28.70   14.83
  -5  -5  -8   48.58   13.88
   5   5   9    3.14   14.43
  -5  -5  -9    3.77   15.38
   5   5  10   -3.27   14.96
  -5  -5 -10    6.55   18.24
   5   6   0   -1.41    6.59
  -5  -6   0   -2.98    5.65
  -5  -6   0   -9.29    7.52
  -5  -6   0  -11.37    9.82
   5   6   1    9.90    7.38
  -5  -6  -1   11.62    6.29
  -5  -6  -1   15.55    7.93
  -5  -6  -1    4.04   10.09
   5   6   2   35.88    8.67
  -5  -6  -2   44.85    9.31
  -5  -6  -2   39.98    9.06
  -5  -6  -2   28.67   10.86
   5   6   3   63.55    9.66
  -5  -6  -3   67.33    9.82
  -5  -6  -3   78.58   10.82
  -5  -6  -3   57.18   10.75
   5   6   4   92.56   11.60
  -5  -6  -4  107.25   12.09
  -5  -6  -4  103.49   12.34
  -5  -6  -4   85.04   11.43
   5   6   5  155.72   11.85
  -5  -6  -5  152.40   14.51
  -5  -6  -5   93.06   13.48
   5   6   6   51.85   12.82
  -5  -6  -6   43.94   12.34
  -5  -6  -6   35.78   10.48
   5   6   7  -11.84   13.42
  -5  -6  -7    6.00   14.84
   5   6   8   12.91   10.55
  -5  -6  -8    1.89   10.86
   5   6   9   12.39   11.45
  -5  -6  -9    4.08   12.39
  -5  -7   0   14.01    6.85
  -5  -7   0    6.32    9.55
  -5  -7   0   17.03   12.30
  -5  -7  -1   21.50    8.11
  -5  -7  -1   33.63   10.27
  -5  -7  -1   21.72   12.75
   5   7   2   82.51   10.86
  -5  -7  -2  102.01   10.61
  -5  -7  -2  101.18   12.22
  -5  -7  -2   55.87   12.94
   5   7   3  107.65   13.26
  -5  -7  -3  134.52   13.49
  -5  -7  -3  126.93   15.09
  -5  -7  -3  136.00   14.35
   5   7   4   80.13   12.28
  -5  -7  -4   86.85   12.30
  -5  -7  -4   71.75   13.08
  -5  -7  -4   54.84   12.51
   5   7   5   10.50   12.38
  -5  -7  -5   -2.35   12.22
  -5  -7  -5    6.03    9.84
   5   7   6   15.68   14.27
  -5  -7  -6    0.47   13.64
  -5  -7  -6    5.26    9.24
   5   7   7    7.68   14.58
  -5  -7  -7    3.13   15.83
   5   7   8   39.91   17.07
  -5  -7  -8   34.90   17.06
   5   7   9   70.54   20.93
  -5  -7  -9   88.80   20.47
  -5  -8   0   62.81    8.76
  -5  -8   0   60.19   14.33
  -5  -8  -1   54.02    9.41
  -5  -8  -1   54.16   13.33
  -5  -8  -2   40.60   10.03
  -5  -8  -2   37.73   13.03
  -5  -8  -2   22.86    9.28
  -5  -8  -2   22.86    9.28
  -5  -8  -3   26.65   11.88
  -5  -8  -3   27.27   12.88
  -5  -8  -4   27.01   13.13
  -5  -8  -4   40.38   14.29
   5   8   5   17.62   13.61
  -5  -8  -5   31.85   13.93
  -5  -8  -5   28.36   13.87
   5   8   6   49.53   15.82
  -5  -8  -6   51.08   11.81
   5   8   7   72.64   18.02
  -5  -8  -7   88.74   16.19
  -5  -9   0   84.06   10.92
  -5  -9   0   76.77   16.27
   5   9   1   58.83   15.31
  -5  -9  -2   41.43   11.34
  -5  -9  -2   17.14   14.16
  -5  -9  -3   43.21   12.43
  -5  -9  -3   33.22   14.50
  -5  -9  -4   28.77   14.25
  -5  -9  -4   21.75   14.40
  -5  -9  -5   24.88   15.34
  -5  -9  -5   20.07   16.80
  -5  -9  -6   66.27   12.58
  -5  -9  -6   35.55   18.81
   6  -5   1   89.02   20.76
  -6   5  -1  105.54   18.74
   6  -5   2  197.71   22.76
   6  -5   3  122.04   19.94
  -6   5  -3  118.90   20.87
   6  -5   4   54.61   18.06
  -6   5  -4   38.60   18.84
   6  -4   1  134.33   18.23
   6  -4   2   95.34   17.62
  -6   4  -2  100.68   17.15
   6  -4   3   45.63   16.37
  -6   4  -3  101.96   16.87
   6  -4   4  -16.23   14.81
  -6   4  -4    0.16   15.60
   6  -4   5   14.81   15.45
  -6   4  -5   17.49   16.86
   6  -4   6   17.63   16.37
  -6   4  -6   39.52   18.58
   6  -3   1   83.92   13.88
   6  -3   2   59.76   14.05
  -6   3  -2   76.79   14.37
   6  -3   3   29.84   13.74
  -6   3  -3   44.53   14.53
   6  -3   4    4.90   13.91
  -6   3  -4   35.40   15.18
   6  -3   5   28.29   15.33
  -6   3  -5   51.04   15.18
   6  -3   6   76.22   16.43
  -6   3  -6  116.45   18.81
   6  -3   7   62.92   17.63
  -6   3  -7   89.98   15.13
   6  -2   1   13.75   10.90
  -6   2  -1   27.81   11.70
   6  -2   2    0.47   11.07
  -6   2  -2    3.48   10.92
   6  -2   3   -3.01   11.72
  -6   2  -3    3.17   11.56
   6  -2   4   23.61   12.84
  -6   2  -4   39.46   13.47
   6  -2   5   67.95   15.22
  -6   2  -5   97.88   16.02
   6  -2   6  111.46   17.26
  -6   2  -6  122.37   18.85
   6  -2   7   56.40   16.23
  -6   2  -7   62.23   17.97
   6  -2   8   34.00   17.40
  -6   2  -8   31.03   19.12
   6  -1   1   28.85   10.78
  -6   1  -1   24.73   10.31
   6  -1   2   12.22   10.31
  -6   1  -2   17.93    9.84
   6  -1   3   40.98   11.92
  -6   1  -3   58.92   11.13
   6  -1   4  150.46   15.46
  -6   1  -4  167.14   15.32
   6  -1   5  159.56   16.41
  -6   1  -5  142.73   16.71
   6  -1   6   17.11   13.78
  -6   1  -6   11.56   14.10
   6  -1   7   29.51   14.83
  -6   1  -7   47.02   15.94
   6  -1   8   27.45   16.16
  -6   1  -8   25.26   17.89
   6   0   0   17.80   11.28
  -6   0   0   40.37   10.97
   6   0   1  132.96   13.25
  -6   0  -1  172.72   13.28
   6   0   2  129.91   13.42
  -6   0  -2  185.64   14.57
   6   0   3  109.63   12.78
  -6   0  -3  164.77   14.40
   6   0   4   91.01   13.09
  -6   0  -4  101.84   13.73
   6   0   5   64.48   13.07
  -6   0  -5   56.84   12.90
   6   0   6   32.40   10.17
  -6   0  -6   27.00   10.64
   6   0   7   27.99   14.23
  -6   0  -7   36.53   16.76
   6   0   8   88.47   16.99
  -6   0  -8  116.29   19.35
   6   0   9  110.23   19.36
  -6   0  -9  100.09   15.15
   6   1   0   74.46   11.18
  -6  -1   0  121.97   11.53
   6   1   1  122.27   13.13
  -6  -1  -1  155.79   14.10
   6   1   2  181.55   13.50
  -6  -1  -2  184.59   13.50
   6   1   3  120.77   12.67
  -6  -1  -3  125.89   13.31
   6   1   4   60.46   11.21
  -6  -1  -4   58.22   12.16
   6   1   5   25.24   11.18
  -6  -1  -5   15.50   11.18
   6   1   6  103.22   14.68
  -6  -1  -6  110.07   15.00
   6   1   7  111.94   16.51
  -6  -1  -7  102.90   16.35
   6   1   8  109.49   17.04
  -6  -1  -8  101.92   18.13
   6   1   9  123.14   19.71
  -6  -1  -9  130.32   21.28
   6   2   0  127.78   13.48
  -6  -2   0  153.21   12.86
   6   2   1   62.63   12.34
  -6  -2  -1   87.62   12.36
   6   2   2   68.34   10.92
  -6  -2  -2   78.76   11.09
   6   2   3   63.10   10.77
  -6  -2  -3   83.49   11.42
   6   2   4   55.38   11.40
  -6  -2  -4   96.64   12.54
   6   2   5   90.24   14.28
  -6  -2  -5  108.67   11.57
   6   2   6  152.44   16.66
  -6  -2  -6  163.15   16.98
   6   2   7  144.72   17.84
  -6  -2  -7  158.55   18.01
   6   2   8   28.76   15.01
  -6  -2  -8    3.48   16.12
   6   2   9   -0.31   16.14
  -6  -2  -9   47.81   18.03
   6   3   0   60.09   10.11
  -6  -3   0  102.07   10.93
   6   3   1   16.22    8.99
  -6  -3  -1   25.85    8.99
   6   3   2    6.11    9.01
  -6  -3  -2   37.15    9.97
  -6  -3  -2   15.36    5.67
   6   3   3   83.86   11.61
  -6  -3  -3   89.01   11.29
  -6  -3  -3   75.40    8.03
   6   3   4   90.44   12.57
  -6  -3  -4  121.50   13.71
  -6  -3  -4   74.61   10.53
   6   3   5  158.44   15.79
  -6  -3  -5  172.09   17.40
   6   3   6   59.92   14.26
  -6  -3  -6   75.94   13.95
   6   3   7    5.10   14.67
  -6  -3  -7   -3.83   13.55
   6   3   8   -1.74   15.53
  -6  -3  -8   14.90   16.64
   6   3   9   18.87   16.83
  -6  -3  -9   15.41   17.77
   6   4   0   20.34    8.49
  -6  -4   0   29.31    8.17
  -6  -4   0   16.87    5.77
   6   4   1   34.35    9.48
  -6  -4  -1   38.53    8.68
  -6  -4  -1   13.75    6.29
   6   4   2   34.09    9.65
  -6  -4  -2   30.88    9.33
  -6  -4  -2   25.71    7.87
   6   4   3   68.26   12.41
  -6  -4  -3   68.26   11.93
  -6  -4  -3   62.24   10.62
   6   4   4  121.07   14.84
  -6  -4  -4  110.60   13.87
  -6  -4  -4  100.20   12.22
   6   4   5   64.96   15.12
  -6  -4  -5   72.68   13.04
   6   4   6   26.78   13.63
  -6  -4  -6   11.07   12.99
   6   4   7   26.52   15.18
  -6  -4  -7   -2.08   14.70
   6   4   8   35.90   17.16
  -6  -4  -8   17.79   15.73
  -6  -5   0   15.01    8.15
  -6  -5   0   15.66    7.90
  -6  -5  -1  114.09   11.13
  -6  -5  -1  106.22   10.86
   6   5   2  128.08   15.14
  -6  -5  -2  118.46   12.58
  -6  -5  -2  127.99   12.93
   6   5   3   81.06   14.15
  -6  -5  -3   73.35   11.58
  -6  -5  -3   59.28   11.96
   6   5   4   65.84   15.11
  -6  -5  -4   68.41   12.38
  -6  -5  -4   36.48   10.78
   6   5   5    5.78   14.28
  -6  -5  -5   24.88   13.16
  -6  -5  -5   -0.77   10.52
   6   5   6   19.22   14.90
  -6  -5  -6   -7.05   13.62
   6   5   7    1.92   16.61
  -6  -5  -7   12.46   15.33
   6   5   8   28.77   18.92
  -6  -5  -8   49.91   16.85
  -6  -6   0   82.93   11.83
  -6  -6   0   73.09   12.06
  -6  -6   0   45.72   16.04
  -6  -6  -1  160.00   14.53
  -6  -6  -1  139.00   14.03
  -6  -6  -1  110.62   17.82
  -6  -6  -2  111.98   13.96
  -6  -6  -2  124.14   15.60
  -6  -6  -3   22.01   11.17
  -6  -6  -3   18.00   10.38
   6   6   4  -13.57   13.73
  -6  -6  -4    6.07   12.13
  -6  -6  -4    6.45   10.91
   6   6   5    7.66   14.05
  -6  -6  -5  -11.18   12.62
  -6  -6  -5   -0.46   12.08
   6   6   6    5.58   16.75
  -6  -6  -6   23.77   14.68
   6   6   7  119.06   19.30
  -6  -6  -7  116.04   15.64
  -6  -7   0  111.58   11.80
  -6  -7   0   96.90   13.55
  -6  -7   0   42.52   14.09
  -6  -7  -1   25.05   11.04
  -6  -7  -1   44.43   14.08
  -6  -7  -1   -6.31   16.09
  -6  -7  -2   15.77   12.31
  -6  -7  -2   -8.57   13.68
  -6  -7  -2   -8.35   10.25
  -6  -7  -3   27.48   14.22
  -6  -7  -3   24.91   12.16
  -6  -7  -3   27.75   12.00
  -6  -7  -4   15.97   15.03
  -6  -7  -4   31.43   14.11
  -6  -7  -4    8.21   10.90
  -6  -7  -5   48.43   12.05
  -6  -7  -5   29.43   19.21
  -6  -7  -5   36.10   16.63
  -6  -7  -6  129.75   21.14
  -6  -7  -6  135.54   19.96
  -6  -8   0   52.72   10.86
  -6  -8   0   53.88   17.39
  -6  -8   0   27.87   14.82
  -6  -8  -1   19.24   13.81
  -6  -8  -1   16.65   14.00
  -6  -8  -1    2.07   19.10
  -6  -8  -2   31.71   13.39
  -6  -8  -2   21.51   14.04
  -6  -8  -2   -7.80   18.15
  -6  -8  -3   40.48   14.82
  -6  -8  -3   25.40   14.82
  -6  -8  -3   36.51   17.71
   7  -2   1   34.13   17.79
  -7   2  -1   75.32   17.00
   7  -2   2   47.79   19.25
  -7   2  -2   61.11   17.33
   7  -1   1  132.40   19.85
  -7   1  -1  200.37   21.67
   7  -1   2   65.90   16.93
  -7   1  -2   91.35   16.46
   7  -1   3   -5.80   16.92
  -7   1  -3   29.82   16.28
   7  -1   4   15.63   17.73
  -7   1  -4   26.10   17.89
   7   0   0  137.61   18.50
  -7   0   0  160.76   16.90
   7   0   1   80.42   16.68
  -7   0  -1   88.67   16.20
   7   0   2   23.62   15.21
  -7   0  -2   50.32   13.60
   7   0   3   -6.79   16.01
  -7   0  -3   -5.18   14.24
   7   0   4   14.71   17.13
  -7   0  -4   20.04   15.52
   7   0   5   37.76   19.37
  -7   0  -5   68.58   18.24
   7   1   0   79.82   14.00
   7   1   1   30.38   15.27
  -7  -1  -1   30.54   13.97
   7   1   2   24.69   13.97
  -7  -1  -2   40.44   14.46
   7   1   3   55.68   16.56
  -7  -1  -3   77.26   13.65
   7   1   4   54.80   17.84
  -7  -1  -4   37.94   16.86
   7   1   5   79.43   19.59
  -7  -1  -5   96.91   19.27
   7   2   0    2.12   11.74
   7   2   1   25.75   13.04
   7   2   2   68.09   16.46
  -7  -2  -2   80.80   15.33
   7   2   3   83.83   16.62
  -7  -2  -3  102.23   17.11
   7   2   4   74.61   18.38
  -7  -2  -4   98.34   17.90
   7   2   5   30.65   17.84
  -7  -2  -5   19.30   16.38
   7   3   0   28.90   12.41
   7   3   1    7.35   12.41
   7   3   2   55.31   14.69
   7   3   3   15.98   18.42
  -7  -3  -3   60.98   15.33
   7   3   4   42.17   17.26
  -7  -3  -4   71.96   16.62
   7   3   5   38.16   15.59
  -7  -3  -5   49.37   16.57
   7   4   0   58.05   13.06
   7   4   1  107.80   14.55
   7   4   2   40.11   13.54
   7   4   3   39.93   15.00
   7   4   4    2.60   16.11
   7   5   0  103.95   14.34
   7   5   1   67.10   13.83
   7   5   2   11.86   13.49
   7   5   2   11.86   13.49
;
_shelx_hkl_checksum              63091
loop_
_space_group_symop_operation_xyz
'x, y, z'
'-x, -y, -z'
loop_
_atom_site_label
_atom_site_type_symbol
_atom_site_fract_x
_atom_site_fract_y
_atom_site_fract_z
_atom_site_U_iso_or_equiv
_atom_site_adp_type
_atom_site_occupancy
_atom_site_site_symmetry_order
_atom_site_calc_flag
_atom_site_refinement_flags_posn
_atom_site_refinement_flags_adp
_atom_site_refinement_flags_occupancy
Sn Sn 0.0000 1.0000 0.0000 0.01629(11) Uani 1 2 d S . P
P P 0.56166(14) 0.79793(9) -0.14438(8) 0.01536(18) Uani 1 1 d . . .
O1 O 0.2981(4) 0.8899(2) -0.1411(2) 0.0184(5) Uani 1 1 d . . .
O2 O 0.5410(4) 0.6169(2) -0.1176(2) 0.0228(5) Uani 1 1 d . . .
O3 O 0.7397(4) 0.8347(2) -0.0476(2) 0.0205(5) Uani 1 1 d . . .
C1 C 0.7068(7) 0.8169(4) -0.3057(3) 0.0299(8) Uani 1 1 d . . .
H1A H 0.8832 0.7627 -0.3099 0.045 Uiso 1 1 calc R U .
H1B H 0.7104 0.9279 -0.3304 0.045 Uiso 1 1 calc R U .
H1C H 0.6066 0.7706 -0.3658 0.045 Uiso 1 1 calc R U .
C2 C 0.3324(7) 0.5474(4) -0.1631(4) 0.0297(8) Uani 1 1 d . . .
H2A H 0.3435 0.4375 -0.1322 0.045 Uiso 1 1 calc R U .
H2B H 0.3441 0.5538 -0.2585 0.045 Uiso 1 1 calc R U .
H2C H 0.1675 0.6036 -0.1296 0.045 Uiso 1 1 calc R U .
C3 C 0.1301(6) 0.8299(4) 0.1462(3) 0.0182(7) Uani 1 1 d . . .
H3A H 0.1776 0.7282 0.1050 0.022 Uiso 1 1 calc R U .
H3B H 0.2889 0.8600 0.1775 0.022 Uiso 1 1 calc R U .
C4 C -0.0584(6) 0.8065(4) 0.2635(3) 0.0208(7) Uani 1 1 d . . .
H4A H -0.2240 0.7861 0.2329 0.025 Uiso 1 1 calc R U .
H4B H -0.0916 0.9041 0.3115 0.025 Uiso 1 1 calc R U .
C5 C 0.0385(6) 0.6719(4) 0.3562(3) 0.0256(8) Uani 1 1 d . . .
H5A H -0.1067 0.6467 0.4179 0.031 Uiso 1 1 calc R U .
H5B H 0.0986 0.5783 0.3053 0.031 Uiso 1 1 calc R U .
C6 C 0.2562(7) 0.7071(5) 0.4327(4) 0.0325(9) Uani 1 1 d . . .
H6A H 0.3053 0.6180 0.4924 0.049 Uiso 1 1 calc R U .
H6B H 0.1991 0.8004 0.4826 0.049 Uiso 1 1 calc R U .
H6C H 0.4049 0.7258 0.3725 0.049 Uiso 1 1 calc R U .
loop_
_atom_site_aniso_label
_atom_site_aniso_U_11
_atom_site_aniso_U_22
_atom_site_aniso_U_33
_atom_site_aniso_U_23
_atom_site_aniso_U_13
_atom_site_aniso_U_12
Sn 0.01031(16) 0.02034(18) 0.01819(18) -0.00045(13) -0.00303(12) -0.00084(12)
P 0.0098(4) 0.0184(4) 0.0180(4) -0.0032(4) -0.0020(3) -0.0006(3)
O1 0.0123(11) 0.0227(11) 0.0184(11) -0.0038(9) -0.0006(9) 0.0051(9)
O2 0.0183(12) 0.0184(11) 0.0332(14) -0.0034(10) -0.0103(10) -0.0013(9)
O3 0.0150(11) 0.0229(12) 0.0254(12) -0.0024(10) -0.0081(9) -0.0051(9)
C1 0.0188(18) 0.043(2) 0.0274(19) -0.0067(17) 0.0021(15) -0.0030(16)
C2 0.031(2) 0.0227(17) 0.039(2) -0.0038(16) -0.0145(17) -0.0101(15)
C3 0.0150(15) 0.0200(15) 0.0197(16) -0.0012(14) -0.0060(13) 0.0003(13)
C4 0.0160(16) 0.0267(17) 0.0199(17) 0.0029(14) -0.0023(13) -0.0041(13)
C5 0.0206(18) 0.0283(18) 0.0270(19) 0.0049(15) -0.0014(15) -0.0028(14)
C6 0.025(2) 0.043(2) 0.029(2) 0.0093(18) -0.0064(16) -0.0024(17)
loop_
_atom_type_symbol
_atom_type_description
_atom_type_scat_dispersion_real
_atom_type_scat_dispersion_imag
_atom_type_scat_source
C C 0.0033 0.0016 'International Tables Vol C Tables 4.2.6.8 and 6.1.1.4'
H H 0.0000 0.0000 'International Tables Vol C Tables 4.2.6.8 and 6.1.1.4'
O O 0.0106 0.0060 'International Tables Vol C Tables 4.2.6.8 and 6.1.1.4'
P P 0.1023 0.0942 'International Tables Vol C Tables 4.2.6.8 and 6.1.1.4'
Sn Sn -0.6537 1.4246 'International Tables Vol C Tables 4.2.6.8 and 6.1.1.4'
loop_
_geom_angle_atom_site_label_1
_geom_angle_atom_site_label_2
_geom_angle_atom_site_label_3
_geom_angle
_geom_angle_site_symmetry_1
_geom_angle_site_symmetry_3
C3 Sn C3 180.00(13) . 2_575
C3 Sn O1 89.56(10) . .
C3 Sn O1 90.44(10) 2_575 .
C3 Sn O1 90.44(10) . 2_575
C3 Sn O1 89.56(10) 2_575 2_575
O1 Sn O1 180.00(8) . 2_575
C3 Sn O3 86.68(10) . 1_455
C3 Sn O3 93.32(10) 2_575 1_455
O1 Sn O3 89.33(8) . 1_455
O1 Sn O3 90.67(8) 2_575 1_455
C3 Sn O3 93.32(10) . 2_675
C3 Sn O3 86.68(10) 2_575 2_675
O1 Sn O3 90.67(8) . 2_675
O1 Sn O3 89.33(8) 2_575 2_675
O3 Sn O3 180.00(11) 1_455 2_675
O3 P O1 117.48(13) . .
O3 P O2 104.34(12) . .
O1 P O2 110.43(12) . .
O3 P C1 110.55(15) . .
O1 P C1 107.55(15) . .
O2 P C1 105.93(15) . .
P O1 Sn 139.77(13) . .
C2 O2 P 120.8(2) . .
P O3 Sn 144.84(13) . 1_655
P C1 H1A 109.5 . .
P C1 H1B 109.5 . .
H1A C1 H1B 109.5 . .
P C1 H1C 109.5 . .
H1A C1 H1C 109.5 . .
H1B C1 H1C 109.5 . .
O2 C2 H2A 109.5 . .
O2 C2 H2B 109.5 . .
H2A C2 H2B 109.5 . .
O2 C2 H2C 109.5 . .
H2A C2 H2C 109.5 . .
H2B C2 H2C 109.5 . .
C4 C3 Sn 116.5(2) . .
C4 C3 H3A 108.2 . .
Sn C3 H3A 108.2 . .
C4 C3 H3B 108.2 . .
Sn C3 H3B 108.2 . .
H3A C3 H3B 107.3 . .
C3 C4 C5 113.1(3) . .
C3 C4 H4A 109.0 . .
C5 C4 H4A 109.0 . .
C3 C4 H4B 109.0 . .
C5 C4 H4B 109.0 . .
H4A C4 H4B 107.8 . .
C6 C5 C4 113.5(3) . .
C6 C5 H5A 108.9 . .
C4 C5 H5A 108.9 . .
C6 C5 H5B 108.9 . .
C4 C5 H5B 108.9 . .
H5A C5 H5B 107.7 . .
C5 C6 H6A 109.5 . .
C5 C6 H6B 109.5 . .
H6A C6 H6B 109.5 . .
C5 C6 H6C 109.5 . .
H6A C6 H6C 109.5 . .
H6B C6 H6C 109.5 . .
loop_
_geom_bond_atom_site_label_1
_geom_bond_atom_site_label_2
_geom_bond_distance
_geom_bond_site_symmetry_2
Sn C3 2.136(3) .
Sn C3 2.136(3) 2_575
Sn O1 2.201(2) .
Sn O1 2.201(2) 2_575
Sn O3 2.204(2) 1_455
Sn O3 2.204(2) 2_675
P O3 1.499(2) .
P O1 1.500(2) .
P O2 1.589(2) .
P C1 1.779(3) .
O2 C2 1.441(4) .
O3 Sn 2.204(2) 1_655
C1 H1A 0.9800 .
C1 H1B 0.9800 .
C1 H1C 0.9800 .
C2 H2A 0.9800 .
C2 H2B 0.9800 .
C2 H2C 0.9800 .
C3 C4 1.519(4) .
C3 H3A 0.9900 .
C3 H3B 0.9900 .
C4 C5 1.526(4) .
C4 H4A 0.9900 .
C4 H4B 0.9900 .
C5 C6 1.515(5) .
C5 H5A 0.9900 .
C5 H5B 0.9900 .
C6 H6A 0.9800 .
C6 H6B 0.9800 .
C6 H6C 0.9800 .
loop_
_geom_torsion_atom_site_label_1
_geom_torsion_atom_site_label_2
_geom_torsion_atom_site_label_3
_geom_torsion_atom_site_label_4
_geom_torsion
_geom_torsion_site_symmetry_4
O3 P O1 Sn -33.9(2) .
O2 P O1 Sn 85.6(2) .
C1 P O1 Sn -159.3(2) .
O3 P O2 C2 161.5(3) .
O1 P O2 C2 34.4(3) .
C1 P O2 C2 -81.7(3) .
O1 P O3 Sn -77.7(3) 1_655
O2 P O3 Sn 159.7(2) 1_655
C1 P O3 Sn 46.2(3) 1_655
Sn C3 C4 C5 174.1(2) .
C3 C4 C5 C6 71.9(4) .
