#------------------------------------------------------------------------------
#$Date: 2015-09-08 09:24:02 +0300 (Tue, 08 Sep 2015) $
#$Revision: 155199 $
#$URL: svn://www.crystallography.net/cod/cif/7/22/20/7222038.cif $
#------------------------------------------------------------------------------
#
# This file is available in the Crystallography Open Database (COD),
# http://www.crystallography.net/
#
# All data on this site have been placed in the public domain by the
# contributors.
#
data_7222038
loop_
_publ_author_name
'Percino, M. Judith'
'Pacheco, Jos\'e Alberto'
'Soriano, Guillermo'
'Ceron, Margarita'
'Castro, Mar\'ia Eugenia'
'Chapela, V\'ictor M.'
'bonilla-cruz, jose'
'Lara, Tania'
'Flores, Mildred'
'Saldivar, Enrique'
_publ_section_title
;
 Synthesis, characterization and theoretical calculations of model
 compounds of silanols catalyzed by TEMPO to elucidate the presence of
 Si-O-Si and Si-O-N bonds.
;
_journal_name_full               'RSC Adv.'
_journal_paper_doi               10.1039/C5RA10056A
_journal_year                    2015
_chemical_formula_moiety         'C36 H30 O Si2'
_chemical_formula_sum            'C36 H30 O Si2'
_chemical_formula_weight         534.78
_chemical_melting_point          498
_chemical_name_common            'hexaphenyldisiloxane '
_chemical_name_systematic        di(triphenylsilane)ether
_space_group_crystal_system      triclinic
_space_group_IT_number           2
_space_group_name_Hall           '-P 1'
_space_group_name_H-M_alt        'P -1'
_symmetry_space_group_name_Hall  '-P 1'
_symmetry_space_group_name_H-M   'P -1'
_atom_sites_solution_hydrogens   geom
_atom_sites_solution_primary     direct
_atom_sites_solution_secondary   difmap
_audit_creation_method           SHELXL-2013
_audit_update_record
;
2015-05-09 deposited with the CCDC.
2015-09-02 downloaded from the CCDC.
;
_cell_angle_alpha                95.951(4)
_cell_angle_beta                 111.779(4)
_cell_angle_gamma                113.352(4)
_cell_formula_units_Z            1
_cell_length_a                   8.5829(4)
_cell_length_b                   9.4856(4)
_cell_length_c                   10.9694(5)
_cell_measurement_reflns_used    7041
_cell_measurement_temperature    110(2)
_cell_measurement_theta_max      71.95
_cell_measurement_theta_min      4.51
_cell_volume                     727.71(7)
_computing_cell_refinement
;
CrysAlisPro, Agilent Technologies,
Version 1.171.36.32 (release 02-08-2013 CrysAlis171 .NET)
(compiled Aug  2 2013,16:46:58)
;
_computing_data_collection
;
CrysAlisPro, Agilent Technologies,
Version 1.171.36.32 (release 02-08-2013 CrysAlis171 .NET)
(compiled Aug  2 2013,16:46:58)
;
_computing_data_reduction
;
CrysAlisPro, Agilent Technologies,
Version 1.171.36.32 (release 02-08-2013 CrysAlis171 .NET)
(compiled Aug  2 2013,16:46:58)
;
_computing_molecular_graphics    'SHELXTL v6.10 (Sheldrick, 2008)'
_computing_publication_material  'SHELXTL v6.10 (Sheldrick, 2008)'
_computing_structure_refinement  'SHELXL-2013 (Sheldrick, 2013)'
_computing_structure_solution    'SHELXS-2013 (Sheldrick, 2013)'
_diffrn_ambient_temperature      110(2)
_diffrn_measured_fraction_theta_full 0.991
_diffrn_measured_fraction_theta_max 0.991
_diffrn_measurement_device_type  'SuperNova, Dual, Cu at zero, Atlas'
_diffrn_measurement_method       '\w scans'
_diffrn_radiation_monochromator  mirror
_diffrn_radiation_source         'SuperNova (Cu) X-ray Source'
_diffrn_radiation_type           CuK\a
_diffrn_radiation_wavelength     1.54178
_diffrn_reflns_av_R_equivalents  0.0174
_diffrn_reflns_av_unetI/netI     0.0149
_diffrn_reflns_laue_measured_fraction_full 0.991
_diffrn_reflns_laue_measured_fraction_max 0.991
_diffrn_reflns_limit_h_max       10
_diffrn_reflns_limit_h_min       -10
_diffrn_reflns_limit_k_max       11
_diffrn_reflns_limit_k_min       -11
_diffrn_reflns_limit_l_max       13
_diffrn_reflns_limit_l_min       -13
_diffrn_reflns_number            9218
_diffrn_reflns_point_group_measured_fraction_full 0.991
_diffrn_reflns_point_group_measured_fraction_max 0.991
_diffrn_reflns_theta_full        67.679
_diffrn_reflns_theta_max         71.896
_diffrn_reflns_theta_min         4.541
_exptl_absorpt_coefficient_mu    1.305
_exptl_absorpt_correction_T_max  0.837
_exptl_absorpt_correction_T_min  0.772
_exptl_absorpt_correction_type   analytical
_exptl_absorpt_process_details
;
CrysAlisPro, Agilent Technologies,
Version 1.171.36.32 (release 02-08-2013 CrysAlis171 .NET)
(compiled Aug  2 2013,16:46:58)
Analytical numeric absorption correction using a multifaceted crystal
            model based on expressions derived by R.C. Clark & J.S. Reid.
(Clark, R. C. & Reid, J. S. (1995). Acta Cryst. A51, 887-897)
;
_exptl_crystal_colour            colorless
_exptl_crystal_density_diffrn    1.220
_exptl_crystal_description       block
_exptl_crystal_F_000             282
_exptl_crystal_recrystallization_method 'Re-crystallisation from solvent: THF'
_exptl_crystal_size_max          0.31
_exptl_crystal_size_mid          0.21
_exptl_crystal_size_min          0.20
_refine_diff_density_max         0.486
_refine_diff_density_min         -0.269
_refine_diff_density_rms         0.039
_refine_ls_extinction_method     none
_refine_ls_goodness_of_fit_ref   1.046
_refine_ls_hydrogen_treatment    constr
_refine_ls_matrix_type           full
_refine_ls_number_parameters     178
_refine_ls_number_reflns         2833
_refine_ls_number_restraints     0
_refine_ls_restrained_S_all      1.046
_refine_ls_R_factor_all          0.0328
_refine_ls_R_factor_gt           0.0318
_refine_ls_shift/su_max          0.001
_refine_ls_shift/su_mean         0.000
_refine_ls_structure_factor_coef Fsqd
_refine_ls_weighting_details
;
 w=1/[\s^2^(Fo^2^)+(0.0360P)^2^+0.3704P]
 where P=(Fo^2^+2Fc^2^)/3
;
_refine_ls_weighting_scheme      calc
_refine_ls_wR_factor_gt          0.0821
_refine_ls_wR_factor_ref         0.0828
_reflns_Friedel_coverage         0.000
_reflns_number_gt                2707
_reflns_number_total             2833
_reflns_threshold_expression     'I > 2\s(I)'
_cod_data_source_file            c5ra10056a1.cif
_cod_data_source_block           '[di(triphenylsilane)ether]'
_cod_original_cell_volume        727.71(6)
_cod_database_code               7222038
_shelx_space_group_comment
;
The symmetry employed for this shelxl refinement is uniquely defined
by the following loop, which should always be used as a source of
symmetry information in preference to the above space-group names.
They are only intended as comments.
;
_shelxl_version_number           2013-2
_shelx_res_file
;
TITL xs0427a in P-1
CELL 1.54178   8.5829   9.4856  10.9694  95.951 111.779 113.352
ZERR    1.00   0.0004   0.0004   0.0005   0.004   0.004   0.004
LATT  1
SFAC C H O SI
UNIT 36 30 1 2

TEMP -163

ACTA
HTAB
BOND
BOND $H
WPDB

L.S. 6
FMAP 2
PLAN 10
OMIT -2 143.8

WGHT    0.036000    0.370400
FVAR      20.53396
C1    1   -0.128895   -0.094472    0.696561    11.00000    0.02305    0.01604 =
         0.02355    0.00482    0.01267    0.01038
C2    1   -0.314947   -0.199925    0.597276    11.00000    0.02738    0.02590 =
         0.02325    0.00550    0.01095    0.00863
AFIX  43
H2    2   -0.357142   -0.190258    0.506829    11.00000   -1.20000
AFIX   0
C3    1   -0.439381   -0.319039    0.629155    11.00000    0.02541    0.02637 =
         0.03316    0.00324    0.01239    0.00342
AFIX  43
H3    2   -0.565340   -0.389948    0.560529    11.00000   -1.20000
AFIX   0
C4    1   -0.379956   -0.334209    0.760311    11.00000    0.03102    0.02127 =
         0.03914    0.01040    0.02317    0.00840
AFIX  43
H4    2   -0.464922   -0.415527    0.781864    11.00000   -1.20000
AFIX   0
C5    1   -0.196675   -0.230925    0.860221    11.00000    0.03331    0.02578 =
         0.02938    0.01224    0.01969    0.01579
AFIX  43
H5    2   -0.155554   -0.241213    0.950485    11.00000   -1.20000
AFIX   0
C6    1   -0.072581   -0.111939    0.828394    11.00000    0.02338    0.01866 =
         0.02448    0.00579    0.01251    0.01032
AFIX  43
H6    2    0.052933   -0.041204    0.897753    11.00000   -1.20000
AFIX   0
C7    1    0.289164    0.121244    0.774533    11.00000    0.02382    0.02086 =
         0.02430    0.01078    0.01518    0.01132
C8    1    0.361054    0.014744    0.759038    11.00000    0.02925    0.02175 =
         0.03797    0.00978    0.01891    0.01332
AFIX  43
H8    2    0.283040   -0.082395    0.685651    11.00000   -1.20000
AFIX   0
C9    1    0.544385    0.048590    0.849048    11.00000    0.03428    0.03423 =
         0.04933    0.01983    0.02498    0.02375
AFIX  43
H9    2    0.590304   -0.025442    0.837506    11.00000   -1.20000
AFIX   0
C10   1    0.659496    0.190325    0.955338    11.00000    0.02623    0.04305 =
         0.03562    0.01773    0.01318    0.02054
AFIX  43
H10   2    0.784673    0.213581    1.017022    11.00000   -1.20000
AFIX   0
C11   1    0.592997    0.298539    0.972229    11.00000    0.02908    0.03534 =
         0.02750    0.00736    0.00896    0.01556
AFIX  43
H11   2    0.672933    0.396555    1.044605    11.00000   -1.20000
AFIX   0
C12   1    0.408924    0.263329    0.882965    11.00000    0.02707    0.02668 =
         0.02406    0.00746    0.01169    0.01512
AFIX  43
H12   2    0.363671    0.337452    0.895998    11.00000   -1.20000
AFIX   0
C13   1    0.003137    0.248064    0.673061    11.00000    0.02259    0.01824 =
         0.01954    0.00479    0.00843    0.01036
C14   1    0.111797    0.383184    0.645411    11.00000    0.02746    0.02055 =
         0.02874    0.00784    0.01317    0.01136
AFIX  43
H14   2    0.201656    0.380850    0.615520    11.00000   -1.20000
AFIX   0
C15   1    0.091168    0.520888    0.660721    11.00000    0.03584    0.01897 =
         0.03097    0.00783    0.01146    0.01169
AFIX  43
H15   2    0.168151    0.612230    0.642910    11.00000   -1.20000
AFIX   0
C16   1   -0.041094    0.525375    0.701809    11.00000    0.04278    0.02506 =
         0.02938    0.00569    0.01022    0.02328
AFIX  43
H16   2   -0.055841    0.619392    0.711538    11.00000   -1.20000
AFIX   0
C17   1   -0.151559    0.393336    0.728652    11.00000    0.04919    0.03963 =
         0.05083    0.01609    0.03160    0.03193
AFIX  43
H17   2   -0.243002    0.395991    0.756546    11.00000   -1.20000
AFIX   0
C18   1   -0.129075    0.255909    0.714864    11.00000    0.04162    0.02906 =
         0.04787    0.01730    0.03076    0.02160
AFIX  43
H18   2   -0.205217    0.165701    0.734288    11.00000   -1.20000
AFIX   0
O1    3    0.000000    0.000000    0.500000    10.50000    0.03316    0.02464 =
         0.02126    0.00605    0.01549    0.01301
SI1   4    0.039070    0.067185    0.655950    11.00000    0.02137    0.01498 =
         0.01934    0.00548    0.01128    0.00872
HKLF 4

REM  xs0427a in P-1
REM R1 =  0.0318 for    2707 Fo > 4sig(Fo)  and  0.0328 for all    2833 data
REM    178 parameters refined using      0 restraints

END

WGHT      0.0362      0.3698

REM No hydrogen bonds found for HTAB generation

REM Highest difference peak  0.486,  deepest hole -0.269,  1-sigma level  0.039
Q1    1   0.1879 -0.0018  0.5042  11.00000  0.05    0.49
Q2    1  -0.0553 -0.0221  0.6799  11.00000  0.05    0.32
Q3    1   0.0059  0.1594  0.6618  11.00000  0.05    0.31
Q4    1   0.1811  0.1085  0.7279  11.00000  0.05    0.26
Q5    1   0.0013  0.5018  0.6602  11.00000  0.05    0.19
Q6    1   0.0727  0.3216  0.6768  11.00000  0.05    0.19
Q7    1  -0.1394 -0.1756  0.8339  11.00000  0.05    0.19
Q8    1  -0.1126 -0.1010  0.7555  11.00000  0.05    0.19
Q9    1  -0.2149 -0.1415  0.6471  11.00000  0.05    0.17
Q10   1   0.3674  0.1993  0.8046  11.00000  0.05    0.17
;
_shelx_res_checksum              71667
_shelx_hkl_file
;
   0   0   1 99181.7 633.203  26
   0   0   1 98979.4 610.115   3
   0   0   1 99354.8 508.150   2
   0   0  -4 49172.0 1088.98   7
   0   0  -4 47475.3 1005.25   4
   0   0   4 48119.3 988.766  31
   0   0   4 51996.5 748.918   2
   0   0  -4 49937.7 1028.46  30
   0   0   4 48831.9 981.769  26
   0   0  -5 88947.6 1693.75   7
   0   0   5 84590.8 1503.99  26
   0   0  -5 87221.5 1559.18  30
   0   0   5 84862.8 1523.39  31
   0   0  -5 83425.0 1547.77   4
   0   0  -6 237543. 2972.22   4
   0   0   6 242280. 2925.59  31
   0   0  -6 232800. 3099.84   7
   0   0  -6 241535. 2924.58  30
   0   0   6 233046. 2933.83  26
   0   0  -7 35781.1 1339.78   7
   0   0   7 35702.4 1313.89  26
   0   0  -7 35735.3 1249.33  30
   0   0  -7 35025.7 1265.70   4
   0   0  -8 21505.6 1148.42  14
   0   0  -8 21662.5 1044.49  30
   0   0  -8 21208.0 1028.96  19
   0   0  -9 16553.2 1046.84  14
   0   0  -9 16066.5 938.592  19
   0   0 -10 44611.3 1487.01  19
   0   0 -11 19615.5 888.533  10
   0   0 -11 18651.4 835.921  19
   0   0 -12 6348.80 352.648  19
   0   0 -12 7003.88 385.017  10
   0   1 -12 119.228 100.592  10
   0   1 -12 104.709 104.193  19
   0   1 -11 4880.05 465.982  19
   0   1 -11 5413.08 504.856  10
   0   1 -10 67618.8 1863.93  19
   0   1  -9 2079.86 375.919  19
   0   1  -9 2460.86 441.187  14
   0   1  -8 34139.5 1315.72  30
   0   1  -8 34684.9 1278.77  19
   0   1  -8 35907.7 1432.54  14
   0   1  -8 35057.4 1286.58   8
   0   1  -8 36390.8 1367.67   4
   0  -1   7 133768. 2594.51  31
   0   1  -7 133073. 2399.78   4
   0   1  -7 132082. 2388.61  30
   0  -1   7 130964. 2484.80  26
   0  -1   6 77741.6 1648.60  26
   0   1  -6 79762.5 1657.20   4
   0  -1   6 79934.9 1803.20  31
   0   1  -6 81647.1 1703.19  30
   0   1  -5 9043.11 498.329   4
   0  -1   5 8156.60 512.072  31
   0  -1   5 7951.35 462.918  26
   0   1  -5 8340.36 485.080  30
   0  -1   4 553879. 3173.69  26
   0   1  -4 532808. 3316.33  30
   0   1  -4 530858. 3241.52   6
   0   1  -4 525823. 3311.24   7
   0  -1   4 545241. 3620.53  31
   0  -1   4 524351. 3431.22   3
   0   1  -3 180987. 1566.89   6
   0   1  -3 185734. 1525.46   1
   0  -1   3 181212. 1722.58   3
   0   1  -3 190276. 1663.18   7
   0  -1   3 193844. 1847.29  31
   0  -1   3 191146. 1579.28  26
   0   1  -2 6047.45 124.392  29
   0  -1   2 5808.56 244.679  26
   0   1  -1 55036.5 640.016   1
   0   1  -1 60812.5 422.388   6
   0  -1   1 56880.9 727.005  26
   0   1  -1 60075.4 596.063  27
   0   1   1 202894. 992.730   1
   0  -1  -1 202584. 1290.98  30
   0  -1  -2 1656.92 147.956  30
   0   1   2 2013.24 153.397   2
   0  -1  -2 2193.01 168.678  28
   0  -1  -3 269342. 2463.18  32
   0   1   3 270854. 1895.10   2
   0  -1  -3 262133. 2200.93   4
   0   1   3 279673. 2353.52  26
   0  -1  -3 281858. 2292.71  28
   0   1   3 276839. 1956.65  31
   0  -1  -3 275267. 2166.91  30
   0  -1  -4 282364. 2668.36   4
   0   1   4 277204. 2095.37   2
   0  -1  -4 277488. 2877.04   7
   0  -1  -4 274228. 2522.12  30
   0   1   4 279388. 2283.92  31
   0   1   5 4832.44 420.180  26
   0  -1  -5 4749.94 435.354   7
   0  -1  -5 4861.92 382.812  30
   0  -1  -6 84204.0 1979.29   7
   0   1   6 83064.2 1927.42  26
   0  -1  -6 84376.9 1798.22  30
   0  -1  -7 315.770 194.424   7
   0  -1  -7 350.313 180.845  19
   0   1   7-163.851 141.886  26
   0  -1  -8 25185.3 1152.59  19
   0  -1  -8 25281.8 1239.61  14
   0  -1  -9 31734.8 1304.37  19
   0  -1 -10 2145.74 338.858  10
   0  -1 -10 1861.13 336.615  19
   0  -1 -11 11915.6 611.312  19
   0  -1 -11 12518.5 651.388  10
   0   2 -12 27696.8 860.593  19
   0   2 -12 28692.9 873.973  10
   0   2 -11 50871.8 1458.77  19
   0   2 -10 61844.4 1784.68  19
   0   2  -9 6480.58 596.335  19
   0   2  -9 5668.37 614.586  14
   0   2  -8 89635.1 2112.25   4
   0   2  -8 88479.2 2178.45  14
   0   2  -8 90122.5 2160.82  30
   0   2  -8 86926.9 1933.99   8
   0   2  -8 86487.4 1987.85  19
   0   2  -7 79573.9 1839.84   4
   0   2  -7 79910.3 1887.35  30
   0  -2   7 79241.4 2135.83  31
   0   2  -6 1637.50 257.719  30
   0   2  -6 1822.55 260.794   4
   0  -2   6 1616.60 289.747  26
   0  -2   6 2183.19 358.875  31
   0  -2   5 49783.6 1307.11   3
   0   2  -5 52941.7 1234.39  30
   0  -2   5 53438.3 1338.55  26
   0  -2   5 54898.2 1445.26  31
   0   2  -5 51856.0 1198.60   4
   0  -2   4 2159.82 267.653  26
   0   2  -4 2999.22 265.559   1
   0  -2   4 2609.18 297.562  31
   0   2  -4 2845.18 222.845   6
   0  -2   4 2772.15 284.496   3
   0   2  -3 7780.31 386.444   1
   0   2  -3 8174.25 299.667   6
   0   2  -3 8683.36 237.156  29
   0  -2   3 7650.58 441.510  31
   0  -2   3 7473.40 432.746  26
   0  -2   3 7865.06 403.575   3
   0  -2   2 163596. 1527.61   3
   0   2  -2 165691. 973.060   6
   0   2  -2 161877. 1410.53  27
   0   2  -2 154470. 1560.63   1
   0  -2   2 153647. 1691.11  26
   0  -2   0 6996.04 307.100  31
   0  -2   0 6853.14 199.092   3
   0   2   0 6469.03 281.112   1
   0  -2   0 5295.37 276.455  32
   0   2   0 5738.97 149.649  27
   0   2   1 141519. 990.913  27
   0  -2  -1 135228. 1498.12  32
   0  -2  -1 143201. 1534.88  28
   0   2   1 137307. 1200.52   1
   0  -2  -2 385573. 2580.94  30
   0  -2  -2 361417. 2487.53  28
   0  -2  -2 374737. 2855.46  32
   0   2   2 389627. 2816.66   2
   0   2   2 372776. 1867.93   1
   0   2   3 10525.3 497.847   2
   0  -2  -3 9494.49 523.010  32
   0  -2  -3 10947.1 484.472  28
   0  -2  -3 10220.6 481.356  30
   0  -2  -4 27541.5 882.324  30
   0   2   4 26787.0 844.500   2
   0   2   4 25957.0 1004.07  26
   0  -2  -4 27507.7 1007.71  32
   0  -2  -4 26235.4 909.187  28
   0   2   5 37880.7 1345.73  26
   0  -2  -5 37892.1 1303.77   7
   0  -2  -5 39737.4 1179.70  30
   0   2   6 241123. 3782.62  26
   0  -2  -6 243578. 3605.87   7
   0   2   7 47766.9 1849.04  26
   0  -2  -7 45059.9 1660.68   7
   0  -2  -7 49790.3 1568.05  19
   0  -2  -7 47562.0 1577.96  14
   0  -2  -8 109266. 2518.99  10
   0  -2  -8 117802. 2525.44  19
   0  -2  -9 47327.7 1603.53  10
   0  -2  -9 44690.5 1504.12  19
   0  -2 -10 248.490 138.410  10
   0  -2 -10 339.555 182.839  19
   0  -2 -11 3562.47 300.212  10
   0   3 -12 119.583 100.569  10
   0   3 -12 147.772 117.229  19
   0   3 -11 104293. 2086.92  19
   0   3 -10 17255.0 946.437  19
   0   3  -9 58956.8 1612.83   8
   0   3  -9 61891.5 1768.82  19
   0   3  -8 330156. 3890.56  19
   0   3  -8 336194. 4091.59  33
   0   3  -8 340007. 3693.33   8
   0  -3   8 338188. 5064.18  31
   0   3  -8 336235. 4097.33  14
   0   3  -8 333509. 4095.58   4
   0   3  -8 333483. 4254.67  30
   0  -3   7 257.930 216.194  31
   0   3  -7 258.666 143.969  30
   0   3  -7 256.065 141.209   4
   0   3  -6 101724. 1946.04   4
   0   3  -6 100505. 1977.29  30
   0  -3   6 98209.0 2333.14  31
   0  -3   5 77890.6 1904.57  31
   0   3  -5 77948.3 1593.42   1
   0  -3   5 74735.3 1739.18  26
   0  -3   5 72191.0 1663.13   3
   0  -3   4 157611. 2285.83  26
   0   3  -4 153197. 1449.66   6
   0  -3   4 155633. 2446.34  31
   0   3  -4 156595. 1213.84  29
   0   3  -4 156151. 2131.59   1
   0  -3   4 154905. 2177.10   3
   0  -3   3 36313.3 1091.71  31
   0   3  -3 37148.6 539.859   6
   0  -3   3 34723.2 918.956   3
   0   3  -3 37491.4 975.002   1
   0  -3   3 36861.7 990.035  26
   0  -3   2 36868.0 822.585   3
   0   3  -2 37226.3 718.629  27
   0  -3   2 37834.4 1031.80  31
   0   3  -2 34717.6 331.981   6
   0   3  -2 36539.5 914.234   1
   0  -3   1 58201.6 1189.68  31
   0  -3   1 57425.4 1145.29  32
   0   3  -1 58686.4 710.347  27
   0  -3   1 59625.9 896.499   3
   0  -3   0 130056. 1661.39  31
   0  -3   0 134322. 1874.37  28
   0   3   0 131972. 1563.31   1
   0  -3   0 129647. 1641.77  32
   0   3   1 1002.73 139.651   1
   0  -3  -1 1056.45 176.285  32
   0  -3  -1 924.399 181.991  28
   0   3   2 81323.6 1655.53   2
   0  -3  -2 79986.9 1408.44  28
   0   3   2 83790.6 1109.22   1
   0  -3  -2 81100.1 1539.44  32
   0  -3  -3 3115.67 295.052  28
   0   3   3 3872.55 390.073   2
   0  -3  -3 3431.66 364.395  32
   0  -3  -4 11368.1 626.034  28
   0   3   4 10910.0 679.164   2
   0   3   4 10016.0 743.087  26
   0  -3  -4 11431.4 719.827  32
   0  -3  -5 64621.5 1842.61   7
   0   3   5 64169.1 2060.03  26
   0  -3  -6 69358.8 2046.86   7
   0  -3  -6 73147.7 1913.74  10
   0   3   6 73145.3 2390.46  26
   0  -3  -6 70673.9 1834.66  19
   0  -3  -7 79630.2 2119.73  10
   0  -3  -7 77217.5 2029.85  19
   0  -3  -8 186.261 158.155  10
   0  -3  -8 542.524 266.649  19
   0  -3  -9 66025.3 1758.88  10
   0  -3 -10 6500.27 450.006  10
   0   4 -12 6581.92 410.990  19
   0   4 -11 9.49636 169.464  15
   0   4 -11 289.063 168.724  19
   0   4 -10 9907.42 703.954  19
   0   4  -9 11429.5 810.776  33
   0   4  -9 11183.0 759.902  19
   0   4  -9 11564.0 720.707  22
   0   4  -8 38414.6 1327.97  22
   0   4  -8 41292.4 1494.52  33
   0  -4   8 41394.2 1865.18  31
   0   4  -8 41194.6 1464.80   4
   0   4  -8 42230.5 1543.09  30
   0   4  -7 966.301 242.604   4
   0   4  -7 682.628 192.997  30
   0  -4   7 808.895 291.688  31
   0  -4   6 20959.0 1186.49  31
   0   4  -6 21674.0 989.158   1
   0  -4   5 1987.36 328.906  26
   0  -4   5 1960.01 363.633  31
   0   4  -5 1819.64 302.758   1
   0   4  -4 29517.1 724.948  29
   0  -4   4 29871.7 1031.94   3
   0  -4   4 30154.7 1216.58  31
   0   4  -4 29249.2 1047.57   1
   0  -4   3 88066.8 1578.36   3
   0  -4   3 82452.2 1881.79  31
   0   4  -3 86302.2 1705.97   1
   0  -4   2 174326. 1974.31   3
   0   4  -2 168062. 2282.84   1
   0  -4   2 171505. 2531.30  31
   0  -4   2 169835. 2364.45  32
   0  -4   1 50420.9 907.066   3
   0  -4   1 50120.4 1158.98  32
   0   4  -1 49792.0 1191.08   1
   0  -4   1 51054.5 1298.24  31
   0  -4   0 57270.8 1292.97  31
   0  -4   0 59717.6 1478.42  28
   0   4   0 58464.4 1242.28   1
   0  -4   0 58450.5 1268.27  32
   0   4   1 108412. 1641.70   1
   0  -4  -1 107753. 1837.71  32
   0  -4  -1 109241. 1931.14  28
   0  -4  -2 440.087 159.543  32
   0  -4  -2 455.019 136.851  28
   0   4   3 29777.5 1294.20   2
   0  -4  -3 29953.5 1159.55  32
   0  -4  -3 30572.0 1012.73  28
   0   4   4 3716.60 494.756   2
   0  -4  -4 4266.37 486.020  32
   0   4   4 4469.53 591.386  26
   0  -4  -5 276298. 3618.41  19
   0  -4  -5 277472. 4083.30   7
   0  -4  -5 271096. 3630.78  10
   0  -4  -5 272842. 3564.11  11
   0  -4  -6 6901.16 627.679  19
   0  -4  -6 7216.68 602.060  11
   0  -4  -6 6722.13 628.769  10
   0  -4  -7 37665.0 1448.71  10
   0  -4  -7 39051.1 1299.13  11
   0  -4  -8 3675.64 435.971  10
   0  -4  -9 11193.1 623.684  10
   0   5 -12 7111.86 367.835  15
   0   5 -12 7706.35 407.694  19
   0   5 -11 7676.21 530.822  19
   0   5 -10 988.742 253.794  19
   0   5 -10 507.142 182.479  22
   0   5  -9 106196. 2482.73  33
   0   5  -9 110917. 2342.04  19
   0   5  -9 107422. 2287.13  22
   0   5  -8 97143.8 2243.96  22
   0   5  -8 105204. 2438.55  33
   0   5  -7-116.036 115.704  22
   0   5  -7-70.0853 141.239  30
   0  -5   7-18.2336 150.441  37
   0  -5   7 270.800 293.372  31
   0  -5   6 89051.9 2583.78  31
   0   5  -6 84738.9 2137.11   1
   0   5  -5 99828.3 2244.09   1
   0  -5   5 98897.5 2571.47  31
   0   5  -4 1403.44 287.488   1
   0   5  -4 1075.15 196.421  29
   0  -5   4 1340.63 333.648  31
   0   5  -3 88883.7 1957.67   1
   0  -5   3 95968.7 2272.89  31
   0  -5   3 94984.0 1930.81  32
   0  -5   2 268493. 2985.40  32
   0  -5   2 264004. 3538.78  31
   0   5  -2 273613. 3311.76   1
   0  -5   1 161653. 2854.16  28
   0  -5   1 165209. 2303.93  32
   0  -5   1 167448. 2650.51  31
   0   5  -1 168167. 2500.50   1
   0  -5   0 30407.8 1027.84  32
   0   5   0 28307.1 991.271   1
   0  -5  -1 93428.3 1908.47  32
   0   5   1 94922.3 2389.42   2
   0  -5  -2 7412.35 556.191  28
   0  -5  -2 6786.48 558.573  32
   0   5   2 7448.26 721.222   2
   0  -5  -3 54066.0 1672.77  32
   0   5   3 51577.2 1998.20   2
   0  -5  -4 49320.9 1609.30  11
   0  -5  -4 50355.9 1574.17  10
   0  -5  -5 21202.3 1072.24  11
   0  -5  -5 22385.5 1099.38  10
   0  -5  -6 21457.7 1081.62  10
   0  -5  -6 22787.3 1066.41  11
   0  -5  -7 4756.07 483.228  10
   0  -5  -7 5663.44 473.540  11
   0  -5  -8 1566.45 256.815  10
   0   6 -12 15804.8 504.162  15
   0   6 -12 16150.7 478.416  19
   0   6 -11 19219.5 753.467  19
   0   6 -10 38862.2 1232.71  22
   0   6 -10 39877.8 1264.10  19
   0   6 -10 40959.2 1409.39  33
   0   6  -9 60326.6 1748.86  22
   0   6  -9 60312.1 1844.36  33
   0   6  -8 50796.7 1734.62  33
   0  -6   8 54805.7 1951.24  37
   0   6  -8 51581.2 1715.95  22
   0   6  -7 114435. 2533.98  33
   0   6  -7 117466. 2555.66  22
   0  -6   7 116107. 2783.47  37
   0   6  -6 109759. 2366.65  33
   0  -6   6 104994. 2978.59  31
   0   6  -6 110373. 2412.65  22
   0   6  -6 110661. 2619.23   1
   0  -6   6 104071. 2532.18  37
   0   6  -5 319093. 4352.21   1
   0  -6   5 316172. 4936.48  31
   0   6  -4 10048.9 765.109   1
   0  -6   4 10073.5 854.511  31
   0  -6   3 23332.9 1299.82  28
   0  -6   3 22072.2 1199.59  31
   0   6  -3 21789.1 1084.74   1
   0   6  -2 286996. 3772.79   1
   0  -6   2 278489. 3979.78  31
   0   6  -1 114555. 2294.35   1
   0  -6   1 114169. 2632.44  28
   0  -6   1 118792. 2408.34  31
   0  -6   0 71751.0 1993.71  28
   0   6   0 72627.4 1738.69   1
   0   6   1 99563.0 2770.89   2
   0  -6  -1 107811. 2341.88  28
   0   6   2 2409.49 468.189   2
   0  -6  -2 2247.98 368.362  11
   0  -6  -2 2034.15 350.468  34
   0  -6  -2 2250.05 341.226  10
   0  -6  -3 61354.9 1812.62  34
   0  -6  -3 58762.9 1698.64  10
   0  -6  -3 61035.7 1879.87  11
   0  -6  -4 197878. 3165.94  10
   0  -6  -4 194335. 3364.77  11
   0  -6  -5 5536.42 544.452  10
   0  -6  -5 5188.63 534.820  11
   0  -6  -6 33557.3 1181.88  10
   0  -6  -6 33179.4 1183.72  11
   0  -6  -7 14386.7 600.767  11
   0  -6  -7 14096.0 643.514  10
   0   7 -11 2896.51 249.236  19
   0   7 -10 44543.1 1201.18  19
   0   7 -10 45275.3 1358.74  33
   0   7 -10 41621.2 1208.92  22
   0  -7   9 19568.7 1089.81  37
   0   7  -9 19979.9 978.812  22
   0   7  -9 20993.4 1037.15  33
   0  -7   8 7392.53 732.859  37
   0   7  -8 7515.04 670.231  33
   0   7  -8 7829.13 683.491  22
   0   7  -7 14461.3 941.528  22
   0   7  -7 16503.6 979.057  33
   0  -7   7 15949.4 1071.36  37
   0   7  -6 75532.1 2035.38  33
   0  -7   6 75427.2 2284.47  37
   0   7  -6 75629.2 2118.38  22
   0   7  -5 6614.07 622.820  22
   0  -7   5 6405.06 735.172  31
   0  -7   5 6317.91 649.706  37
   0   7  -5 6139.66 657.596   1
   0   7  -5 6823.84 613.061  33
   0   7  -4 281226. 4247.51   1
   0   7  -4 292566. 4025.12  22
   0  -7   4 283519. 4639.28  31
   0  -7   4 286649. 4896.23  28
   0  -7   4 288691. 4213.44  37
   0  -7   4 278862. 3715.81  34
   0   7  -4 276328. 3688.29  33
   0  -7   3 250442. 3646.71  34
   0   7  -3 248565. 3895.49   1
   0  -7   3 240449. 4048.46  31
   0   7  -3 248495. 3649.43  22
   0  -7   3 238739. 4326.64  28
   0  -7   3 233314. 3655.86  37
   0   7  -3 235454. 3321.12  33
   0   7  -2 29052.6 1240.23  22
   0  -7   2 28030.0 1265.15  34
   0   7  -2 27245.8 1243.55   1
   0  -7   2 28792.1 1269.05  11
   0  -7   2 27979.6 1443.11  28
   0  -7   2 27595.0 1199.09  37
   0   7  -1 158051. 3403.53   2
   0  -7   1 159306. 3257.40  28
   0   7  -1 164409. 2885.76  22
   0  -7   1 161865. 3084.90  34
   0  -7   0 90991.3 2300.09  11
   0   7   0 92793.9 2710.38   2
   0   7   0 97112.2 2148.14  22
   0  -7   0 98659.1 2408.96  28
   0  -7   0 97610.1 2449.68  34
   0  -7  -1 370.538 190.638  34
   0  -7  -1 124.469 147.639  11
   0  -7  -2 156856. 3047.85  34
   0  -7  -2 157597. 3110.50  11
   0  -7  -3 57885.9 1856.51  11
   0  -7  -3 60945.8 1783.36  34
   0  -7  -4 26981.8 1193.69  11
   0  -7  -5 1853.40 302.706  11
   0  -7  -6 25981.1 826.974  11
   0  -7  -6 25959.3 813.683  20
   0   8 -10 11841.0 501.242  19
   0   8 -10 11125.7 546.514  22
   0  -8   9 5364.14 534.923  37
   0   8  -9 4786.04 451.506  22
   0   8  -9 4940.16 461.167  33
   0  -8   8 14492.8 946.166  37
   0   8  -8 13002.5 810.066  22
   0   8  -8 13783.1 811.848  33
   0   8  -7 19966.0 1059.29  22
   0   8  -7 19403.2 996.130  33
   0  -8   7 19568.0 1146.09  37
   0   8  -7 20889.1 951.541  36
   0  -8   6 1291.77 374.565  37
   0   8  -6 1740.38 334.670  33
   0   8  -6 1226.82 300.859  22
   0   8  -5 17832.6 1043.98  22
   0  -8   5 19380.8 1148.26  37
   0   8  -5 18792.3 976.038  33
   0   8  -4 20350.0 998.008  33
   0  -8   4 20490.4 1150.53  37
   0  -8   4 20522.5 1077.47  23
   0   8  -4 19106.3 1064.84  22
   0  -8   4 20615.1 1064.45  34
   0  -8   3 27980.3 1286.50  34
   0   8  -3 27027.1 1100.80  33
   0  -8   3 25720.4 1247.87  37
   0   8  -3 26594.2 1225.88  22
   0  -8   2 27709.7 1311.04  34
   0  -8   2 28227.9 1225.20  37
   0   8  -2 27668.6 1221.70  22
   0  -8   1 86007.0 2265.52  11
   0  -8   1 89368.1 2415.76  34
   0   8  -1 89859.0 2094.14  22
   0  -8   0 1297.88 326.335  34
   0  -8   0 908.073 297.226  11
   0  -8  -1 124158. 2727.29  34
   0  -8  -1 125052. 2709.24  11
   0  -8  -2 15310.5 901.198  34
   0  -8  -2 17175.5 971.443  11
   0  -8  -3 59434.9 1541.33  23
   0  -8  -3 60071.0 1682.76  11
   0  -8  -4 29636.9 1045.65  11
   0  -8  -5 13127.4 554.411  20
   0   9  -9-38.9068 83.9552  19
   0  -9   9 14.7632 107.185  37
   0   9  -9 59.1838 93.3459  22
   0   9  -9 9.20369 89.4876  33
   0  -9   8 911.192 241.557  37
   0   9  -8 1461.16 237.217  33
   0   9  -8 1039.49 212.691  22
   0   9  -7 52684.6 1392.04  33
   0  -9   7 53887.6 1680.97  37
   0   9  -7 53875.8 1548.24  22
   0   9  -7 51377.7 1316.72  36
   0  -9   6 5283.13 562.851  37
   0   9  -6 6075.70 496.577  33
   0   9  -6 5952.34 547.382  22
   0   9  -5 1388.14 244.267  33
   0   9  -5 971.438 248.821  22
   0  -9   5 1183.19 294.344  37
   0  -9   4 115310. 2353.93  34
   0   9  -4 114096. 2387.52  22
   0  -9   4 110132. 2321.66  23
   0   9  -4 106061. 1958.92  33
   0  -9   4 118394. 2569.07  37
   0   9  -3 45773.4 1473.41  22
   0  -9   3 46800.8 1524.71  37
   0  -9   3 47689.8 1585.22  23
   0  -9   3 47358.7 1595.82  34
   0  -9   2 1743.84 340.840  34
   0   9  -2 1709.29 296.980  22
   0  -9   2 1682.64 333.548  23
   0   9  -1 607.605 183.339  22
   0  -9   1 572.534 250.043  34
   0  -9   1 536.362 216.901  23
   0  -9   0 1099.91 275.894  23
   0  -9   0 1230.84 302.809  34
   0  -9  -1 8410.67 617.080  23
   0  -9  -2 181.728 141.959  23
   0  -9  -3 60101.5 1054.06  23
   0 -10   7 138.401 110.389  37
   0  10  -7 426.966 103.683  33
   0  10  -7 460.062 138.470  22
   0  10  -7 563.475 125.855  36
   0 -10   6-44.2566 134.069  37
   0  10  -6 25.0773 99.6314  22
   0  10  -6 209.790 115.730  36
   0 -10   5 14011.2 721.099  37
   0  10  -5 12822.4 643.295  22
   0 -10   4 34842.2 1037.74  23
   0 -10   4 35452.0 1080.92  37
   0  10  -4 35700.5 1044.85  22
   0 -10   3 15984.2 756.451  23
   0  10  -3 14594.1 627.841  22
   0 -10   2 146.674 128.295  23
   0 -10   1 14971.0 720.227  23
   0 -10   0 923.728 179.077  23
   1 -11   2 30868.7 785.558  23
  -1  11  -3 7240.75 364.643  22
   1 -11   3 6838.65 342.645  23
  -1  11  -4 29857.9 778.689  22
   1 -11   5 14054.4 526.598  37
  -1  11  -5 14883.1 545.704  22
  -1  11  -5 13021.3 458.779  36
   1 -10  -2 1776.48 226.060  23
   1 -10  -1 1139.66 235.998  23
  -1  10   0 2094.87 238.455  22
   1 -10   0 2352.71 323.757  23
   1 -10   0 2581.83 348.612  34
   1 -10   1 26990.9 1078.68  23
  -1  10  -1 25971.6 921.094  22
   1 -10   1 26678.8 1100.64  34
   1 -10   2 12841.2 746.251  23
  -1  10  -2 12918.4 710.371  22
   1 -10   2 12216.3 753.379  34
   1 -10   3 127469. 2257.11  37
  -1  10  -3 129698. 1989.85  33
   1 -10   3 130675. 2354.80  34
  -1  10  -3 128687. 2324.92  22
   1 -10   3 128958. 2251.39  23
  -1  10  -4 5726.64 439.028  33
   1 -10   4 5162.11 443.035  34
  -1  10  -4 6459.93 544.520  22
   1 -10   4 5912.12 447.983  23
   1 -10   4 5246.41 502.944  37
  -1  10  -5 9058.01 556.211  33
   1 -10   5 9676.32 675.792  37
  -1  10  -5 9960.51 645.558  22
  -1  10  -6 413.530 133.276  36
   1 -10   6 528.044 202.628  37
  -1  10  -6 436.423 146.035  33
  -1  10  -6 644.027 200.045  22
   1 -10   7 8416.24 569.501  37
  -1  10  -7 8146.85 473.289  33
  -1  10  -7 7776.03 498.323  22
  -1  10  -8 5943.06 359.423  22
   1 -10   8 5681.68 400.288  37
  -1  10  -8 5880.06 349.559  33
   1  -9  -4 22319.1 815.470  11
   1  -9  -4 21428.8 670.296  23
   1  -9  -3 76126.8 1661.66  23
   1  -9  -3 77721.6 1755.82  11
   1  -9  -2 35711.0 1302.01  34
   1  -9  -2 35652.2 1290.72  11
   1  -9  -1 49498.7 1653.00  34
  -1   9   1 48262.9 1335.12  22
   1  -9  -1 51233.6 1607.89  11
   1  -9   0 21076.4 1129.93  34
   1  -9   0 21249.3 1047.87  11
  -1   9   0 19550.9 946.636  22
   1  -9   1 154529. 3073.69  34
  -1   9  -1 160470. 2594.35  33
  -1   9  -1 159830. 2896.86  22
  -1   9  -2 23267.6 1146.59  22
   1  -9   2 24096.3 1204.35  34
  -1   9  -2 23846.3 1055.42  33
   1  -9   2 24146.7 1103.51  37
  -1   9  -3 252374. 3509.45  33
  -1   9  -3 245231. 3763.77  22
   1  -9   3 246058. 3775.23  37
   1  -9   3 250093. 3745.40  34
  -1   9  -4 13665.7 895.602  22
   1  -9   4 13715.9 938.902  37
  -1   9  -4 12738.6 812.287  33
   1  -9   4 13840.2 835.136  34
   1  -9   4 13792.3 810.726  23
  -1   9  -5 1362.98 276.510  33
  -1   9  -5 1363.52 336.856  22
   1  -9   5 1618.96 382.331  37
   1  -9   6-52.4704 220.039  37
  -1   9  -6 138.813 148.464  33
  -1   9  -6 88.5766 180.246  22
  -1   9  -7 10157.1 675.852  33
  -1   9  -7 9247.10 652.603  22
   1  -9   7 8929.04 718.503  37
   1  -9   8 10144.1 700.527  37
  -1   9  -8 10073.9 610.238  22
  -1   9  -8 10980.3 641.375  33
  -1   9  -9 6751.17 400.272  19
  -1   9  -9 7327.10 459.124  33
  -1   9  -9 7041.73 409.651  22
   1  -9   9 7567.66 492.272  37
   1  -8  -6 22935.9 647.646  20
   1  -8  -6 25780.5 794.817  11
   1  -8  -5 5013.76 457.849  11
   1  -8  -4 23740.4 1082.40  11
   1  -8  -3 27915.9 1258.66  11
   1  -8  -3 28539.6 1209.28  34
   1  -8  -2 3531.00 477.412  11
   1  -8  -2 4006.70 501.459  34
   1  -8  -1 157.240 199.624  34
  -1   8   1 488.891 201.535  22
   1  -8  -1 259.207 187.934  11
  -1   8   0 1437.73 333.633  22
   1  -8   0 1007.29 263.400  11
   1  -8   0 1294.23 327.158  34
  -1   8   0 1344.03 314.002  33
  -1   8  -1 1672.36 290.422  33
   1  -8   1 1854.81 367.070  34
  -1   8  -1 1878.73 340.392  22
   1  -8   1 1795.36 348.266  11
   1  -8   2 38552.7 1536.69  34
  -1   8  -2 37752.0 1440.78  33
  -1   8  -2 38013.7 1543.76  22
   1  -8   2 39032.4 1492.33  37
   1  -8   3 4249.94 524.317  37
   1  -8   3 4048.70 491.478  34
  -1   8  -3 3958.84 509.368  22
  -1   8  -3 4593.65 514.013  33
   1  -8   4 3221.69 407.369  34
   1  -8   4 2731.31 455.213  37
  -1   8  -4 3677.40 476.851  33
  -1   8  -4 2934.61 442.171  22
  -1   8  -5 28042.6 1313.12  22
   1  -8   5 26932.7 1365.54  37
  -1   8  -5 26143.6 1232.71  33
  -1   8  -6 100789. 2406.65  33
  -1   8  -6 101478. 2427.81  22
   1  -8   6 100607. 2665.67  37
  -1   8  -7 24734.7 1172.16  33
  -1   8  -7 22978.3 1120.26  22
   1  -8   7 24374.2 1295.23  37
  -1   8  -8 17274.4 899.445  22
  -1   8  -8 17151.1 935.247  33
   1  -8   8 15609.7 979.925  37
  -1   8  -9-166.120 155.650  33
  -1   8  -9 106.595 125.965  22
   1  -8   9 292.600 226.512  37
  -1   8 -10 40801.2 985.293  19
   1  -7  -7 16129.9 667.221  11
   1  -7  -6 35928.1 1245.69  11
   1  -7  -5 4065.00 488.064  11
   1  -7  -4 41767.1 1406.28  34
   1  -7  -4 40735.1 1559.56  11
   1  -7  -3 42284.5 1589.99  11
   1  -7  -3 45326.1 1598.51  34
   1  -7  -2 8212.04 702.385  11
   1  -7  -2 9055.21 721.517  28
   1  -7  -2 7582.41 676.831  34
  -1   7   1 31117.9 1527.03   2
   1  -7  -1 33020.9 1333.90  11
   1  -7  -1 30567.9 1360.16  28
   1  -7  -1 32437.0 1387.97  34
   1  -7   0 174813. 3147.94  34
   1  -7   0 170478. 3335.86  28
  -1   7   0 168379. 3386.90   2
   1  -7   0 167246. 2919.06  11
  -1   7   0 176889. 3082.68  33
  -1   7  -1 10148.2 805.659   2
   1  -7   1 10076.9 853.135  28
  -1   7  -1 10719.8 736.779   1
   1  -7   1 9522.57 716.684  34
   1  -7   2 24461.0 1355.46  28
  -1   7  -2 24659.3 1204.07   2
  -1   7  -2 23955.1 1151.22   1
  -1   7  -3 233805. 3475.56  33
   1  -7   3 231690. 3586.05  37
  -1   7  -3 230019. 3682.30   1
  -1   7  -3 220371. 3499.48  22
   1  -7   3 228068. 4203.93  28
   1  -7   3 224363. 3861.48  31
  -1   7  -4 188972. 2972.81  18
   1  -7   4 189311. 3924.48  28
   1  -7   4 184362. 3329.27  37
   1  -7   4 181093. 3698.15  31
  -1   7  -4 192427. 3262.08  22
  -1   7  -4 182253. 3387.86   1
  -1   7  -4 188612. 3169.09  33
   1  -7   5 54475.5 2157.99  28
   1  -7   5 53952.9 2124.65  31
  -1   7  -5 53478.3 1671.54  18
  -1   7  -5 50141.4 1687.94  22
  -1   7  -5 49458.4 1667.55  33
   1  -7   5 53938.4 1861.92  37
   1  -7   6 214201. 3846.21  37
  -1   7  -6 219413. 3531.48  22
  -1   7  -6 224154. 3604.13  33
   1  -7   7 33580.0 1552.27  37
  -1   7  -7 33335.6 1364.71  22
  -1   7  -7 34930.0 1438.03  33
  -1   7  -8 28241.1 1266.41  33
   1  -7   8 30589.7 1451.13  37
  -1   7  -8 27652.8 1172.64  22
  -1   7  -9 97928.8 2177.76  33
  -1   7  -9 94980.2 1913.81  22
  -1   7 -10 87395.8 1702.41  19
  -1   7 -11 2134.37 221.447  19
   1  -6  -8 5621.37 381.743  11
   1  -6  -8 5246.61 360.595  10
   1  -6  -7 32637.3 1184.39  11
   1  -6  -7 33612.1 1110.28  10
   1  -6  -6 7018.97 623.583  11
   1  -6  -6 6784.51 560.060  10
   1  -6  -5 23282.9 1048.32  10
   1  -6  -5 20645.5 1099.50  11
  -1   6   4 19192.9 1288.58   2
   1  -6  -4 19441.6 1059.46  11
   1  -6  -3 18878.5 972.997  34
  -1   6   3 17107.2 1081.32  26
   1  -6  -3 18152.1 947.261  25
   1  -6  -3 18285.1 982.902  11
   1  -6  -3 18147.3 978.454  28
  -1   6   3 17955.9 1211.09   2
  -1   6   2 4179.26 553.591   2
   1  -6  -2 3984.73 451.906  28
   1  -6  -1 55168.8 1731.94  28
  -1   6   1 55746.4 1865.57   2
   1  -6   0 207013. 3445.18  28
  -1   6   0 207784. 3413.23   2
   1  -6   1 64191.9 1970.59  28
   1  -6   1 64927.2 1707.82  31
  -1   6  -1 69703.8 1719.54   1
   1  -6   2 615487. 4499.63   3
   1  -6   2 619296. 5694.23  31
   1  -6   2 631246. 6319.78  28
  -1   6  -2 619540. 5352.23   1
   1  -6   3 234372. 3082.09   3
  -1   6  -3 237548. 3454.75   1
   1  -6   3 226961. 3718.08  31
   1  -6   3 240752. 4061.15  28
  -1   6  -4 89215.8 2211.05   1
   1  -6   4 87948.0 2053.62   3
   1  -6   4 87390.5 2437.67  31
   1  -6   5 28076.1 1476.82  31
   1  -6   5 27110.1 1245.32   3
  -1   6  -6 89683.7 2155.82  30
   1  -6   6 95896.7 2842.47  31
  -1   6  -6 94949.0 2251.73  33
  -1   6  -6 92012.3 2135.63  22
   1  -6   6 94440.8 2416.14  37
   1  -6   7 994.812 281.548  37
  -1   6  -7 1027.24 267.591  33
  -1   6  -7 517.666 210.127  22
  -1   6  -8 98151.8 2190.47  22
  -1   6  -8 104774. 2454.62  33
  -1   6  -9 16417.8 942.676  33
  -1   6  -9 16886.4 919.680  19
  -1   6  -9 16020.3 794.602  22
  -1   6 -10 3014.94 381.247  19
  -1   6 -11 752.635 174.707  19
   1  -5  -9 493.490 149.344  10
   1  -5  -8 589.672 186.183  10
   1  -5  -8 1064.05 218.886  11
   1  -5  -7 21155.8 1023.51  10
   1  -5  -7 21344.7 1038.31  11
   1  -5  -6 638.068 177.989  17
   1  -5  -6 1187.38 270.581  10
   1  -5  -6 1116.22 273.293  11
  -1   5   5 29968.3 1546.05  26
   1  -5  -5 30965.8 1155.48  17
   1  -5  -5 30217.2 1173.49  10
   1  -5  -5 30464.9 1276.35  11
  -1   5   4 18455.9 1148.81   2
  -1   5   4 18174.7 1109.49  26
   1  -5  -4 18315.9 951.266  28
  -1   5   3 10904.4 823.426   2
   1  -5  -3 10738.8 701.651  28
  -1   5   3 10971.2 787.323  26
  -1   5   2 5579.21 563.281   2
   1  -5  -2 6153.08 523.628  28
   1  -5  -2 5593.24 430.417  32
  -1   5   1 35731.7 1304.16   2
  -1   5   1 37189.4 996.633   1
   1  -5  -1 36210.0 963.060  32
   1  -5  -1 36961.3 1287.90  28
   1  -5   0 31469.9 1222.22  28
  -1   5   0 33956.5 1018.48   1
   1  -5   0 33857.8 1014.55  31
   1  -5   1 8854.31 667.268  28
   1  -5   1 7666.41 536.916  31
   1  -5   1 8649.27 445.976   3
  -1   5  -1 7805.61 523.557   1
   1  -5   2 481657. 3749.69   3
   1  -5   2 476967. 4542.60  31
   1  -5   3 68257.8 1579.83   3
   1  -5   3 70053.5 1891.39  31
  -1   5  -3 69002.1 1690.34   1
   1  -5   4 26929.3 1094.24   3
   1  -5   4 27904.8 1272.81  31
  -1   5  -4 27123.8 1119.11   1
   1  -5   5 4011.94 543.056  31
   1  -5   5 4209.88 485.530   3
  -1   5  -6 43642.9 1460.97  30
   1  -5   6 43268.7 1817.56  31
   1  -5   6 43182.6 1645.18   3
   1  -5   7 15738.3 1188.17  31
  -1   5  -7 15372.2 928.072  30
  -1   5  -7 15165.2 820.366  22
  -1   5  -7 14953.5 863.558   4
  -1   5  -7 15435.7 903.427  33
  -1   5  -7 15115.7 782.402   8
  -1   5  -8 157280. 2955.89  33
  -1   5  -8 158347. 2593.91   8
  -1   5  -9 666.193 203.619   8
  -1   5  -9 522.676 228.158  19
  -1   5  -9 699.471 246.231  33
  -1   5 -10 3365.25 421.295  19
  -1   5 -11 17225.4 755.075  19
  -1   5 -11 12970.9 551.557  15
   1  -4 -10 574.850 160.678  10
   1  -4  -9 47008.2 1417.26  10
   1  -4  -8 89855.7 1984.58  11
   1  -4  -8 88415.6 2139.60  10
   1  -4  -7 5288.47 542.376  10
   1  -4  -7 5199.01 473.647  17
   1  -4  -7 4617.50 484.217  11
   1  -4  -7 4741.26 531.753  19
   1  -4  -6 85011.5 1866.85  17
   1  -4  -6 87620.9 2078.83  19
   1  -4  -6 83793.2 2292.21   7
  -1   4   6 83296.6 2553.07  26
   1  -4  -6 85055.3 2012.61  10
   1  -4  -5 302803. 3907.21  28
  -1   4   5 301705. 4187.07   2
  -1   4   4 241021. 3542.29   2
  -1   4   4 232903. 3492.76  26
   1  -4  -3 182524. 2478.66  32
  -1   4   3 186753. 2896.64   2
   1  -4  -3 189820. 2620.76  28
   1  -4  -2 498181. 3573.20  32
   1  -4  -2 503354. 4135.11  28
  -1   4   2 498108. 2809.56   1
   1  -4  -1 315.284 156.339  28
   1  -4  -1 113.271 73.2434  32
  -1   4   1 246.265 118.646   2
   1  -4  -1 181.571 73.1267  31
   1  -4  -1 158.872 52.4551   3
   1  -4   0 79046.8 1679.35  28
   1  -4   0 77642.3 1348.68  31
   1  -4   0 79319.5 1077.25  32
  -1   4   0 77523.5 1327.53   1
  -1   4  -1 269774. 2631.48   1
   1  -4   1 270612. 2343.51   3
   1  -4   1 271847. 1843.77  32
   1  -4   1 268215. 2761.35  31
   1  -4   2 161094. 2038.80   3
  -1   4  -2 164126. 1398.03   6
   1  -4   2 156582. 2294.35  31
  -1   4  -2 158071. 2155.56   1
   1  -4   2 158023. 1683.72  32
   1  -4   3 28485.3 1071.17  31
  -1   4  -3 27251.1 951.203   1
  -1   4  -3 28031.8 629.241   6
   1  -4   3 28603.5 954.730   3
  -1   4  -4 2284.24 313.187   1
   1  -4   4 2463.07 383.649  31
  -1   4  -4 2404.04 216.890   6
   1  -4   4 2009.65 291.765   3
  -1   4  -5 1921.98 283.478  30
   1  -4   5 1763.43 327.410   3
   1  -4   5 1795.53 355.477  31
  -1   4  -5 1759.69 215.742   6
  -1   4  -6 40198.9 1275.51   4
   1  -4   6 38130.1 1613.63  31
  -1   4  -6 37565.5 1311.48  30
  -1   4  -6 40201.0 1110.38   6
   1  -4   6 38204.7 1506.00   3
   1  -4   7 110783. 2947.81  31
  -1   4  -7 113293. 2291.17   4
  -1   4  -7 111591. 2434.89  30
  -1   4  -8 40986.2 1438.83  14
  -1   4  -8 40329.0 1442.56  33
  -1   4  -8 40398.8 1444.77  19
  -1   4  -8 38996.1 1344.76   8
  -1   4  -9 3065.38 421.523  19
  -1   4  -9 3847.83 431.352   8
  -1   4 -10 6535.20 579.896  19
  -1   4 -11 3036.94 347.760  19
  -1   4 -12 876.574 153.112  19
   1  -3 -11 5578.60 376.106  10
   1  -3 -10 6602.55 535.035  10
   1  -3  -9 86267.2 2137.98  10
   1  -3  -9 82260.7 2026.56  19
   1  -3  -8 156142. 2928.46  10
   1  -3  -8 155069. 2868.90  19
  -1   3   7 83914.5 2531.29  26
   1  -3  -7 83324.8 1841.98  17
   1  -3  -7 81379.8 2218.11   7
   1  -3  -7 78691.5 1984.51  19
  -1   3   6 115224. 2668.93  26
   1  -3  -6 120261. 2556.52   7
  -1   3   5 12313.4 720.257   2
   1  -3  -5 14125.7 820.306  28
  -1   3   5 12590.7 799.663  26
   1  -3  -4 155515. 2305.57  28
  -1   3   4 151520. 2354.99   2
  -1   3   4 149682. 2416.52  26
   1  -3  -3 98052.9 1656.09  28
  -1   3   3 95740.5 1722.00  26
   1  -3  -3 100542. 1641.36  32
  -1   3   3 99759.2 1749.79   2
   1  -3  -2 25477.1 803.878  28
  -1   3   2 25961.1 502.333   1
   1  -3  -2 26350.0 723.197  32
  -1   3   2 24203.6 798.168   2
   1  -3  -1 262065. 2531.73  28
   1  -3  -1 264418. 1726.09  31
  -1   3   1 269611. 1869.63   1
  -1   3   1 262179. 2435.44   2
   1  -3  -1 266379. 1898.99  32
   1  -3   0 83403.8 1152.87  31
   1  -3   0 86023.0 1461.73  28
   1  -3   0 86837.3 871.945  32
  -1   3   0 83597.4 1164.05   1
   1  -3   1 22656.3 676.571  31
  -1   3  -1 23598.1 670.124   1
   1  -3   1 24450.3 468.655  32
   1  -3   2 64979.8 1273.20  31
   1  -3   2 63120.5 1172.69   3
  -1   3  -2 63695.6 1194.15   1
  -1   3  -2 62850.1 901.292   6
  -1   3  -3 46437.7 1104.11   1
  -1   3  -3 46009.8 859.811   6
   1  -3   3 44364.5 770.730  26
   1  -3   3 43829.7 1179.32  31
   1  -3   3 44156.5 1107.80   3
  -1   3  -4 28757.7 897.389  30
  -1   3  -4 27724.5 768.119   6
   1  -3   4 26801.6 972.574   3
   1  -3   4 28833.3 1067.24  31
  -1   3  -5 232.927 136.474  30
  -1   3  -5 240.353 113.292   4
  -1   3  -5 70.1919 79.3394   6
   1  -3   5-12.0931 118.265   3
   1  -3   5 187.799 156.767  31
  -1   3  -6 11949.0 647.769   6
   1  -3   6 11066.0 835.635  31
  -1   3  -6 12127.3 729.163  30
  -1   3  -6 11870.5 679.816   4
   1  -3   6 12416.6 839.095   3
   1  -3   7 72996.8 2294.89  31
  -1   3  -7 78121.2 2003.19  30
  -1   3  -7 74881.2 1831.33   4
  -1   3  -8 47392.7 1641.57  14
   1  -3   8 47158.6 1993.49  31
  -1   3  -8 48218.2 1564.09   4
  -1   3  -8 50423.6 1546.99  33
  -1   3  -8 49178.1 1550.19   8
  -1   3  -8 50740.4 1596.61  19
  -1   3  -8 51428.9 1717.20  30
  -1   3  -9 57751.9 1763.09  19
  -1   3  -9 57230.6 1707.66   8
  -1   3  -9 56926.9 1846.16  14
  -1   3 -10 12337.6 789.695  19
  -1   3 -11 8961.47 514.285  10
  -1   3 -11 10049.1 615.451  19
  -1   3 -12 20739.8 632.190  19
   1  -2 -11 935.492 210.876  10
   1  -2 -11 904.215 214.329  19
   1  -2 -10 9020.93 687.732  10
   1  -2 -10 9955.82 687.391  19
   1  -2  -9 792.299 259.378  19
   1  -2  -8 24744.6 1026.27  17
   1  -2  -8 26153.9 1160.15  19
  -1   2   7 3896.50 501.072  26
   1  -2  -7 4721.87 521.175   7
  -1   2   6 2914.99 388.497  26
   1  -2  -6 3079.46 319.292  30
   1  -2  -6 2825.25 382.507   7
  -1   2   5 108914. 2048.44  26
  -1   2   5 112867. 1827.70   2
   1  -2  -5 110288. 1639.51  30
  -1   2   4 33540.3 1001.79  26
   1  -2  -4 35266.3 1034.64  28
  -1   2   4 33673.6 916.611   2
   1  -2  -4 32915.7 774.621  30
  -1   2   3 258000. 2303.75   2
  -1   2   3 251692. 2355.75  26
   1  -2  -3 259598. 2360.77  28
   1  -2  -3 254605. 1826.87  30
   1  -2  -2 16886.9 544.210  28
   1  -2  -2 16257.4 488.918  32
  -1   2   2 16608.1 531.694   2
   1  -2  -2 16528.7 378.968  30
   1  -2   1 415697. 2378.16  31
  -1   2  -1 409932. 2371.12   1
  -1   2  -1 409164. 2231.63   6
   1  -2   2 4466.38 300.524  31
   1  -2   2 3951.83 184.254  26
  -1   2  -2 4228.85 240.727   6
   1  -2   3 90895.1 1095.13  26
  -1   2  -3 91344.9 1336.93  30
  -1   2  -3 89587.4 1254.42   6
   1  -2   3 90437.6 1529.32  31
   1  -2   3 88287.8 1462.60   3
   1  -2   4 29123.3 959.560   3
   1  -2   4 32762.6 773.106  26
  -1   2  -4 29739.7 889.374  30
   1  -2   4 29301.6 988.770  31
  -1   2  -4 31665.7 865.957   6
  -1   2  -4 33214.1 875.895   4
   1  -2   5 8808.29 601.779   3
  -1   2  -5 9601.22 545.305   6
  -1   2  -5 9247.33 569.413  30
  -1   2  -5 10619.1 563.478   4
   1  -2   5 8580.46 613.878  31
  -1   2  -6 155306. 2556.72  30
  -1   2  -6 151075. 2424.40   6
   1  -2   6 147429. 2819.63  31
  -1   2  -6 145879. 2332.85   4
  -1   2  -7 69726.1 1867.95  30
  -1   2  -7 66035.6 1739.28   4
   1  -2   7 64422.1 2083.78  31
  -1   2  -8 62364.2 1791.32   4
  -1   2  -8 61249.1 1860.79  30
  -1   2  -8 63699.3 1804.82  19
  -1   2  -8 60102.4 1752.08   8
  -1   2  -8 59215.7 1893.12  14
  -1   2  -9 33030.4 1456.12  14
  -1   2  -9 34646.4 1373.12  19
  -1   2 -10 789.734 262.667  19
  -1   2 -11 773.940 193.580  19
  -1   2 -11 595.623 191.420  10
   1  -1 -12 19674.1 711.187  10
   1  -1 -11 22130.2 924.477  19
   1  -1 -11 21557.4 979.696  10
   1  -1 -10 16733.9 917.469  19
   1  -1  -9 20795.0 941.545  17
   1  -1  -9 20607.1 1043.81  19
   1  -1  -8 1067.98 266.966   7
  -1   1   8 1526.42 365.902  26
   1  -1  -8 1118.98 243.922  19
  -1   1   7 58989.2 1781.63  26
   1  -1  -7 58288.4 1461.25  30
   1  -1  -7 60922.6 1635.17   4
   1  -1  -7 58979.8 1654.70   7
   1  -1  -6 112376. 2091.40   7
  -1   1   6 113666. 2159.58  26
   1  -1  -6 117659. 2038.46   4
   1  -1  -5 150526. 2027.37   4
  -1   1   5 150915. 2148.33  26
   1  -1  -5 150982. 1829.45  30
   1  -1  -5 149331. 2138.86   7
  -1   1   4 140811. 1264.13  31
   1  -1  -4 133333. 1639.86   4
  -1   1   4 132274. 1740.47  26
  -1   1   4 138426. 1589.07   2
   1  -1  -4 140347. 1483.10  30
  -1   1   3 7801.19 337.222   2
   1  -1  -3 8263.13 340.433   4
   1  -1  -3 7661.91 280.847  30
   1  -1  -3 8692.98 419.711  28
   1  -1  -3 8359.36 327.748  27
  -1   1   3 7948.10 234.273  31
   1  -1  -1 101647. 863.177  27
  -1   1   1 107767. 821.863  26
  -1   1   1 102613. 895.028   2
   1  -1  -1 107592. 941.385  28
  -1   1  -3 312266. 2266.05   4
   1  -1   3 318655. 2724.83  31
  -1   1  -3 320454. 2523.34  30
  -1   1  -3 311682. 2467.67   6
   1  -1   3 313581. 2514.64   3
   1  -1   3 318362. 1844.81  26
   1  -1   4 463621. 2773.65  26
  -1   1  -4 459688. 3245.54   4
  -1   1  -4 437467. 3439.22  30
   1  -1   4 442634. 3430.60   3
  -1   1  -4 456666. 3451.94   6
   1  -1   4 455917. 3762.93  31
   1  -1   5 244785. 2388.52  26
   1  -1   5 230214. 3017.33  31
  -1   1  -5 228354. 2803.65  30
  -1   1  -5 240203. 2868.20   6
   1  -1   5 224774. 2756.96   3
  -1   1  -5 239415. 2721.29   4
  -1   1  -6 34085.6 1206.53  30
  -1   1  -6 31533.6 1121.92   4
   1  -1   6 32306.9 1286.13  31
  -1   1  -7 138962. 2564.92   4
  -1   1  -7 135699. 2621.79  30
  -1   1  -8 57540.9 1728.30  19
  -1   1  -8 54943.5 1872.87  14
  -1   1  -9 45489.6 1718.27  14
  -1   1  -9 43598.4 1541.08  19
  -1   1 -10 1089.02 275.045  10
  -1   1 -10 1255.79 294.052  19
  -1   1 -11 3646.96 348.886  10
  -1   1 -11 3456.81 348.651  19
   1   0 -12 12019.3 567.585  19
   1   0 -12 13272.0 660.537  10
   1   0 -11 32332.2 1161.98  19
   1   0 -10 31927.8 1275.43  19
   1   0  -9 3268.98 410.560  19
   1   0  -8 56866.1 1668.04   4
   1   0  -8 56495.6 1563.62  19
   1   0  -8 59335.8 1802.80  14
   1   0  -8 60111.7 1604.98  30
  -1   0   8 54000.4 1882.75  26
   1   0  -7 12784.9 720.396   7
   1   0  -7 12795.1 683.461  30
   1   0  -7 12411.8 716.599   4
  -1   0   7 11354.3 764.697  26
  -1   0   6 322086. 3056.15  31
   1   0  -6 322306. 3189.73   7
   1   0  -6 326921. 3238.63   4
  -1   0   6 316801. 3448.26  26
   1   0  -6 314327. 3039.15  30
  -1   0   6 318806. 2691.90   2
  -1   0   5 230827. 2311.65  31
   1   0  -5 234930. 2386.92   4
   1   0  -5 226272. 2254.49  30
  -1   0   5 232669. 2133.66   2
   1   0  -5 230278. 2344.86   7
   1   0  -4 25956.0 640.379  30
  -1   0   4 25393.7 666.473  31
   1   0  -4 26886.0 693.825   4
   1   0  -4 25682.3 453.636   1
   1   0  -4 24775.5 651.954   7
  -1   0   4 25569.6 729.962  26
   1   0  -4 24291.8 709.801  27
  -1   0   4 25616.7 645.696   2
   1   0  -4 25239.6 497.614  29
  -1   0   2 369075. 1885.58  31
  -1   0  -2 659853. 3387.19   7
   1   0   3 539958. 2265.91  29
   1   0   3 515234. 3594.45  31
  -1   0  -3 536661. 3214.47   4
  -1   0  -3 536749. 3620.78   7
   1   0   3 539432. 2815.38   3
   1   0   3 536794. 3044.42  26
  -1   0  -3 541233. 3445.90   6
  -1   0  -3 538804. 3409.21  30
  -1   0  -3 532949. 3578.96  32
   1   0   4 55068.8 1313.94  31
  -1   0  -4 57225.2 1359.71   7
   1   0   4 57852.0 1161.60  26
  -1   0  -4 55018.6 1207.24   4
   1   0   4 55982.3 1048.20   3
  -1   0  -4 56502.1 1289.90   6
  -1   0  -4 56781.1 1269.47  30
  -1   0  -5 478314. 4041.80   4
   1   0   5 463574. 4303.36  31
  -1   0  -5 475756. 4181.71  30
  -1   0  -5 475570. 4428.76   7
   1   0   5 472221. 3764.64  26
  -1   0  -5 475386. 4247.05   6
  -1   0  -6 545252. 5259.24   7
   1   0   6 535410. 4573.09  26
  -1   0  -6 540951. 4932.04  30
  -1   0  -7 47344.6 1577.26  30
  -1   0  -7 45926.0 1627.05  14
  -1   0  -7 47825.0 1498.90  19
  -1   0  -8 350523. 4706.75  14
  -1   0  -8 368461. 4401.77  19
  -1   0  -9 25678.4 1183.60  10
  -1   0  -9 25879.8 1263.88  14
  -1   0  -9 25692.4 1162.95  19
  -1   0 -10 209.948 175.361  19
  -1   0 -10-111.894 167.145  10
  -1   0 -11 1163.69 192.742  10
  -1   0 -11 974.793 192.367  19
  -1  -1  12 3781.00 751.636  35
   1   1 -12 2440.09 283.986  19
   1   1 -11 76565.3 1811.23  19
   1   1 -10 4789.62 482.407  15
   1   1 -10 4999.07 508.300  19
   1   1  -9 14467.6 840.306  19
   1   1  -9 13961.4 833.996  30
   1   1  -9 15140.7 835.790  15
  -1  -1   8 45288.7 1776.23  26
   1   1  -8 47483.0 1500.55   4
   1   1  -8 46663.7 1446.56  30
   1   1  -7 1283.38 237.622   4
   1   1  -7 1284.19 245.446  30
  -1  -1   7 836.915 256.313  31
  -1  -1   7 1076.17 260.202  26
   1   1  -6 13530.2 650.132  30
   1   1  -6 14565.4 681.026   4
  -1  -1   6 13795.5 771.321  26
  -1  -1   6 15164.4 754.224  31
   1   1  -5 96337.3 1516.28  30
   1   1  -5 97659.2 1549.07   4
  -1  -1   5 99851.9 1742.02  31
  -1  -1   5 97670.4 1790.88  26
  -1  -1   5 98355.0 1437.45   2
   1   1  -5 97210.5 1303.22   1
  -1  -1   4 86103.3 1246.21   2
  -1  -1   4 85757.9 1449.16  31
   1   1  -4 84599.9 855.647  29
  -1  -1   4 81320.0 1483.91  26
   1   1  -4 86648.7 1386.07  27
   1   1  -4 81728.2 1144.06   1
   1   1  -1 268315. 1899.40  27
   1   1  -1 260922. 1807.62   1
   1   1   0 174781. 1626.14  27
  -1  -1   0 176003. 1076.93   6
  -1  -1  -1 290935. 1852.23   6
   1   1   1 289578. 2217.60  27
  -1  -1  -1 291710. 1487.26  28
   1   1   2 130747. 786.231   3
  -1  -1  -2 131328. 1542.38   6
  -1  -1  -2 129134. 1651.42  30
   1   1   2 141556. 1437.04   2
  -1  -1  -2 139850. 1233.72  28
  -1  -1  -2 125949. 1661.05   7
  -1  -1  -2 132100. 1778.10  32
  -1  -1  -3 51479.5 1133.53   6
   1   1   3 54855.3 874.722   2
  -1  -1  -3 52546.6 1236.15   7
  -1  -1  -3 55134.2 1303.01  32
  -1  -1  -3 54495.7 1202.90  30
   1   1   4 108123. 1943.23  31
  -1  -1  -4 108491. 2005.37   7
   1   1   4 108792. 1959.64  26
  -1  -1  -4 110536. 2056.79  32
  -1  -1  -4 110899. 1925.01  30
  -1  -1  -5 2685.47 374.834   7
  -1  -1  -5 3240.75 377.329  30
  -1  -1  -6 143996. 2813.56   7
  -1  -1  -6 146299. 2680.76  30
   1   1   6 141653. 2716.38  26
  -1  -1  -7 89218.2 2181.84  10
  -1  -1  -7 87255.4 2086.46  19
  -1  -1  -7 81400.3 2183.34  14
  -1  -1  -7 88096.8 2197.53  30
  -1  -1  -8 115602. 2566.42  10
  -1  -1  -8 116406. 2637.12  14
  -1  -1  -8 116359. 2494.40  19
  -1  -1  -9 5321.50 548.302  10
  -1  -1  -9 5054.94 510.172  19
  -1  -1 -10 2917.37 352.572  10
  -1  -1 -10 2902.49 335.691  19
   1   2 -12 8973.89 529.303  19
   1   2 -11 37214.2 1221.68  15
   1   2 -11 35169.6 1233.58  19
   1   2 -10 64868.6 1772.72  19
   1   2 -10 63267.8 1762.06  15
   1   2  -9 9406.84 673.185  19
   1   2  -9 9774.41 662.709  22
   1   2  -9 10271.1 736.598  30
   1   2  -8 80414.5 1960.22   4
   1   2  -8 78543.6 1942.42  30
  -1  -2   8 83672.6 2275.12  31
   1   2  -7 221238. 2997.02   4
  -1  -2   7 210288. 3684.98  26
  -1  -2   7 216571. 3422.59  31
   1   2  -7 215231. 2947.27  30
   1   2  -6 408.322 164.845   4
   1   2  -6 361.712 121.774   1
  -1  -2   6 294.858 183.159  31
  -1  -2   6 395.001 195.274  26
   1   2  -5 8576.88 518.755  27
  -1  -2   5 8619.59 592.008  31
   1   2  -5 9523.23 492.432   1
  -1  -2   5 7296.55 594.123  26
   1   2  -4 499282. 3415.84   1
  -1  -2   4 485674. 3999.23  31
   1   2  -4 490553. 2522.28  29
  -1  -2   4 477625. 4356.60  26
  -1  -2   3 48648.3 1298.79  26
  -1  -2   3 48994.3 1175.33  31
   1   2  -3 49829.8 1035.76   1
   1   2  -3 47977.3 850.051  29
  -1  -2   1 99304.3 1503.80  31
   1   2  -1 100005. 1212.91  27
   1   2  -1 97744.5 1366.94   1
   1   2   0 112096. 1390.52  27
   1   2   0 115801. 1474.45   1
  -1  -2   0 115097. 1709.01  32
  -1  -2   0 112207. 929.892   5
  -1  -2  -1 4993.10 283.062  28
   1   2   1 4234.13 291.732   1
   1   2   1 4854.97 327.141  27
  -1  -2  -1 4655.83 259.872   6
  -1  -2  -1 4608.06 360.910  32
  -1  -2  -2 846.069 184.916  32
   1   2   2 1052.98 166.648   1
   1   2   2 863.524 169.497  27
  -1  -2  -2 830.046 163.236  30
  -1  -2  -2 876.872 123.622  28
  -1  -2  -3 303477. 3291.93   7
   1   2   3 320983. 3036.92   2
  -1  -2  -3 327019. 2611.98  28
   1   2   3 312920. 3088.31  27
  -1  -2  -3 302447. 3152.65  30
  -1  -2  -3 303046. 3410.28  32
  -1  -2  -4 3706.50 434.849  32
  -1  -2  -4 4184.10 438.083   7
  -1  -2  -4 3950.75 395.987  30
   1   2   4 3853.81 455.202  26
  -1  -2  -5 34389.7 1254.03  30
  -1  -2  -5 32990.6 1315.25   7
   1   2   5 32675.2 1437.51  26
  -1  -2  -6 85775.9 2111.04  10
   1   2   6 87907.2 2503.61  26
  -1  -2  -6 90780.9 2330.54   7
  -1  -2  -6 87897.3 2083.89  14
  -1  -2  -6 89458.0 2058.53  19
  -1  -2  -6 84987.7 2088.13  30
  -1  -2  -7 20898.1 1070.38  14
  -1  -2  -7 19562.2 1027.07  19
  -1  -2  -7 20363.1 1096.41  10
  -1  -2  -8 170.166 195.276  19
  -1  -2  -8 29.9714 182.607  10
  -1  -2  -9 21628.3 939.413  19
  -1  -2  -9 20261.9 965.042  10
  -1  -2 -10 7405.73 462.074  10
   1   3 -12 21518.1 789.540  19
   1   3 -12 21351.3 769.415  15
   1   3 -11 6093.21 510.525  19
   1   3 -11 6379.09 546.657  15
   1   3 -10 795.640 218.842  19
   1   3 -10 1414.12 262.944  22
   1   3  -9 103818. 2175.66  19
   1   3  -9 102896. 2242.16  22
   1   3  -8 102145. 2256.74   4
   1   3  -8 104552. 2308.57  30
  -1  -3   8 104689. 2734.39  31
   1   3  -8 99699.2 2231.94  33
   1   3  -7 403.188 147.440   1
  -1  -3   7 440.600 246.700  31
   1   3  -7 262.894 143.202  30
  -1  -3   7-110.087 188.089  26
   1   3  -7 339.316 154.246   4
   1   3  -6 96861.5 1886.58   1
  -1  -3   6 93322.7 2275.86  31
  -1  -3   6 92594.2 2371.96  26
  -1  -3   5-22.8390 164.095  31
   1   3  -5 125.732 110.429  27
  -1  -3   5 364.638 207.444  26
  -1  -3   4 159098. 2600.61  31
   1   3  -4 156689. 2224.81   1
   1   3  -4 157515. 1759.63  29
   1   3  -4 162001. 2089.42  27
  -1  -3   3 960479. 6033.27  26
  -1  -3   3 950818. 5974.82  31
   1   3  -2 452607. 2803.32  27
   1   3  -2 450184. 3532.17   1
  -1  -3   1 11123.9 630.337  32
   1   3  -1 10779.1 545.171   1
   1   3  -1 10973.6 416.758  27
  -1  -3   1 11459.7 606.476  31
  -1  -3   0 253146. 2616.42  28
   1   3   0 250363. 2551.68   1
   1   3   0 252220. 1973.32  27
  -1  -3   0 250094. 2871.62  32
  -1  -3  -1 23462.2 919.044  32
  -1  -3  -1 24962.2 767.341  28
   1   3   1 25124.9 798.873   1
  -1  -3  -2 109580. 2104.69  32
   1   3   2 116381. 1696.42   1
  -1  -3  -2 118984. 1609.56  28
   1   3   2 108946. 2247.88   2
  -1  -3  -3 21413.7 1012.24  32
   1   3   3 24080.6 1073.94   2
  -1  -3  -3 22596.6 992.096   7
  -1  -3  -4 342.488 157.827   7
  -1  -3  -4 1046.25 262.650  32
   1   3   4 575.706 261.619  26
  -1  -3  -5 47498.6 1553.69  10
  -1  -3  -5 46929.3 1660.09   7
  -1  -3  -5 45095.9 1441.83  19
   1   3   5 47172.5 2016.06  26
  -1  -3  -6 4304.21 525.685  10
  -1  -3  -6 5454.57 535.991  20
  -1  -3  -6 5089.64 524.842  19
  -1  -3  -7 285.549 207.892  19
  -1  -3  -7 316.830 219.003  10
  -1  -3  -8 3459.22 440.616  10
  -1  -3  -9 13615.2 686.508  10
   1   4 -12 15238.1 682.150  15
   1   4 -12 14873.8 614.946  19
   1   4 -11 4864.25 449.849  19
   1   4 -10 34832.4 1298.88  22
   1   4 -10 33203.6 1219.30  19
   1   4  -9 22664.1 1016.47  19
   1   4  -9 22437.0 1146.09  33
   1   4  -9 23953.0 1123.86  22
  -1  -4   8 91888.6 2728.52  31
   1   4  -8 97509.6 2299.71  30
   1   4  -8 96617.0 2248.79   4
   1   4  -8 96292.7 2248.84  33
   1   4  -8 92018.9 2155.90  22
  -1  -4   7 1051.94 334.986  31
   1   4  -7 1104.27 246.366   1
  -1  -4   6 1426.12 323.826  26
  -1  -4   6 1599.59 354.243  31
  -1  -4   5 3354.02 482.506  31
  -1  -4   5 2793.59 404.667  26
   1   4  -5 3528.47 404.502   1
   1   4  -4 98626.4 2011.88   1
   1   4  -4 96261.5 1635.00  29
   1   4  -4 94513.4 1670.46  27
  -1  -4   4 95247.3 2253.64  31
  -1  -4   3 13734.3 823.195  31
   1   4  -3 13256.3 723.105   1
   1   4  -3 13377.4 566.075  27
   1   4  -2 506832. 4323.25   1
  -1  -4   2 501513. 4707.01  31
  -1  -4   1 220449. 3003.57  31
   1   4  -1 218332. 2781.27   1
  -1  -4   1 217776. 2998.14  32
  -1  -4   0 41486.0 1224.26  28
   1   4   0 39920.3 1162.71   1
  -1  -4   0 38884.7 1266.75  32
   1   4   1 451.965 124.848   1
  -1  -4  -1 58.5893 115.843  32
  -1  -4  -1 215.691 124.673  28
  -1  -4  -2 39844.9 1420.46  32
   1   4   2 40813.1 1655.24   2
  -1  -4  -3 14032.1 849.932   7
  -1  -4  -3 13897.7 887.207  32
  -1  -4  -4 92180.9 2192.72  10
  -1  -4  -4 91287.8 2390.07  32
  -1  -4  -4 93824.7 2097.22  11
  -1  -4  -4 92574.1 2305.90   7
  -1  -4  -5 53014.8 1745.53  10
  -1  -4  -5 55920.9 1620.68  11
  -1  -4  -6 5379.39 593.232  10
  -1  -4  -6 6153.53 565.626  20
  -1  -4  -7 11979.1 786.221  10
  -1  -4  -8 50064.2 1347.14  10
   1   5 -12 37674.6 1038.74  15
   1   5 -12 38304.0 861.318  19
   1   5 -11 25387.9 909.173  19
   1   5 -11 24897.1 960.577  22
   1   5 -10 16248.5 819.015  19
   1   5 -10 15236.6 869.728  22
   1   5  -9 1782.58 362.229  33
   1   5  -9 2079.85 369.086  22
   1   5  -8 172282. 3117.34  22
   1   5  -8 178485. 3142.67  33
  -1  -5   8 178429. 3412.74  37
   1   5  -7 150173. 2721.48  33
  -1  -5   7 152955. 3565.76  31
   1   5  -7 143392. 2872.90   1
   1   5  -7 149447. 2794.81  22
  -1  -5   7 146731. 2964.63  37
  -1  -5   6 86025.8 2555.23  31
   1   5  -6 82493.4 2151.82   1
  -1  -5   5 78185.5 2347.21  31
   1   5  -5 74454.7 1997.08   1
  -1  -5   4 47.6968 167.097  32
  -1  -5   4 141.933 188.758  31
   1   5  -4 85.5636 153.411   1
   1   5  -4-69.9963 125.160  29
  -1  -5   3 69.8136 146.790  31
   1   5  -3 128.928 145.238   1
  -1  -5   3 109.351 179.266  32
  -1  -5   2 232354. 3331.78  32
   1   5  -2 238872. 3346.63   1
  -1  -5   2 230892. 3547.17  31
  -1  -5   2 234016. 3624.41  28
  -1  -5   1 95.1802 134.977  28
  -1  -5   1 146.287 158.484  32
   1   5  -1 217.730 143.248   1
  -1  -5   0 14445.2 808.372  28
   1   5   0 15513.1 810.416   1
  -1  -5   0 13822.1 819.978  32
  -1  -5  -1 107.564 125.657  32
   1   5   1 62.9606 176.091   2
  -1  -5  -2 16110.7 968.924  32
  -1  -5  -2 17152.5 937.637  11
  -1  -5  -2 16671.1 914.971  10
  -1  -5  -3 39866.5 1464.58  11
  -1  -5  -3 38811.3 1460.04  10
  -1  -5  -3 41514.3 1592.94  32
  -1  -5  -3 41396.6 1433.58  34
  -1  -5  -3 39635.2 1485.46   7
  -1  -5  -4 101356. 2397.70  10
  -1  -5  -4 102616. 2342.25  11
  -1  -5  -5 589.270 235.128  10
  -1  -5  -5 717.650 238.336  11
  -1  -5  -6 2685.99 322.489  11
  -1  -5  -6 2804.92 391.053  10
  -1  -5  -6 2975.71 385.430  20
  -1  -5  -7 17217.5 785.920  10
  -1  -6  12 46885.8 1430.79  35
   1   6 -12 44030.2 1007.39  15
   1   6 -11 160.367 86.7125  19
   1   6 -11 187.302 121.141  22
   1   6 -10 54483.2 1372.71  19
   1   6 -10 54161.3 1635.11  33
   1   6 -10 53108.4 1576.57  22
   1   6  -9 8513.09 696.439  22
  -1  -6   9 9215.56 794.789  37
   1   6  -9 8442.94 694.281  33
  -1  -6   8 74.2265 199.593  37
   1   6  -8 78.2101 172.162  22
   1   6  -7 1287.34 297.186  33
  -1  -6   7 797.914 272.056  37
   1   6  -7 869.506 240.935  22
   1   6  -7 808.982 241.502  36
   1   6  -6 6446.63 658.169   1
  -1  -6   6 6335.14 744.979  31
   1   6  -6 6709.13 623.810  22
   1   6  -6 6329.67 563.570  33
  -1  -6   6 6307.33 641.315  37
  -1  -6   5 6970.38 660.980  37
  -1  -6   5 6745.54 753.889  31
   1   6  -5 7511.25 703.697   1
   1   6  -5 7048.09 551.396  33
   1   6  -5 6998.90 611.832  22
   1   6  -4 6567.10 638.556   1
  -1  -6   4 5475.74 650.097  31
   1   6  -4 6735.24 570.363  29
  -1  -6   3 131362. 2985.30  31
  -1  -6   3 137339. 3126.98  28
   1   6  -3 138210. 2844.01   1
   1   6  -2 165588. 3027.49   1
  -1  -6   2 165837. 3261.15  28
  -1  -6   1 6495.22 605.538  11
  -1  -6   1 6440.85 619.945  28
  -1  -6   1 6197.74 596.323  34
   1   6  -1 5682.43 545.985   1
  -1  -6   0 180953. 3161.63  11
  -1  -6   0 186134. 3263.83  34
   1   6   0 175631. 3785.70   2
  -1  -6  -1 229962. 3684.91  34
  -1  -6  -1 230291. 3645.79  11
  -1  -6  -2 335.302 208.358  11
  -1  -6  -2 576.061 213.295  34
  -1  -6  -3 192145. 3307.46  11
  -1  -6  -3 195299. 3024.58  23
  -1  -6  -3 184778. 3196.74  10
  -1  -6  -4 101500. 2288.60  10
  -1  -6  -4 107059. 2333.41  11
  -1  -6  -5 25221.2 1088.16  20
  -1  -6  -5 25503.3 1001.91  11
  -1  -6  -6 33788.9 984.889  20
   1   7 -11 30135.3 879.866  22
   1   7 -10 9384.13 497.930  19
   1   7 -10 8329.75 590.548  22
  -1  -7  10 9959.49 692.094  37
   1   7  -9 29227.6 1211.06  22
   1   7  -9 29259.5 1174.37  33
  -1  -7   9 28414.4 1321.46  37
   1   7  -8 5717.56 505.412  36
  -1  -7   8 4983.10 606.604  37
   1   7  -8 5096.37 552.395  22
   1   7  -8 5092.88 517.796  33
  -1  -7   7 128028. 2993.40  37
   1   7  -7 126909. 2723.01  22
   1   7  -7 124778. 2502.16  33
   1   7  -7 129127. 2605.52  36
  -1  -7   6 5257.08 631.133  37
   1   7  -6 4786.30 490.092  33
   1   7  -6 4918.80 541.798  22
   1   7  -5 634.635 243.925  22
   1   7  -5 550.997 226.417  33
  -1  -7   5 453.538 276.267  23
  -1  -7   5 164.088 175.438  37
  -1  -7   4 131991. 2782.14  23
  -1  -7   4 134975. 2930.64  37
  -1  -7   4 138918. 2758.44  34
  -1  -7   3 184021. 3288.67  23
  -1  -7   3 172709. 3190.49  37
  -1  -7   3 177204. 3232.27  34
   1   7  -3 184331. 3029.90  22
  -1  -7   2 689.525 233.955  34
  -1  -7   2 463.022 182.085  37
   1   7  -2 255.063 122.943  22
  -1  -7   1 20137.6 1121.51  11
  -1  -7   1 23371.0 1230.44  34
  -1  -7   0 43669.1 1680.76  34
  -1  -7   0 44038.8 1659.25  11
  -1  -7  -1 44122.3 1638.12  11
  -1  -7  -1 44334.3 1645.54  34
  -1  -7  -2 93466.1 2312.95  11
  -1  -7  -2 94891.8 2198.61  23
  -1  -7  -3 77033.5 1731.15  23
  -1  -7  -3 73961.2 1917.57  11
  -1  -7  -4 9387.11 608.439  11
  -1  -7  -5 6746.09 440.396  20
   1   8 -10 7729.06 479.352  22
  -1  -8  10 8188.02 516.290  37
  -1  -8   9 51981.4 1571.07  37
   1   8  -9 52039.7 1318.39  33
   1   8  -9 52077.5 1430.01  22
   1   8  -8 1318.58 246.253  33
   1   8  -8 847.625 211.558  36
   1   8  -8 813.140 242.811  22
  -1  -8   8 768.831 256.300  37
  -1  -8   7 45504.4 1689.49  37
   1   8  -7 45021.0 1353.20  33
   1   8  -7 46385.1 1548.20  22
   1   8  -7 46266.3 1494.69  36
   1   8  -6 3439.55 387.927  33
   1   8  -6 3343.35 452.216  22
  -1  -8   6 3657.81 497.232  37
  -1  -8   5 7375.84 699.394  37
   1   8  -5 7983.71 663.000  22
  -1  -8   5 7215.38 646.258  23
  -1  -8   5 8057.81 624.578  34
   1   8  -4 10518.0 730.109  22
  -1  -8   4 9789.14 731.855  34
  -1  -8   4 9847.13 785.118  37
  -1  -8   4 10343.4 792.622  23
  -1  -8   3 2230.15 391.181  23
  -1  -8   3 2872.72 435.855  37
   1   8  -3 1889.86 300.448  22
  -1  -8   3 2778.66 417.080  34
  -1  -8   2 2.72344 161.759  23
  -1  -8   2 160.569 153.718  34
  -1  -8   1 2783.00 424.101  34
  -1  -8   1 3132.47 456.379  23
  -1  -8   0 56211.7 1756.94  23
  -1  -8   0 58128.9 1820.03  34
  -1  -8  -1 8382.73 634.572  23
  -1  -8  -2 4334.44 414.343  23
  -1  -8  -3 5001.60 438.752  20
  -1  -9   9 5264.38 396.503  37
   1   9  -9 4871.16 350.167  22
   1   9  -8 71432.2 1498.20  22
   1   9  -8 69665.4 1162.60  33
   1   9  -8 66894.5 1254.96  36
  -1  -9   8 70748.9 1653.82  37
   1   9  -7 46653.5 1304.67  22
  -1  -9   7 44634.9 1425.15  37
   1   9  -7 44694.6 1252.83  36
  -1  -9   6 6021.85 562.765  37
   1   9  -6 6260.20 534.344  36
   1   9  -6 6093.43 500.966  22
   1   9  -5 152118. 2407.44  22
  -1  -9   5 145489. 2417.66  23
  -1  -9   5 145375. 2642.35  37
   1   9  -4 4.21868 112.405  22
  -1  -9   4 11.4157 142.275  37
  -1  -9   4 148.897 147.365  23
  -1  -9   3 2529.91 369.708  23
   1   9  -3 2291.97 272.209  22
  -1  -9   2 437.156 216.453  23
  -1  -9   1 50007.7 1467.12  23
  -1  -9   0 13468.8 710.255  23
  -1  -9  -1 23182.7 801.321  23
   1  10  -6 17317.4 539.775  22
   1  10  -6 17767.7 638.077  36
  -1 -10   6 17150.2 639.930  37
   1  10  -5 35733.9 737.240  22
  -1 -10   5 35587.5 861.860  37
   1  10  -5 37588.0 1002.14  36
   1  10  -4 516.504 153.779  36
  -1 -10   4 162.171 97.7881  23
  -1 -10   3 407.532 140.117  23
   1  10  -3 466.510 132.050  36
  -1 -10   3 542.053 138.229  24
  -1 -10   2 575.561 151.913  24
   1  10  -2 393.062 102.446  36
  -1 -10   2 375.907 132.424  23
   2 -11   0 235.970 125.559  34
   2 -11   0 117.275 88.9590  23
  -2  11   0-53.0292 68.5456  22
  -2  11  -1 66055.0 1237.27  22
   2 -11   1 66881.2 1413.47  34
   2 -11   1 65981.9 1330.72  23
  -2  11  -2 4612.39 364.926  22
   2 -11   2 4781.94 383.099  34
   2 -11   2 5109.36 357.250  23
  -2  11  -2 5394.87 315.542  33
   2 -11   3 12307.4 567.048  34
   2 -11   3 11645.0 526.546  37
  -2  11  -3 13276.1 630.296  22
  -2  11  -3 13015.2 528.929  33
  -2  11  -4 38023.8 1047.79  22
   2 -11   4 37761.4 1029.82  37
  -2  11  -4 38698.5 926.104  33
  -2  11  -5 40812.9 1017.08  22
   2 -11   5 39816.4 1052.64  37
  -2  11  -5 39478.4 904.520  33
   2 -10  -3 143319. 1975.17  23
   2 -10  -3 142644. 1922.71  11
   2 -10  -2 64184.3 1520.80  34
   2 -10  -2 62845.9 1411.03  11
  -2  10   1 8689.45 547.979  22
   2 -10  -1 8487.31 628.611  34
   2 -10   0 70757.3 1874.50  34
  -2  10   0 70990.2 1733.87  22
  -2  10   0 72578.2 1564.62  33
   2 -10   1 27878.8 1203.53  34
  -2  10  -1 28664.7 1069.79  33
  -2  10  -1 29917.2 1201.39  22
   2 -10   2 4162.49 441.459  37
   2 -10   2 3634.10 447.221  34
  -2  10  -2 4349.05 445.781  33
  -2  10  -2 3919.23 455.007  22
  -2  10  -3 11796.8 730.505  33
   2 -10   3 12240.7 692.399  23
   2 -10   3 11391.7 758.706  37
  -2  10  -3 11748.7 776.591  22
   2 -10   3 12633.0 773.295  34
   2 -10   4 8572.32 578.406  34
  -2  10  -4 9138.89 671.458  22
  -2  10  -4 8673.47 626.327  33
   2 -10   4 8377.66 680.109  37
  -2  10  -5 12204.4 721.290  33
   2 -10   5 12116.5 796.626  37
  -2  10  -5 11824.5 725.949  22
   2 -10   6 29445.8 1166.84  37
  -2  10  -6 29325.7 1043.53  33
  -2  10  -6 28711.2 1041.61  22
   2 -10   7 25113.8 981.488  37
  -2  10  -7 24391.0 832.585  22
  -2  10  -7 25506.2 883.371  33
  -2  10  -8 14125.8 552.020  33
   2 -10   8 13640.3 588.115  37
   2  -9  -5 3620.22 343.394  11
   2  -9  -5 3147.08 260.901  23
   2  -9  -4 2551.91 342.556  11
   2  -9  -4 2300.45 270.912  34
   2  -9  -3 28604.2 1165.00  11
   2  -9  -3 26860.0 1107.79  34
  -2   9   3 28545.9 1017.66  22
   2  -9  -2 59665.5 1740.16  11
  -2   9   2 58790.6 1577.45  33
   2  -9  -2 61577.3 1848.43  34
  -2   9   2 58414.4 1654.92  22
  -2   9   1 33.0190 186.199  33
   2  -9  -1 403.409 238.374  34
   2  -9  -1 66.9733 150.724  11
  -2   9   1 242.858 211.760  22
   2  -9   0 149269. 2707.24  11
  -2   9   0 160218. 2967.74  33
   2  -9   0 156450. 3152.18  34
  -2   9   0 157835. 3096.99  22
  -2   9  -1 5994.85 641.335  22
   2  -9   1 6664.84 581.689  37
   2  -9   1 5958.71 623.399  34
  -2   9  -1 6440.13 632.525  33
  -2   9  -2 7374.87 667.689  33
   2  -9   2 6140.44 631.410  34
  -2   9  -2 6086.27 652.033  22
   2  -9   2 5674.57 582.116  37
   2  -9   3 117745. 2720.94  37
  -2   9  -3 119790. 2735.95  22
  -2   9  -3 119641. 2311.74  18
  -2   9  -3 121156. 2668.85  33
   2  -9   3 119854. 2606.95  34
   2  -9   4 10802.4 736.168  34
  -2   9  -4 10735.6 816.759  22
   2  -9   4 10858.2 861.438  37
  -2   9  -4 10998.8 806.110  33
  -2   9  -5 71775.1 2004.48  22
  -2   9  -5 73547.9 2016.74  33
   2  -9   5 76253.0 2234.23  37
  -2   9  -6 27258.5 1190.08  33
  -2   9  -6 26195.7 1142.86  22
   2  -9   6 25963.7 1281.22  37
   2  -9   7 2188.29 375.999  37
  -2   9  -7 1605.43 295.537  22
  -2   9  -7 1852.84 308.180  33
  -2   9  -8 25.1904 115.343  33
  -2   9  -8-79.7272 111.572  22
   2  -9   8 137.402 144.383  37
  -2   9  -9 87284.3 1451.37  33
  -2   9  -9 89755.6 1413.21  19
   2  -8  -7 548.455 141.247  11
   2  -8  -6 3105.51 356.527  11
   2  -8  -5 12165.0 780.883  11
   2  -8  -4 14810.7 835.588  34
   2  -8  -4 16961.6 978.503  11
   2  -8  -3 19950.7 1070.26  34
   2  -8  -3 19902.6 1089.19  11
  -2   8   3 19277.8 1068.83  33
  -2   8   2 97525.7 2468.70  33
   2  -8  -2 96806.1 2455.31  34
   2  -8  -2 96742.8 2356.96  11
  -2   8   1 120806. 2786.10  33
   2  -8  -1 114508. 2503.65  11
   2  -8  -1 118551. 2752.98  34
   2  -8   0 63948.3 2026.99  34
  -2   8   0 68470.5 2119.39  33
  -2   8   0 70549.0 2138.74  22
   2  -8   0 64684.8 1816.45  11
  -2   8  -1 162202. 3243.98  22
   2  -8   1 151778. 3063.42  34
  -2   8  -1 159941. 3174.31  33
   2  -8   1 152328. 2870.31  37
  -2   8  -2 40385.6 1611.94  22
  -2   8  -2 40883.9 1391.33  18
  -2   8  -2 39336.0 1572.81  33
   2  -8   2 39961.6 1554.04  37
  -2   8  -2 44070.0 1575.98   2
   2  -8   2 40509.0 1551.49  34
   2  -8   3 2711.27 395.460  34
  -2   8  -3 2819.06 438.400  33
  -2   8  -3 2541.68 394.146  18
  -2   8  -3 3174.12 471.517  22
   2  -8   3 2618.81 423.306  37
  -2   8  -4 512.790 250.452  18
  -2   8  -4 72.6893 170.530  22
  -2   8  -4 677.688 261.048  33
   2  -8   4 344.205 266.224  37
  -2   8  -5 1052.19 272.100  18
   2  -8   5 1578.30 377.846  37
  -2   8  -5 1215.55 315.411  22
  -2   8  -6 6650.66 639.993  33
  -2   8  -6 5688.76 567.486  22
   2  -8   6 6383.80 681.854  37
  -2   8  -7 2706.74 408.054  33
   2  -8   7 2565.17 452.998  37
  -2   8  -7 3132.95 414.556  22
  -2   8  -8 20850.0 977.788  33
   2  -8   8 23568.2 1166.17  37
  -2   8  -8 21033.4 866.070  22
  -2   8  -9 19592.2 811.965  19
  -2   8  -9 20130.1 838.097  33
  -2   8 -10 6134.67 368.573  19
   2  -7  -8 5397.84 377.605  11
   2  -7  -7 24239.4 1005.58  11
   2  -7  -6 906.848 261.481  11
   2  -7  -5 7092.12 657.647  11
   2  -7  -4 7090.47 666.147  11
  -2   7   4 7153.83 708.650  33
   2  -7  -4 7778.32 645.386  34
   2  -7  -4 7297.35 650.612  25
  -2   7   3 85271.1 2452.61  33
   2  -7  -3 89676.5 2243.77  25
   2  -7  -3 87090.1 2214.47  34
   2  -7  -3 90576.3 2257.56  11
  -2   7   2 71326.1 1900.27  26
   2  -7  -2 75774.4 1982.51  11
  -2   7   2 68706.8 2225.18   2
   2  -7  -2 75329.8 2158.31  28
   2  -7  -2 74002.1 1998.29  25
  -2   7   2 70146.7 2203.73  33
   2  -7  -2 74794.7 2061.60  34
   2  -7  -1 240986. 3883.79  28
  -2   7   1 228956. 3846.76   2
  -2   7   1 234700. 3159.85  26
  -2   7   1 237240. 3928.01  33
   2  -7  -1 237988. 3499.94  25
   2  -7  -1 239785. 3631.51  34
   2  -7   0 70075.2 2149.79  28
  -2   7   0 73169.8 2070.76   2
  -2   7  -1 2603.71 391.247   2
   2  -7   1 2567.94 455.895  28
   2  -7   2 156384. 3324.56  28
  -2   7  -2 152571. 2749.03   2
   2  -7   3 44209.0 1728.59  31
  -2   7  -3 49237.5 1633.64  22
   2  -7   3 47062.7 1872.75  28
   2  -7   3 46699.2 1509.52   3
  -2   7  -3 48380.2 1465.12   2
  -2   7  -3 47486.1 1607.65  33
   2  -7   3 45854.1 1612.48  37
  -2   7  -4 207174. 3280.98  18
   2  -7   4 202983. 3917.33  31
  -2   7  -4 194300. 2852.86  30
   2  -7   4 198854. 3913.48  28
   2  -7   4 195465. 3338.49   3
   2  -7   4 208032. 3565.43  37
  -2   7  -4 209329. 3343.06  22
  -2   7  -4 204024. 3356.32  33
  -2   7  -4 200905. 3253.30  12
  -2   7  -5 3532.84 452.042  22
  -2   7  -5 4052.08 505.000  33
   2  -7   5 3553.77 559.144  28
  -2   7  -5 2882.87 425.653  18
  -2   7  -5 3505.75 488.129  12
  -2   7  -5 2106.15 336.906  30
   2  -7   5 3192.67 481.728  37
   2  -7   5 4787.44 582.384   3
   2  -7   5 3500.11 584.957  31
  -2   7  -6 170360. 3168.54  33
  -2   7  -6 179066. 3021.00  22
   2  -7   6 169559. 3463.87  37
  -2   7  -7 136955. 2518.23  22
   2  -7   7 144124. 3194.90  37
  -2   7  -7 137490. 2379.10   8
  -2   7  -7 134232. 2763.40  33
  -2   7  -8 25837.7 1160.84  33
  -2   7  -8 25150.9 963.170   8
   2  -7   8 28749.8 1367.83  37
  -2   7  -9 97919.2 2012.52  33
  -2   7  -9 98280.6 1663.04   8
  -2   7 -10 33818.2 1001.74  19
   2  -6  -9 354.780 112.276  11
   2  -6  -8 3803.82 406.882  11
   2  -6  -7 560.617 222.533  11
   2  -6  -6 17398.3 1012.18  11
   2  -6  -5 127256. 2523.79  17
   2  -6  -5 129397. 2723.19  11
   2  -6  -5 127624. 2491.86  25
   2  -6  -4 10549.0 805.830  28
  -2   6   4 9961.48 785.715  26
   2  -6  -4 9842.85 727.486  11
  -2   6   4 9316.54 852.383   2
   2  -6  -4 10294.2 719.391  25
   2  -6  -4 9184.10 677.879  17
  -2   6   3 6568.49 593.260  26
   2  -6  -3 6044.91 590.358  28
  -2   6   3 5499.24 624.339   2
   2  -6  -2 14675.4 894.665  28
  -2   6   2 14460.5 793.856  26
  -2   6   2 12624.7 868.183   2
  -2   6   1 10729.9 752.345   2
   2  -6  -1 11382.0 792.830  28
   2  -6   0 1879.19 346.340  28
  -2   6   0 1958.29 317.733   2
   2  -6   1 19425.3 917.464  31
   2  -6   1 23479.5 871.770   3
  -2   6  -1 21756.3 970.743   2
   2  -6   1 21205.2 1114.39  28
   2  -6   2 127012. 2554.95  31
   2  -6   2 122762. 2720.43  28
   2  -6   2 123873. 2216.48   3
   2  -6   3 23891.7 1201.01  31
   2  -6   3 24506.8 1267.41  28
   2  -6   3 23191.6 1048.68   3
  -2   6  -3 25128.2 939.138   2
  -2   6  -4 1850.63 291.116  30
   2  -6   4 1870.56 360.081   3
   2  -6   4 1919.32 413.727  31
  -2   6  -5 98408.2 2219.26  33
   2  -6   5 101609. 2542.64   3
   2  -6   5 93186.7 2706.28  31
  -2   6  -5 98389.7 2211.98  18
  -2   6  -5 103388. 2305.68  12
  -2   6  -5 96507.5 2116.50  30
  -2   6  -6 22881.8 1155.92  12
  -2   6  -6 25063.9 1044.95   4
  -2   6  -6 24500.8 1142.31  30
   2  -6   6 23178.8 1231.66  37
  -2   6  -6 25163.6 1061.45  22
   2  -6   6 26023.8 1391.96   3
  -2   6  -6 24119.2 1141.02  33
   2  -6   6 25940.1 1514.93  31
  -2   6  -7 22099.9 1014.09   8
   2  -6   7 22960.3 1277.05  37
  -2   6  -7 22345.5 1113.91  33
  -2   6  -8 136267. 2458.03   8
  -2   6  -8 131465. 2643.23  33
  -2   6  -9 10241.7 699.550  19
  -2   6  -9 10455.5 687.046  33
  -2   6 -10 2659.03 332.391  19
  -2   6 -11 27957.8 763.812  19
   2  -5 -10 19839.5 593.011  10
   2  -5  -9 100720. 1827.54  10
   2  -5  -9 100400. 1891.95  11
   2  -5  -8 42425.0 1330.65  17
   2  -5  -8 44924.1 1496.23  11
   2  -5  -8 43326.4 1360.90  10
   2  -5  -7 1637.91 305.479  17
   2  -5  -7 2538.36 363.976  10
   2  -5  -6 8454.07 792.560  28
  -2   5   6 7032.79 735.025  26
   2  -5  -6 8109.13 649.702  17
  -2   5   5 58280.8 2004.56   2
   2  -5  -5 59716.9 1642.45  17
  -2   5   5 56743.1 1891.46  26
   2  -5  -4 143523. 2661.81  28
  -2   5   4 136173. 2656.41  26
  -2   5   4 136001. 2849.41   2
   2  -5  -3 80157.5 1913.18  28
  -2   5   3 75650.4 1786.95  26
  -2   5   3 74023.3 1955.23   2
   2  -5  -2 10891.9 691.710  28
  -2   5   2 10342.6 591.197  26
  -2   5   2 11539.5 724.597   2
   2  -5  -1 167782. 2713.57  28
  -2   5   1 159446. 2494.72   2
  -2   5   0 135984. 2177.33   2
   2  -5   0 134419. 1940.82  31
   2  -5   0 132984. 2430.75  28
  -2   5  -1 332217. 2882.09   6
   2  -5   1 325082. 3373.96  31
   2  -5   2 15333.1 807.901  31
  -2   5  -2 16307.8 589.803   6
   2  -5   2 15500.2 878.579  28
   2  -5   2 15028.3 746.052   3
  -2   5  -2 16580.5 690.316   2
  -2   5  -3 83315.1 1344.60   6
  -2   5  -3 84123.9 1454.31   2
  -2   5  -3 75149.3 1508.67  30
   2  -5   3 79132.8 1995.20  31
   2  -5   3 75366.6 1806.49   3
   2  -5   4 13739.2 908.000  31
   2  -5   4 14065.2 862.800   3
  -2   5  -4 13545.7 710.484  30
   2  -5   5 74353.2 2145.42   3
   2  -5   5 74200.0 2264.78  31
  -2   5  -5 72509.9 1626.19   4
  -2   5  -5 71017.8 1773.34  30
  -2   5  -6 22639.0 972.009   4
  -2   5  -6 21713.2 1051.47  12
  -2   5  -6 23013.5 1037.79  33
   2  -5   6 22031.9 1327.10  31
   2  -5   6 25473.2 1380.67   3
  -2   5  -6 23551.8 1105.67  30
  -2   5  -6 23099.4 1010.84   8
  -2   5  -7 18919.0 923.843   4
  -2   5  -7 19095.2 953.228   8
  -2   5  -7 18400.7 965.654  33
  -2   5  -8 81667.1 2084.35  19
  -2   5  -8 82208.2 2008.18   8
  -2   5  -8 82271.7 2020.81  33
  -2   5  -9 67190.5 1742.98   8
  -2   5  -9 72560.1 1890.56  19
  -2   5 -10 16821.4 823.147  19
  -2   5 -11 18711.1 680.090  19
   2  -4 -11 29023.5 702.524  10
   2  -4 -10 33805.7 1083.26  10
   2  -4  -9 89587.0 1970.78  11
   2  -4  -9 90656.0 2035.63  10
   2  -4  -9 88486.2 1878.56  17
   2  -4  -8 111243. 2383.78  19
   2  -4  -8 113513. 2363.47  10
   2  -4  -8 112321. 2302.60  17
   2  -4  -7 321.606 183.488   7
  -2   4   7 684.022 277.557  26
   2  -4  -7 451.811 216.203  19
   2  -4  -7-53.6052 141.289  10
   2  -4  -7 163.424 156.071  17
  -2   4   6 51005.2 1762.95   2
   2  -4  -6 48340.1 1854.69  28
  -2   4   6 52643.0 1831.73  26
  -2   4   5 172389. 3016.04   2
  -2   4   5 172929. 2981.41  26
  -2   4   4 179586. 2709.29  26
  -2   4   4 184255. 2879.66   2
   2  -4  -4 184500. 2785.58  28
   2  -4  -3 87739.5 1777.88  28
  -2   4   3 85047.3 1667.52  26
  -2   4   3 89699.1 1846.11   2
   2  -4  -2 77024.0 1606.84  28
  -2   4   2 79612.6 1412.93  26
  -2   4   2 78750.6 1595.75   2
   2  -4  -1 3302.51 225.955  31
  -2   4   1 3099.77 313.832   2
   2  -4  -1 3622.80 369.502  28
   2  -4   0 306877. 2544.52  31
   2  -4   0 301785. 3154.47  28
  -2   4   0 312500. 2770.71   2
   2  -4   0 315598. 2083.70  27
   2  -4   1 626300. 4132.87  31
   2  -4   1 644473. 4679.87  28
  -2   4  -2 338.481 107.953   6
   2  -4   2 380.578 159.217  31
  -2   4  -2 349.955 100.934   2
   2  -4   3 130435. 2320.77  31
   2  -4   3 132614. 2272.83   3
  -2   4  -3 130026. 1870.39  30
  -2   4  -3 134146. 1779.59   6
   2  -4   4 95393.9 2137.06   3
   2  -4   4 93475.8 2168.38  31
  -2   4  -4 95066.4 1638.59   6
  -2   4  -4 91769.5 1768.50  30
   2  -4   5 259.799 185.920  31
  -2   4  -5 122.835 86.2738   4
  -2   4  -5 93.8232 79.5681   6
   2  -4   5 517.775 229.363   3
  -2   4  -5 286.252 142.930  30
  -2   4  -6 101778. 2027.64   6
  -2   4  -6 104709. 2283.54  30
   2  -4   6 100295. 2702.21   3
  -2   4  -6 101088. 2007.72   4
   2  -4   6 100522. 2727.72  31
  -2   4  -7 8026.81 607.981   4
  -2   4  -7 9085.63 683.216  14
   2  -4   7 8574.96 886.196  31
  -2   4  -7 7941.14 670.620  30
  -2   4  -7 7976.26 633.866   8
  -2   4  -7 7955.92 597.673  33
  -2   4  -8 16824.3 875.192  33
  -2   4  -8 17970.2 1004.49  14
  -2   4  -8 18376.3 986.792   8
  -2   4  -8 18038.0 981.149  19
  -2   4  -9 7289.30 614.700   8
  -2   4  -9 7290.86 622.467  19
  -2   4  -9 7292.67 632.539  14
  -2   4 -10 685.453 216.993  19
  -2   4 -11 1398.68 210.948  19
   2  -3 -11 18333.3 769.332  10
   2  -3 -10 665.947 219.511  10
   2  -3 -10 1111.63 258.614  19
   2  -3 -10 778.140 207.023  17
   2  -3  -9 6259.05 551.392  17
   2  -3  -9 5996.66 564.753  19
   2  -3  -9 6590.90 602.541  10
   2  -3  -8 5078.10 517.675  19
   2  -3  -8 4777.02 502.816  17
  -2   3   7 11424.8 878.769  26
   2  -3  -7 14214.1 784.690  19
   2  -3  -7 11266.0 715.020  17
   2  -3  -7 12278.8 828.585   7
  -2   3   6 134263. 2523.93   2
  -2   3   6 132284. 2633.20  26
   2  -3  -5 22244.6 1020.07  28
  -2   3   5 20960.5 934.239  26
  -2   3   5 20214.4 905.569   2
  -2   3   4 53884.6 1314.97  26
  -2   3   4 52171.4 1321.20   2
   2  -3  -3 121045. 1847.72  28
  -2   3   3 117661. 1698.44  26
   2  -3  -2 100620. 1578.27  28
  -2   3   2 103530. 1374.36  26
  -2   3   2 105013. 1564.02   2
   2  -3  -2 103963. 797.979  27
  -2   3   1 762194. 3861.20   2
   2  -3   1 2218.10 245.918  28
  -2   3  -1 2050.52 165.698  30
  -2   3  -1 2070.36 172.386   2
   2  -3   1 2069.37 223.254  31
  -2   3  -2 74614.6 1275.87   6
   2  -3   2 73168.9 1447.98  31
  -2   3  -2 77248.8 1205.06  30
  -2   3  -2 78297.1 903.608   2
   2  -3   3 6262.66 485.394  31
  -2   3  -3 6301.12 353.035   4
  -2   3  -3 6222.23 397.927  30
  -2   3  -3 6332.51 401.585   6
  -2   3  -4 409739. 3539.27   6
  -2   3  -4 420813. 3251.39   4
  -2   3  -4 413021. 3689.92  30
   2  -3   4 403778. 4348.18   3
   2  -3   4 416415. 4327.50  31
  -2   3  -5 450.066 163.037  30
  -2   3  -5 480.660 155.529   4
   2  -3   5 416.756 229.056   3
  -2   3  -5 494.331 153.019   6
   2  -3   5 501.843 208.655  31
   2  -3   6 22912.8 1269.83  31
  -2   3  -6 23611.6 1081.50  30
  -2   3  -6 25096.4 994.650   4
   2  -3   6 23764.9 1298.45   3
  -2   3  -6 24320.5 1043.50   6
   2  -3   7 22388.5 1379.40  31
  -2   3  -7 22252.3 1013.69   4
  -2   3  -7 23186.4 1144.84  30
  -2   3  -7 24921.7 1117.20   8
  -2   3  -7 24024.0 1082.50  19
  -2   3  -7 21571.4 1098.28  14
  -2   3  -8 50329.1 1657.05   8
  -2   3  -8 49027.8 1735.99  14
  -2   3  -8 51743.9 1656.73  19
  -2   3  -9 431.301 203.393  19
  -2   3  -9 489.130 236.836   8
  -2   3  -9 329.140 228.672  14
  -2   3 -10 210.559 167.643  19
  -2   3 -11 14468.6 604.981  19
   2  -2 -12 4955.73 357.228  10
   2  -2 -11 571.665 164.365  17
   2  -2 -11 844.313 211.053  19
   2  -2 -11 975.030 247.532  10
   2  -2 -10 23016.3 1003.98  17
   2  -2 -10 24303.2 1063.70  19
   2  -2  -9 1809.93 326.799  19
   2  -2  -9 1710.39 309.314  17
   2  -2  -8 3159.51 387.643  19
  -2   2   8 2687.84 458.327  26
   2  -2  -8 2537.80 370.986   7
  -2   2   7 149.646 156.752  26
   2  -2  -7 73.5110 112.049   7
  -2   2   6 348663. 3947.12  26
  -2   2   6 337312. 3586.95   2
   2  -2  -5 15002.9 854.021  28
  -2   2   5 16474.7 686.589   5
  -2   2   5 14943.8 686.865   2
   2  -2  -5 16299.4 502.210  30
  -2   2   5 15162.6 725.128  26
   2  -2  -4 212.146 47.9852  30
   2  -2  -4 225.230 129.127  28
   2  -2  -4 86.0701 70.9418  27
  -2   2   4 121.031 92.9657  26
   2  -2  -3 5537.06 162.838  30
  -2   2   3 5183.97 339.898   2
   2  -2  -3 5771.80 372.270  28
  -2   2   3 5061.74 319.552  26
   2  -2  -3 5691.45 337.872  29
   2  -2  -3 5783.41 285.738  27
  -2   2   1 48109.0 809.550   2
   2  -2  -1 45262.6 889.155  27
  -2   2   1 46209.0 639.689  26
   2  -2  -1 47487.0 825.146  28
   2  -2  -1 49893.6 678.701  31
  -2   2  -1 81662.7 733.919  32
  -2   2  -1 79276.6 1012.52  30
   2  -2   1 80971.7 1055.10  28
  -2   2  -1 83735.1 1291.86   6
   2  -2   1 79235.5 897.029  29
  -2   2  -1 84437.4 770.687   2
   2  -2   1 85324.5 1310.38  31
  -2   2  -1 79475.5 776.805   4
   2  -2   2 42262.4 1070.95  31
   2  -2   2 44796.2 592.144  29
  -2   2  -2 44327.9 916.782  30
  -2   2  -2 45520.9 761.523   4
  -2   2  -2 44815.0 979.152   6
  -2   2  -3 228.648 82.6806   4
   2  -2   3 87.8789 119.618  31
  -2   2  -4 87778.6 1700.54  30
  -2   2  -4 88605.1 1493.26   4
   2  -2   4 90207.2 1950.73   3
  -2   2  -4 92251.4 1726.75   6
  -2   2  -5 151234. 2244.92   4
  -2   2  -5 149194. 2437.38   6
   2  -2   5 153705. 2814.23   3
  -2   2  -5 151247. 2492.02  30
   2  -2   5 143461. 2805.73  31
   2  -2   6 13666.0 984.531  31
  -2   2  -6 14464.7 775.864   4
  -2   2  -6 14177.1 842.470  30
   2  -2   6 12561.5 886.895   3
  -2   2  -6 14043.6 823.504   6
  -2   2  -7 331.156 187.792   4
  -2   2  -7 658.044 234.510  19
  -2   2  -7 247.295 164.645  30
  -2   2  -7 82.3494 212.380   9
  -2   2  -7 149.394 118.042   8
  -2   2  -7 257.972 141.909  14
   2  -2   7 477.254 234.708  31
  -2   2  -8 9478.32 720.125  19
  -2   2  -8 9023.91 779.239  14
  -2   2  -8 8344.58 695.864   8
  -2   2  -9 8562.75 665.018  19
  -2   2  -9 7449.57 579.609  10
  -2   2  -9 7898.26 700.270  14
  -2   2 -10 10943.9 597.484  10
  -2   2 -10 11086.7 659.463  19
  -2   2 -11 32.8910 91.1205  19
   2  -1 -12 14255.5 593.377  19
   2  -1 -12 16345.2 752.096  10
   2  -1 -11 309.251 148.582  19
   2  -1 -11 694.277 200.094  17
   2  -1 -10 13006.5 799.220  17
   2  -1 -10 13270.5 797.759  19
   2  -1  -9 8473.19 610.360  15
   2  -1  -9 7668.05 615.270  19
   2  -1  -8 81637.2 1944.86   4
  -2   1   8 78007.5 2337.39  26
   2  -1  -7 11955.6 683.462   4
  -2   1   7 12715.1 686.254   2
  -2   1   7 12796.0 842.525  26
   2  -1  -7 12585.8 696.408   7
  -2   1   6 789509. 5004.78   2
   2  -1  -6 816348. 4245.92  30
   2  -1  -6 790013. 4897.63   4
  -2   1   6 801756. 5783.98  26
  -2   1   6 835119. 5562.38   5
   2  -1  -6 810790. 4960.70   7
   2  -1  -5 160939. 1911.19   4
   2  -1  -5 159499. 1999.47  27
   2  -1  -5 160996. 1625.11  30
  -2   1   5 154532. 2035.19   2
   2  -1  -5 160094. 1773.82  29
  -2   1   5 155335. 2234.07  26
  -2   1   4 71178.8 886.831  31
  -2   1   4 72693.8 1352.18   5
   2  -1  -4 70709.7 1198.20  27
   2  -1  -4 73798.3 903.721  30
  -2   1   4 72056.5 1273.85   2
   2  -1  -4 71457.1 1116.74  29
  -2   1   4 70463.8 1303.92  26
   2  -1  -4 68074.0 600.947   1
   2  -1  -4 71866.5 1071.84   4
  -2   1   3 11535.6 499.876   5
  -2   1   3 11481.5 463.780  26
  -2   1   3 12188.1 468.448   2
   2  -1  -3 11403.6 342.902   4
   2  -1  -3 11594.5 424.943  29
   2  -1  -3 12836.8 550.162  28
   2  -1  -3 11238.0 451.683  27
  -2   1   2 146856. 1661.78   5
  -2   1   2 153930. 1468.13   2
   2  -1  -2 152822. 1486.73  28
   2  -1  -2 152556. 874.483   4
   2  -1  -2 144940. 1634.50  27
  -2   1   2 148174. 1457.45  26
  -2   1   0 11464.7 353.786  30
  -2   1   0 12326.0 396.724  32
   2  -1   0 11665.9 232.382  28
   2  -1   0 11438.0 364.365  29
  -2   1   0 11044.4 350.122  26
   2  -1   0 11955.7 508.558  27
  -2   1   0 12517.4 318.600   2
  -2   1  -1 43152.8 804.323  30
  -2   1  -1 43384.1 779.993  32
  -2   1  -1 43753.0 887.439   6
   2  -1   1 44114.4 690.193  29
  -2   1  -1 43841.1 623.156   4
  -2   1  -2 501774. 3094.15  32
  -2   1  -2 501752. 3222.80  30
  -2   1  -2 504460. 2697.75   4
  -2   1  -2 496365. 3282.54   6
  -2   1  -3 1070.78 178.442  32
   2  -1   3 879.464 202.423  31
  -2   1  -3 1075.43 188.635   6
  -2   1  -3 1010.08 161.354   4
   2  -1   3 1431.52 147.367  26
  -2   1  -3 1140.12 193.411  30
   2  -1   4 127082. 2394.04  31
  -2   1  -4 127364. 1890.28   4
  -2   1  -4 126397. 2095.01  30
   2  -1   4 127421. 2125.49   3
  -2   1  -4 130112. 2124.47   6
   2  -1   5 32848.7 1369.90  31
  -2   1  -5 35279.7 1124.38   4
  -2   1  -5 35802.2 1252.19  30
  -2   1  -5 36436.9 1251.66   6
  -2   1  -6 320679. 4072.05  30
  -2   1  -6 313108. 4016.89   6
  -2   1  -7 42669.2 1532.94   9
  -2   1  -7 43893.9 1534.50   8
  -2   1  -7 43373.0 1636.01  14
  -2   1  -7 42693.4 1453.91  19
  -2   1  -8 721.074 255.062  10
  -2   1  -8 784.873 275.930  14
  -2   1  -8 560.180 217.586  19
  -2   1  -9 1413.73 293.670  10
  -2   1  -9 994.471 243.936  19
  -2   1  -9 1201.80 312.016  14
  -2   1 -10 117434. 1905.26  10
  -2   1 -10 121771. 2026.95  19
   2   0 -13 45466.0 973.643  10
   2   0 -12 3052.10 298.043  17
   2   0 -12 2649.09 292.219  19
   2   0 -11 65319.7 1572.74  15
   2   0 -11 65492.7 1622.52  19
   2   0 -11 65376.2 1673.56  17
   2   0 -10 50847.6 1515.74  19
   2   0 -10 50735.7 1549.70  15
   2   0  -9 10812.2 753.210   4
   2   0  -9 11299.5 708.483  19
  -2   0   9 9181.68 924.159  26
   2   0  -9 11287.7 742.787  15
  -2   0   8 34806.9 1461.04   5
  -2   0   8 32722.4 1551.12  26
   2   0  -8 36252.0 1275.78   4
   2   0  -7 192373. 2439.69  30
  -2   0   7 186931. 3272.03  26
   2   0  -7 183595. 2585.22   4
  -2   0   6 1129.18 247.353  26
   2   0  -6 980.854 183.721   4
   2   0  -6 786.589 164.957  30
   2   0  -6 870.128 189.641  27
   2   0  -6 921.977 158.726   7
  -2   0   6 1067.06 189.210  31
  -2   0   6 1165.11 204.440   2
  -2   0   5 2182.17 242.354  31
  -2   0   5 2718.19 283.656   2
   2   0  -5 2607.19 191.597   1
   2   0  -5 2335.97 196.826   7
   2   0  -5 3496.16 286.482   4
  -2   0   5 1505.61 245.988  26
   2   0  -5 2114.53 259.748  27
   2   0  -5 2346.10 201.614  29
   2   0  -4 343165. 2319.33  29
   2   0  -4 350031. 2342.15   4
   2   0  -4 347521. 2198.21   1
  -2   0   4 336950. 2702.14   2
  -2   0   4 346099. 3172.46  26
   2   0  -4 337073. 2808.81  27
   2   0  -4 347287. 1872.79   7
  -2   0   3 148223. 1628.27  31
   2   0  -3 148337. 1490.84  29
  -2   0   3 152774. 1978.63  26
  -2   0   3 158331. 1684.36   2
   2   0  -3 141307. 1732.96  27
   2   0  -3 150463. 1483.13   1
  -2   0   2 239947. 2459.88  26
   2   0  -2 244879. 2319.15  27
  -2   0   2 246941. 2046.61  31
  -2   0   1 40481.2 956.009  26
  -2   0   1 40115.8 724.170   2
  -2   0   1 39922.2 833.292   5
   2   0  -1 39206.9 978.501  27
  -2   0   0 654966. 3332.67  30
  -2   0   0 655617. 3716.00  32
   2   0   0 652626. 4065.02  27
  -2   0   0 661424. 2908.42   7
   2   0   1 340005. 2315.94  29
   2   0   1 352568. 3129.97  27
  -2   0  -1 345770. 2466.39   6
  -2   0  -1 343456. 2504.72   7
  -2   0  -1 348015. 2769.95  32
  -2   0  -1 333199. 2602.96  30
  -2   0  -2 437271. 3169.56   6
   2   0   2 425370. 2655.77  29
  -2   0  -2 438005. 3310.50  30
   2   0   2 416951. 1628.51   2
  -2   0  -2 423156. 3330.20  32
  -2   0  -2 432831. 3294.44   7
  -2   0  -3 785645. 5085.68  32
  -2   0  -3 772983. 4794.06   6
  -2   0  -3 786645. 4967.04  30
  -2   0  -3 768995. 5043.53   7
   2   0   3 788867. 3598.94  29
   2   0   3 773608. 4110.24   3
  -2   0  -4 40146.1 1235.33   6
   2   0   4 35474.1 1351.66  31
  -2   0  -4 40685.1 1265.35  30
  -2   0  -4 38262.0 1254.40  32
   2   0   4 42067.5 1119.65  26
  -2   0  -4 37101.8 1254.89   7
  -2   0  -5 192678. 3031.54  30
  -2   0  -5 191034. 2996.07   6
  -2   0  -6 875915. 6968.57  30
  -2   0  -6 865851. 6359.76  10
  -2   0  -6 842166. 6045.58  19
  -2   0  -6 852934. 6851.77  14
  -2   0  -6 846098. 6413.00   9
  -2   0  -6 847784. 6319.06   8
  -2   0  -7 3823.23 482.882  10
  -2   0  -7 4224.52 482.762   9
  -2   0  -7 3644.92 506.778  14
  -2   0  -7 4137.64 462.968  19
  -2   0  -8 29591.6 1254.36  10
  -2   0  -8 28294.1 1326.27  14
  -2   0  -8 28780.1 1200.12  19
  -2   0  -9 77863.3 1837.90  10
  -2   0  -9 78713.5 1988.50  14
  -2   0  -9 80859.4 1827.08  19
  -2   0 -10 2833.01 293.537  19
  -2   0 -10 2762.95 291.872  10
   2   1 -13 25337.1 790.191  10
   2   1 -12 7663.68 481.590  19
   2   1 -12 8068.44 521.288  17
   2   1 -12 7635.18 480.577  15
   2   1 -11 24890.2 1072.09  15
   2   1 -11 24725.5 1000.36  19
   2   1 -10 19359.5 917.869  19
   2   1 -10 19003.8 991.469  15
  -2  -1   9 870.626 317.460   5
   2   1  -9 964.059 235.154  19
  -2  -1   9 1170.81 410.872  26
   2   1  -9 846.723 263.288   4
   2   1  -8 48734.4 1475.40   4
  -2  -1   8 47197.8 1952.64  26
   2   1  -7 78567.2 1642.80  30
  -2  -1   7 78074.9 2287.25  26
  -2  -1   7 77834.5 1841.26  31
   2   1  -7 73200.1 1650.01   4
  -2  -1   6 57362.2 1475.55  31
  -2  -1   6 58284.4 1806.26  26
   2   1  -6 58724.5 1478.94  27
   2   1  -6 58536.0 1320.07   4
   2   1  -6 56839.4 1114.75   1
  -2  -1   6 55515.3 1341.69   2
  -2  -1   5 31859.6 1226.84  26
  -2  -1   5 33026.5 1043.96  31
   2   1  -5 32454.7 746.620  29
   2   1  -5 32731.8 848.677   1
  -2  -1   5 35240.2 1000.94   2
   2   1  -5 33644.4 1022.01  27
  -2  -1   4 181685. 2123.78   2
   2   1  -4 173665. 1760.42  29
   2   1  -4 180359. 1963.34   1
   2   1  -4 181623. 2193.82  27
  -2  -1   4 176836. 2716.25  26
  -2  -1   4 178879. 2287.61  31
  -2  -1   3 941093. 6022.18  26
   2   1  -2 110118. 1453.97  29
  -2  -1   2 106678. 1626.64  31
  -2  -1   2 112043. 1500.73   5
   2   1  -2 108780. 1638.73  27
  -2  -1   2 109334. 1932.21  26
   2   1  -2 106715. 1519.31   1
   2   1  -1 73998.6 1202.58  29
   2   1  -1 69909.1 1393.35  27
  -2  -1   1 71493.5 1133.97   5
  -2  -1   1 74074.3 1423.10  26
  -2  -1   1 73937.3 797.063   7
  -2  -1   1 71161.4 851.791   6
  -2  -1   0 62267.8 721.727  28
  -2  -1   0 63275.3 970.014   7
   2   1   0 61433.7 1132.10  29
  -2  -1   0 63697.8 918.560   6
  -2  -1   0 63696.4 1361.87  32
   2   1   0 62930.9 1387.73  27
  -2  -1  -1 239073. 2527.56  30
   2   1   1 243635. 2839.53  27
   2   1   1 234730. 2272.61  29
  -2  -1  -1 235244. 2250.99   7
  -2  -1  -1 238555. 2109.41   6
  -2  -1  -2 46622.2 1211.66  30
  -2  -1  -2 45984.0 1075.86   6
   2   1   2 47132.1 1334.85  27
  -2  -1  -2 45896.3 1149.37   7
   2   1   2 45887.4 1046.45  29
  -2  -1  -2 44517.1 1248.52  32
   2   1   3 29624.8 1139.80  27
  -2  -1  -3 30125.1 1116.41  32
  -2  -1  -3 31121.2 1097.31  30
   2   1   3 27975.7 836.456  29
  -2  -1  -3 29560.4 986.149   6
  -2  -1  -3 29027.8 1044.85   7
   2   1   4 4361.50 485.955  27
  -2  -1  -4 4810.46 480.211  30
  -2  -1  -4 4785.08 490.886  32
   2   1   4 4602.79 557.690  31
   2   1   4 4565.59 471.986  26
  -2  -1  -4 4731.23 477.101   7
  -2  -1  -4 4282.29 438.218   6
   2   1   5 109318. 2521.31  27
  -2  -1  -5 108531. 2394.49  30
  -2  -1  -5 111936. 2488.70   7
  -2  -1  -6 24821.9 1157.32  10
  -2  -1  -6 22990.2 1051.66  19
  -2  -1  -6 24064.0 1179.48  30
  -2  -1  -6 23296.7 1068.89   9
  -2  -1  -6 23226.7 1146.23  14
  -2  -1  -7 261.419 189.207  19
  -2  -1  -7 486.238 193.168  10
  -2  -1  -7 398.586 232.830  14
  -2  -1  -8 16920.5 944.877  10
  -2  -1  -8 17962.5 914.509  19
  -2  -1  -8 15351.7 901.576  14
  -2  -1  -9 3571.73 395.042  10
  -2  -1  -9 3123.34 346.893  19
  -2  -1 -10 4823.20 312.264  10
   2   2 -13 151.519 76.1724  17
  -2  -2  13-158.248 350.754  35
   2   2 -12 15776.4 758.993  15
   2   2 -12 15524.1 655.325  19
   2   2 -11 12329.0 793.719  15
   2   2 -11 12968.6 712.022  19
   2   2 -10 49.1911 193.347  15
   2   2 -10-87.6696 155.474  19
   2   2  -9 17167.0 826.469  19
   2   2  -9 16223.6 898.551  30
   2   2  -9 17479.6 948.893  22
   2   2  -9 17315.7 951.160   4
   2   2  -8 114876. 2265.87  30
   2   2  -8 112199. 2278.37   4
  -2  -2   8 112963. 3158.02  26
  -2  -2   8 119306. 2674.23  31
  -2  -2   7 26293.3 1203.65  31
  -2  -2   7 24643.8 1378.02  26
   2   2  -7 24969.7 997.627   4
  -2  -2   6 260663. 3563.57  31
   2   2  -6 261403. 3231.51  27
   2   2  -6 270456. 2922.91   1
  -2  -2   5 959168. 6436.98  31
   2   2  -5 955017. 4481.54  29
   2   2  -5 958568. 5691.41  27
  -2  -2   5 962404. 7501.87  26
   2   2  -4 174273. 2022.00  29
  -2  -2   4 175874. 3014.85  26
   2   2  -4 177980. 2305.38   1
   2   2  -4 171813. 2247.90  27
  -2  -2   4 179051. 2638.56  31
   2   2  -3 234836. 2521.51  27
   2   2  -3 232769. 2600.21   1
  -2  -2   3 236370. 2911.39  31
  -2  -2   3 240493. 3250.67  26
   2   2  -3 238905. 2411.38  29
   2   2  -2 594849. 3969.97  27
  -2  -2   2 614602. 4823.29  26
   2   2  -2 603714. 4104.15   1
  -2  -2   2 608309. 4479.44  31
   2   2  -2 593938. 3889.08  29
  -2  -2   2 591418. 1965.72   7
  -2  -2   1 295359. 3455.88  32
   2   2  -1 270398. 2679.47  29
   2   2  -1 288310. 2878.51   1
  -2  -2   1 285496. 1480.11   6
  -2  -2   1 266204. 2267.26   5
   2   2  -1 282297. 2859.42  27
  -2  -2   0 2331.32 181.786   6
  -2  -2   0 1955.74 284.251  32
   2   2   0 1832.60 273.901  27
   2   2   1 16482.0 796.828  27
  -2  -2  -1 15863.2 793.766  32
  -2  -2  -1 15512.8 641.678   7
  -2  -2  -1 16428.8 574.425   6
   2   2   1 17096.3 729.155   1
  -2  -2  -2 1352.59 264.987  32
   2   2   2 937.033 183.519   1
   2   2   2 1479.50 243.075  29
  -2  -2  -2 1760.28 230.216   6
   2   2   2 1301.46 248.643  27
  -2  -2  -3 18380.7 965.962  32
  -2  -2  -3 17827.0 879.062   7
   2   2   3 18251.9 799.361  29
  -2  -2  -4 20848.1 1100.70  32
   2   2   4 20039.4 1205.07  26
  -2  -2  -4 20585.7 1033.38   7
  -2  -2  -5 211810. 3349.54  10
  -2  -2  -5 204344. 3017.74  19
   2   2   5 217499. 4045.94  26
  -2  -2  -5 211973. 3174.00  14
  -2  -2  -5 205680. 3506.89   7
  -2  -2  -5 213629. 3294.80  20
  -2  -2  -6 8627.88 660.921  19
  -2  -2  -6 8777.44 676.647  20
  -2  -2  -6 8906.35 747.338  10
  -2  -2  -6 8171.10 648.257  14
  -2  -2  -7-139.442 182.091  19
  -2  -2  -7 110.861 162.302  14
  -2  -2  -7 75.3297 182.893  10
  -2  -2  -8 19898.4 955.667  10
  -2  -2  -8 17627.1 822.180  19
  -2  -2  -9 3658.28 338.752  10
   2   3 -13 3084.26 232.472  17
   2   3 -13 2831.94 240.546  15
   2   3 -12 28401.2 1044.09  15
   2   3 -11 514.904 183.024  19
   2   3 -11 194.935 217.434  15
   2   3 -10 595.581 207.017  22
   2   3 -10 472.650 172.813  19
   2   3  -9 61274.6 1825.31  22
  -2  -3   8 208818. 4233.09  26
  -2  -3   8 207781. 3813.71  31
   2   3  -8 210464. 3227.80  30
   2   3  -8 216322. 3232.95   4
   2   3  -8 215885. 3226.89  33
   2   3  -8 214059. 3235.90  22
  -2  -3   7 117777. 3068.04  26
  -2  -3   7 114562. 2710.95  31
   2   3  -7 117582. 2230.91   1
  -2  -3   6 134683. 3115.62  26
   2   3  -6 144111. 2501.70  27
   2   3  -6 140693. 2433.11   1
  -2  -3   6 135445. 2840.69  31
  -2  -3   5 511840. 5624.96  26
  -2  -3   5 527323. 5300.57  31
   2   3  -5 514518. 3763.97  29
   2   3  -5 525821. 4396.76  27
   2   3  -5 500091. 4499.87   1
  -2  -3   4 30700.9 1240.84  31
   2   3  -4 32848.8 995.136  29
   2   3  -4 31549.7 1117.72   1
  -2  -3   4 33585.1 1358.88  26
  -2  -3   3 106876. 2220.04  31
   2   3  -3 112722. 1795.00  27
   2   3  -3 107432. 1856.43  29
   2   3  -3 108746. 2019.95   1
   2   3  -2 409913. 3896.04   1
  -2  -3   2 421697. 4753.03  32
   2   3  -2 411812. 3719.00  29
   2   3  -2 412935. 3359.89  27
  -2  -3   2 414847. 4230.56  31
  -2  -3   2 414429. 3243.25   5
   2   3  -1 32814.2 958.561  27
   2   3  -1 32770.8 1071.65  29
  -2  -3   1 34135.1 1015.95  28
  -2  -3   1 32486.3 1227.69  32
   2   3  -1 33039.2 1102.62   1
  -2  -3   0 182.718 114.958  28
  -2  -3   0 355.855 170.468  32
   2   3   0 246.646 144.692  27
   2   3   0 328.396 139.156   1
   2   3   1 45559.7 1293.52   1
  -2  -3  -1 41925.7 1177.58   7
  -2  -3  -1 41915.4 1424.27  32
   2   3   2 1672.67 285.698  29
  -2  -3  -2 1712.30 326.218  32
  -2  -3  -2 1381.68 259.285   7
   2   3   3 11274.8 716.909  29
  -2  -3  -3 11214.2 748.001   7
  -2  -3  -3 11451.3 834.893  32
  -2  -3  -4 70317.1 1750.35  19
  -2  -3  -4 71158.4 2145.04  32
  -2  -3  -4 71490.7 1996.30   7
  -2  -3  -4 70775.6 1952.40  10
  -2  -3  -5 6609.11 617.906  20
  -2  -3  -5 5536.43 517.037  19
  -2  -3  -5 6291.54 623.311  10
  -2  -3  -6 1494.16 291.601  20
  -2  -3  -6 1054.58 268.289  10
  -2  -3  -7 240.498 207.986  10
  -2  -3  -8-46.9928 145.046  10
  -2  -4  13 234.818 247.019  35
   2   4 -13 550.258 122.472  15
   2   4 -12 35525.7 1139.70  15
   2   4 -11 1936.34 335.407  22
   2   4 -10 301.363 189.307  22
   2   4  -9 2725.72 416.192  22
   2   4  -9 3101.66 428.123  33
   2   4  -8 33608.2 1316.77  33
  -2  -4   8 32838.4 1634.44  31
  -2  -4   8 30989.9 1374.59  37
   2   4  -8 34775.9 1377.67  22
   2   4  -8 35478.9 1265.28  36
   2   4  -7 341116. 4219.55   1
  -2  -4   7 348976. 5133.93  31
  -2  -4   7 339589. 4949.40  26
  -2  -4   6 77142.4 2326.09  31
   2   4  -6 74809.9 1971.63   1
   2   4  -6 78184.1 1882.74  27
  -2  -4   6 79371.2 2314.56  26
  -2  -4   5 377.945 221.178  31
   2   4  -5 344.087 195.072   1
   2   4  -5 11.1187 130.230  27
  -2  -4   5 515.407 253.112  26
   2   4  -5-20.7016 117.069  29
   2   4  -4 3740.20 398.346  29
   2   4  -4 3365.99 350.638  27
  -2  -4   4 3205.38 457.666  31
  -2  -4   3 1682.55 362.458  32
   2   4  -3 2175.47 347.388   1
  -2  -4   3 1920.55 338.652  31
   2   4  -3 2551.83 282.177  27
  -2  -4   2 1844.29 345.262  32
   2   4  -2 1857.41 312.805   1
   2   4  -2 1903.32 323.432  29
   2   4  -1 11036.0 713.741  29
  -2  -4   1 10825.6 777.462  32
  -2  -4   1 12558.5 701.156  28
   2   4  -1 10979.8 715.002   1
  -2  -4   0 9862.88 741.956  32
   2   4   0 9023.74 636.876   1
  -2  -4   0 9223.28 542.035   7
  -2  -4  -1 31037.6 1338.03  32
   2   4   1 30454.0 1241.07  29
  -2  -4  -1 31278.2 1105.44   7
  -2  -4  -2 29451.7 1351.54  32
  -2  -4  -2 29682.4 1245.25  10
   2   4   2 28247.1 1225.51  29
  -2  -4  -2 30926.1 1201.32   7
  -2  -4  -3 7728.53 722.215  32
  -2  -4  -3 8931.90 730.262  10
   2   4   3 8176.16 679.505  29
  -2  -4  -3 7804.45 621.736  11
  -2  -4  -3 8844.95 692.688   7
  -2  -4  -4 123356. 2387.49  11
  -2  -4  -4 120451. 2681.93  10
  -2  -4  -5 46117.2 1638.06  10
  -2  -4  -5 47485.0 1631.26  20
  -2  -4  -6 5716.81 558.425  10
  -2  -4  -6 5760.89 516.680  20
  -2  -4  -7 36015.7 1138.31  10
  -2  -5  12 577.180 294.839  35
   2   5 -12 284.937 151.162  15
   2   5 -11 4271.21 450.373  22
   2   5 -10 18901.6 1015.07  22
   2   5  -9 1080.60 274.074  33
   2   5  -9 1226.79 310.838  22
  -2  -5   9 498.532 234.715  37
   2   5  -8 1485.36 318.893  33
   2   5  -8 1369.69 275.359  36
   2   5  -8 1543.60 337.217  22
  -2  -5   8 1938.98 374.871  37
   2   5  -7 22991.1 1046.05  33
  -2  -5   7 26031.6 1483.65  31
   2   5  -7 24348.1 1145.50  22
   2   5  -7 24543.8 1227.17   1
  -2  -5   7 25652.7 1286.01  37
   2   5  -7 23860.2 1131.78  36
   2   5  -6 33155.1 1429.52   1
  -2  -5   6 30676.2 1354.77  37
   2   5  -6 33500.2 1282.83  22
  -2  -5   6 33248.8 1632.52  31
  -2  -5   5 72873.8 2349.38  31
  -2  -5   5 73531.4 2476.19  32
   2   5  -5 77094.8 2155.67   1
   2   5  -5 71126.9 1751.34  29
   2   5  -4 49720.4 1712.57   1
  -2  -5   4 46751.2 1835.60  32
  -2  -5   4 44964.1 1794.36  31
  -2  -5   3 227410. 3898.22  31
   2   5  -3 230216. 3458.54  29
  -2  -5   3 237942. 3892.16  32
   2   5  -3 229746. 3624.27   1
  -2  -5   2 33100.7 1423.92  32
  -2  -5   2 32917.2 1312.08  28
   2   5  -2 32421.4 1343.50   1
   2   5  -2 31611.3 1316.93  29
   2   5  -1 66644.1 1948.08  29
  -2  -5   1 67441.9 2027.50  32
   2   5  -1 70006.1 1915.46   1
  -2  -5   0 130701. 2617.38  11
  -2  -5   0 120961. 2723.78  32
  -2  -5   0 127424. 2634.58  34
   2   5   0 128378. 2734.87  29
  -2  -5  -1 119617. 2545.94  11
  -2  -5  -1 115547. 2701.90  32
  -2  -5  -1 114602. 2556.44  10
   2   5   1 118586. 2660.18  29
  -2  -5  -1 124819. 2506.51  23
  -2  -5  -1 116549. 2574.27  34
  -2  -5  -2 2194.06 366.649  10
  -2  -5  -2 2412.70 385.005  11
  -2  -5  -2 2717.46 378.224  23
  -2  -5  -3 9737.67 776.888  10
  -2  -5  -3 8991.09 698.796  11
  -2  -5  -4 47435.8 1452.86  11
  -2  -5  -4 45241.2 1633.64  20
  -2  -5  -4 45871.7 1603.48  10
  -2  -5  -5 66118.2 1755.66  20
  -2  -5  -5 64615.2 1752.11  10
  -2  -5  -6 11216.9 571.379  20
   2   6 -12-6.07483 104.096  15
  -2  -6  12-116.793 156.065  35
  -2  -6  11 663.261 275.716  35
   2   6 -11 948.236 224.560  22
  -2  -6  10 70187.1 1976.19  37
  -2  -6  10 64308.5 1981.86  35
   2   6 -10 68745.7 1820.07  22
   2   6  -9 125988. 2475.99  33
   2   6  -9 122479. 2312.96  36
  -2  -6   9 127620. 2901.26  37
   2   6  -9 121868. 2601.64  22
  -2  -6   8 3317.23 506.645  37
   2   6  -8 3244.05 426.887  36
   2   6  -8 3557.09 476.321  22
   2   6  -8 3872.90 441.358  33
   2   6  -7 64721.8 1732.16  33
   2   6  -7 65443.4 1935.96  22
  -2  -6   7 63473.5 2113.66  37
   2   6  -7 66156.9 1953.69  36
   2   6  -6 40541.3 1485.65  22
  -2  -6   6 42132.5 2002.64  24
  -2  -6   6 40224.2 1657.54  37
  -2  -6   6 42799.6 1619.21  23
   2   6  -5 42212.0 1683.81   1
  -2  -6   5 44126.0 1684.44  37
   2   6  -5 42910.0 1465.67  22
  -2  -6   5 42419.7 1867.80  31
  -2  -6   5 45530.2 1651.75  23
  -2  -6   4 116408. 2475.48  34
   2   6  -4 118035. 2791.60   1
   2   6  -4 115049. 2546.09  29
  -2  -6   4 120415. 2970.37  28
  -2  -6   4 114062. 2589.25  23
  -2  -6   4 117572. 2669.66  37
   2   6  -4 117875. 2317.62  22
  -2  -6   3 75251.8 2088.78  23
   2   6  -3 73327.5 2117.02  29
  -2  -6   3 75723.5 2200.50  28
  -2  -6   3 76067.8 2074.63  34
  -2  -6   3 75143.1 2049.96  37
   2   6  -3 73094.8 2174.77   1
  -2  -6   2 22818.8 1160.29  23
  -2  -6   2 22053.0 1156.41  32
   2   6  -2 23605.4 1232.12  29
  -2  -6   2 23800.6 1196.93  34
   2   6  -2 23132.5 1186.48   1
  -2  -6   1 131473. 2859.10  34
  -2  -6   1 131845. 2856.29  11
  -2  -6   1 136555. 2831.30  23
  -2  -6   0 39499.7 1525.53  23
  -2  -6   0 37317.6 1542.41  34
  -2  -6   0 38263.4 1531.74  11
  -2  -6  -1 211863. 3546.70  11
  -2  -6  -1 217177. 3451.75  23
  -2  -6  -2 982.969 273.313  11
  -2  -6  -2 772.124 215.036  23
  -2  -6  -3 40063.3 1373.87  11
  -2  -6  -4 70078.3 1790.15  20
  -2  -6  -5 2604.83 298.807  20
   2   7 -11 23866.7 798.855  22
   2   7 -11 24481.2 769.980  15
  -2  -7  10 37929.7 1296.13  37
   2   7 -10 37872.6 1204.11  22
  -2  -7   9 3964.47 500.192  37
   2   7  -9 3177.45 359.067  33
   2   7  -9 3033.02 393.117  22
   2   7  -9 2697.98 335.041  36
   2   7  -8 14331.4 754.545  33
  -2  -7   8 15150.8 1000.54  37
   2   7  -8 13964.2 830.904  36
   2   7  -8 14405.0 882.839  22
  -2  -7   7 959.400 284.416  37
   2   7  -7 1187.00 272.215  22
   2   7  -7 1240.20 299.396  36
   2   7  -6 965.619 265.878  22
  -2  -7   6 1149.76 343.008  37
  -2  -7   6 2047.72 474.964  24
  -2  -7   6 1194.22 277.120  23
   2   7  -5 96.7371 111.708  22
  -2  -7   5 199.575 191.697  23
  -2  -7   5-186.483 246.419  37
   2   7  -4 37692.5 1307.72  22
  -2  -7   4 38844.3 1561.13  23
  -2  -7   4 37774.0 1524.23  37
  -2  -7   3 29936.8 1354.02  34
  -2  -7   3 30419.0 1295.66  37
  -2  -7   3 30962.9 1403.08  23
  -2  -7   2 9477.72 779.911  23
  -2  -7   1 37492.0 1510.51  23
  -2  -7   0 926.518 279.659  23
  -2  -7  -1 45985.8 1487.70  23
  -2  -7  -2 49105.1 1317.53  23
  -2  -7  -3 29543.0 1078.51  20
  -2  -7  -4 11199.4 526.938  20
  -2  -8  10 86287.1 1537.27  37
   2   8 -10 87748.0 1461.04  22
   2   8 -10 83888.1 1125.67  15
  -2  -8   9 4605.43 446.884  37
   2   8  -9 4181.61 336.961  36
   2   8  -9 4374.49 390.890  22
  -2  -8   8 10482.2 729.543  37
   2   8  -8 9428.22 616.484  22
   2   8  -8 8915.24 593.688  36
  -2  -8   7 31578.3 1325.58  37
   2   8  -7 32075.0 1217.36  36
   2   8  -7 31743.2 1156.00  22
  -2  -8   6 307.677 183.666  24
  -2  -8   6 480.451 172.498  23
  -2  -8   6 743.595 246.980  37
   2   8  -6 396.022 173.598  22
   2   8  -6 835.334 263.776  36
   2   8  -5 20542.4 887.002  22
  -2  -8   5 24168.9 1246.76  24
  -2  -8   5 22840.0 1100.30  23
  -2  -8   5 23778.2 1152.83  37
  -2  -8   4 22141.4 1059.85  37
  -2  -8   4 22677.7 1119.18  23
  -2  -8   3 16988.2 974.050  23
  -2  -8   2 80.9474 175.767  23
  -2  -8   1 77375.6 1934.17  23
  -2  -8   0 3508.83 394.840  23
  -2  -8  -1 17327.6 727.220  23
  -2  -8  -1 18535.9 814.551  20
  -2  -8  -2 1217.63 202.623  20
  -2  -9   8 30986.6 946.642  37
   2   9  -8 30845.4 779.802  22
   2   9  -8 29793.9 793.334  36
   2   9  -7 30334.1 940.623  36
  -2  -9   7 30892.9 1023.36  37
   2   9  -7 29279.1 805.427  22
  -2  -9   6 7289.68 512.118  37
   2   9  -6 7135.08 395.871  22
   2   9  -6 6932.22 496.274  36
  -2  -9   5 52030.9 1310.90  23
  -2  -9   5 56127.1 1341.04  37
  -2  -9   5 53733.0 1375.94  24
  -2  -9   4 63906.5 1586.63  24
  -2  -9   4 60087.4 1471.98  23
   2   9  -4 61582.6 1460.38  36
  -2  -9   3 414.569 156.875  23
   2   9  -3 892.333 181.033  36
  -2  -9   2 15997.0 732.659  23
   2   9  -2 16428.3 619.464  36
  -2  -9   1 41332.9 880.319  20
  -2  -9   1 42122.9 1073.86  23
   3 -11  -2 34999.0 878.556  23
   3 -11  -2 33599.9 829.601  34
  -3  11   1 7040.63 406.752  22
   3 -11  -1 6987.22 458.480  34
   3 -11   0 1833.42 271.029  34
  -3  11   0 2175.68 235.742  33
  -3  11   0 1875.89 255.048  22
  -3  11  -1 51432.8 1201.73  33
   3 -11   1 49741.9 1334.99  34
   3 -11   1 51108.7 1211.71  23
  -3  11  -1 52381.9 1330.26  22
   3 -11   2 14822.0 705.357  34
   3 -11   2 14549.5 622.323  37
  -3  11  -2 14537.6 675.075  33
   3 -11   2 14711.9 592.234  23
  -3  11  -2 14739.2 723.197  22
   3 -11   3 7147.55 489.986  37
  -3  11  -3 7157.63 481.143  33
   3 -11   3 7720.68 468.088  34
  -3  11  -3 7123.14 503.037  22
  -3  11  -4 9707.26 539.442  33
   3 -11   4 9223.30 561.692  37
  -3  11  -4 9510.97 547.054  22
   3 -11   5 48159.8 1213.44  37
  -3  11  -5 47565.5 1080.13  22
  -3  11  -5 49739.3 1117.25  33
   3 -10  -4 15838.8 628.018  11
   3 -10  -3 70826.1 1545.91  34
   3 -10  -3 73288.1 1494.01  11
  -3  10   3 73199.8 1361.25  33
  -3  10   3 74453.6 1485.46  22
   3 -10  -2 51049.6 1308.46  11
  -3  10   2 51177.5 1362.91  33
  -3  10   2 50880.1 1443.22  22
   3 -10  -2 51911.8 1525.35  34
   3 -10  -1 30988.5 1265.37  34
   3 -10  -1 30865.4 1007.05  11
  -3  10   1 31826.7 1189.54  33
  -3  10   1 32986.2 1272.09  22
   3 -10   0 20369.8 1056.98  34
  -3  10   0 19758.9 986.983  33
  -3  10   0 19873.8 1046.88  22
  -3  10  -1 1002.96 250.947  33
   3 -10   1 1662.36 302.219  37
   3 -10   1 1821.37 357.531  34
  -3  10  -1 1138.81 286.490  22
   3 -10   2 4182.00 479.361  34
  -3  10  -2 3835.50 483.002  22
  -3  10  -2 4214.15 399.279  18
  -3  10  -2 4051.59 474.935  33
   3 -10   2 4468.22 494.585  37
   3 -10   3 53489.5 1577.49  34
  -3  10  -3 54264.7 1675.35  33
  -3  10  -3 54464.0 1479.48  18
   3 -10   3 55087.7 1723.09  37
  -3  10  -3 55120.8 1707.88  22
  -3  10  -4 27667.9 1161.00  33
   3 -10   4 28237.8 1020.33  34
   3 -10   4 30138.6 1283.81  37
  -3  10  -4 27491.2 1154.93  22
  -3  10  -5 16350.5 817.849  22
  -3  10  -5 16828.7 863.086  33
   3 -10   5 17134.4 943.408  37
   3 -10   6 9807.88 674.712  37
  -3  10  -6 9951.41 565.447  22
  -3  10  -6 10034.6 611.787  33
  -3  10  -7 11111.1 557.445  33
   3 -10   7 11326.5 626.659  37
  -3  10  -7 10019.9 432.611  22
   3  -9  -6 12853.4 603.258  11
   3  -9  -5 340.579 149.165  11
   3  -9  -4 31402.1 1128.92  34
   3  -9  -4 31564.6 1201.99  11
  -3   9   4 30521.3 1165.46  33
  -3   9   4 31827.7 1166.43  22
   3  -9  -3 55863.3 1718.18  34
   3  -9  -3 55155.1 1640.45  11
  -3   9   3 53745.5 1735.84  33
   3  -9  -2 283.542 188.622  11
   3  -9  -2 223.576 194.969  34
  -3   9   2-218.609 237.343  33
  -3   9   2 65.0624 159.405  22
   3  -9  -1 81372.3 1930.29  11
  -3   9   1 83782.5 2352.78  33
  -3   9   1 82580.1 2336.60  22
   3  -9  -1 79765.7 2255.86  34
  -3   9   0 3455.99 506.016  33
  -3   9   0 4429.53 564.612  22
   3  -9   0 4808.39 568.799  34
   3  -9   1 1057.32 321.648  34
  -3   9  -1 1146.57 352.186  33
  -3   9  -1 598.834 152.019  18
   3  -9   1 531.811 212.717  37
  -3   9  -1 752.384 301.378  22
  -3   9  -2 18478.7 980.910  18
  -3   9  -2 19733.3 1149.14  22
   3  -9   2 17994.4 1069.69  37
  -3   9  -2 17481.1 1067.16  33
   3  -9   2 16888.7 1020.40  34
   3  -9   3 69941.2 1958.27  34
  -3   9  -3 69734.7 2088.38  33
  -3   9  -3 69110.4 1927.98  18
  -3   9  -3 68289.2 2064.94  22
   3  -9   3 67926.5 2128.51  37
  -3   9  -4 147061. 2951.99  33
  -3   9  -4 145809. 2819.30  18
   3  -9   4 147001. 3122.15  37
  -3   9  -4 140936. 2819.97  22
  -3   9  -5 36760.0 1359.92  22
   3  -9   5 36014.3 1542.35  37
  -3   9  -5 37014.1 1425.37  33
  -3   9  -6 131323. 2512.35  33
  -3   9  -6 127242. 2276.83  22
  -3   9  -6 133359. 2063.20   8
   3  -9   6 133856. 2843.78  37
  -3   9  -7 31630.9 1127.23  33
   3  -9   7 32576.2 1299.62  37
  -3   9  -7 30954.0 941.520  22
  -3   9  -8 80472.3 1505.39  19
   3  -9   8 81407.6 1658.22  37
   3  -8  -7 475.043 169.558  11
   3  -8  -6 1360.08 289.832  11
  -3   8   6 862.399 256.381  33
  -3   8   5 5625.45 640.689  33
   3  -8  -5 4857.02 523.338  11
   3  -8  -4 40.5732 122.249  34
  -3   8   4 117.686 214.600  33
   3  -8  -4-36.1989 186.176  25
   3  -8  -3 185013. 3316.60  34
  -3   8   3 180100. 3719.73  33
   3  -8  -3 175809. 3251.89  25
   3  -8  -3 186432. 3208.45  11
   3  -8  -2 1269.58 289.927  11
   3  -8  -2 1533.73 313.752  25
  -3   8   2 1507.91 397.701  33
   3  -8  -2 1143.73 308.140  34
  -3   8   1 2257.76 463.528  33
   3  -8  -1 1763.74 350.226  25
   3  -8  -1 2141.26 342.122  11
   3  -8  -1 1829.00 375.786  34
  -3   8   0 85198.9 2471.71  33
   3  -8   0 82835.1 2376.07  28
   3  -8   0 83119.8 2145.58  25
   3  -8   0 81265.6 2264.78  34
   3  -8   0 83467.6 2084.16  37
  -3   8   0 84390.2 2238.73   2
   3  -8   1 2029.55 357.339  34
  -3   8  -1 1829.88 344.613  33
   3  -8   1 1822.73 354.903  28
   3  -8   1 2077.87 350.677  25
  -3   8  -1 1800.89 332.243   2
   3  -8   1 1702.68 344.395  37
  -3   8  -1 1731.38 378.565  22
   3  -8   2 37894.7 1552.15  37
  -3   8  -2 42118.5 1530.27  18
   3  -8   2 41742.1 1744.56  28
  -3   8  -2 38479.4 1584.42  33
   3  -8   2 39657.0 1526.56  34
  -3   8  -2 39338.2 1583.95  22
  -3   8  -2 37016.1 1341.81  12
  -3   8  -3 31083.2 1347.49  18
  -3   8  -3 31339.9 1317.02  12
   3  -8   3 33011.9 1487.88  37
   3  -8   3 31923.4 1327.75  34
  -3   8  -3 30937.9 1373.97  22
  -3   8  -3 31912.6 1416.68  33
   3  -8   4 11348.6 909.414  37
  -3   8  -4 11968.3 853.682  18
  -3   8  -4 11870.3 858.304  33
  -3   8  -4 12337.1 876.410  12
  -3   8  -4 11236.3 813.311  22
  -3   8  -5 6416.92 632.820  33
  -3   8  -5 6184.22 625.260  18
  -3   8  -5 6002.98 561.723  22
   3  -8   5 6594.77 709.380  37
  -3   8  -6 26372.1 1205.65  33
  -3   8  -6 25071.6 1051.28   8
  -3   8  -6 26302.6 1081.02  22
   3  -8   6 24535.0 1326.89  37
  -3   8  -7 2221.22 347.300  33
  -3   8  -7 1625.56 259.514   8
   3  -8   7 2409.68 432.255  37
  -3   8  -8 17061.3 806.247  19
  -3   8  -8 16541.0 789.933  33
  -3   8  -8 16991.1 702.033   8
  -3   8  -9 35793.8 978.014  19
  -3   8  -9 34658.0 751.561   8
   3  -7  -9 11291.3 478.460  11
   3  -7  -8 181.015 146.520  11
   3  -7  -7 19495.7 991.130  11
   3  -7  -6 1030.37 225.145  25
   3  -7  -6 1514.26 316.026  11
   3  -7  -5 15564.1 975.694  11
   3  -7  -5 16765.5 961.570  25
   3  -7  -4 203386. 3404.73  25
   3  -7  -4 212131. 3368.29  34
   3  -7  -4 206719. 3417.71  11
  -3   7   3 17006.3 1088.27   2
   3  -7  -3 19265.8 1107.51  28
  -3   7   3 17778.1 916.201  26
   3  -7  -3 18535.9 1018.57  25
   3  -7  -3 18601.5 980.927  11
   3  -7  -3 18685.3 1034.24  34
   3  -7  -2 101636. 2372.81  34
  -3   7   2 98492.4 2494.16   2
   3  -7  -2 100884. 2152.35  11
  -3   7   2 100889. 2758.89  33
   3  -7  -2 104511. 2550.08  28
   3  -7  -2 101705. 2312.66  25
   3  -7  -1 12306.8 883.926  28
  -3   7   1 11211.1 794.184   2
   3  -7   0 16834.9 1038.56  28
  -3   7   0 16210.9 915.445   2
  -3   7  -1 5795.30 521.997   2
   3  -7   1 5672.61 637.635  28
   3  -7   1 6144.71 523.796   3
  -3   7  -2 25487.1 1024.35   2
   3  -7   2 24345.7 1268.47  28
   3  -7   2 25347.9 1125.69   3
  -3   7  -3 148846. 2875.80  33
   3  -7   3 139352. 3083.96  31
  -3   7  -3 146043. 2781.22  18
   3  -7   3 150926. 3181.49  28
   3  -7   3 142231. 2843.11   3
   3  -7   3 148231. 2978.77  37
  -3   7  -3 144598. 2708.66  12
  -3   7  -3 150238. 2795.26  22
  -3   7  -4 22599.4 1139.85  33
   3  -7   4 25273.3 1416.78  31
  -3   7  -4 23279.6 1138.81  18
  -3   7  -4 24510.9 1181.55  12
   3  -7   4 22120.7 1221.01  28
   3  -7   4 23857.9 1251.98   3
   3  -7   4 22584.6 1229.60  37
  -3   7  -4 21740.1 1049.37  22
  -3   7  -5 5815.15 528.216  22
   3  -7   5 5253.00 638.663  37
  -3   7  -5 4911.96 545.144  33
  -3   7  -5 4579.15 544.545  18
  -3   7  -5 5568.85 610.947  12
  -3   7  -6 241259. 3617.08  33
  -3   7  -6 230095. 3757.96  12
   3  -7   6 242114. 4175.08  37
  -3   7  -7 3316.35 432.002  33
   3  -7   7 2087.03 407.014  37
  -3   7  -7 2547.22 368.569   8
  -3   7  -8 48478.6 1469.56  19
  -3   7  -8 48705.1 1389.08   8
  -3   7  -8 46461.7 1383.34  33
  -3   7  -9 57174.2 1390.31  19
  -3   7  -9 55277.6 1254.78   8
  -3   7 -10 15857.5 572.719  19
   3  -6 -10 5105.56 286.432  11
   3  -6  -9 23632.9 922.082  11
   3  -6  -8 8416.45 657.272  11
   3  -6  -7 1293.25 288.486  17
   3  -6  -6 4323.17 470.544  25
   3  -6  -6 4596.45 520.217  17
  -3   6   5 56644.1 2058.17   2
   3  -6  -5 61712.5 1798.88  17
  -3   6   5 58274.8 1859.94  26
   3  -6  -5 57552.9 1727.36  25
   3  -6  -5 61850.8 2016.77  28
  -3   6   4 369832. 4942.82   2
   3  -6  -4 382567. 4272.96  17
   3  -6  -4 385977. 4765.69  28
   3  -6  -4 373854. 4270.99  25
  -3   6   3 64616.4 1950.89   2
   3  -6  -3 66913.1 1913.26  28
  -3   6   3 67705.2 1671.65  26
  -3   6   2 11680.2 626.992  26
  -3   6   2 12160.1 792.942   2
   3  -6  -2 11247.6 791.249  28
  -3   6   1 8156.39 614.668   2
   3  -6  -1 8143.10 663.649  28
   3  -6   0 101509. 2320.45  28
  -3   6   0 99336.0 2021.43   2
   3  -6   1 4931.08 478.951  31
   3  -6   1 4926.14 524.937  28
  -3   6  -1 5227.97 441.439   2
   3  -6   2 141.760 179.928  31
   3  -6   2 194.788 199.990  28
   3  -6   2 599.948 207.168   3
  -3   6  -2 774.024 172.518   2
   3  -6   3 4815.64 562.938  31
  -3   6  -3 5962.92 455.727  30
   3  -6   3 6267.63 612.377  28
   3  -6   3 6404.24 607.331   3
   3  -6   4 36400.5 1618.69  31
  -3   6  -4 36168.0 1219.33  30
   3  -6   4 39564.6 1503.45  28
   3  -6   4 36090.9 1535.59   3
  -3   6  -5 41543.1 1474.65  18
  -3   6  -5 40239.8 1410.39  33
   3  -6   5 40471.8 1816.96  31
  -3   6  -5 37809.1 1343.61  30
   3  -6   5 40803.6 1749.22   3
   3  -6   5 42435.8 1654.48  37
  -3   6  -5 41440.2 1505.22  12
  -3   6  -6 40664.2 1434.41  33
  -3   6  -6 42338.1 1469.85   8
   3  -6   6 39581.8 1667.58  37
  -3   6  -6 41650.4 1548.90  12
  -3   6  -7 22549.6 1037.38  33
  -3   6  -7 22778.7 1085.14   8
  -3   6  -8 77780.0 1929.92  19
  -3   6  -8 74035.2 1855.61   8
  -3   6  -8 75333.6 1748.28  33
  -3   6  -9 31314.6 1073.69   8
  -3   6  -9 32472.2 1116.62  19
  -3   6 -10 9628.80 498.008  19
   3  -5 -10 75338.6 1507.57  11
   3  -5  -9 19180.0 950.751  11
   3  -5  -9 18110.3 882.145  17
   3  -5  -8 150809. 2785.91  17
   3  -5  -7 26.4045 182.720  17
  -3   5   6 3243.44 494.751   2
   3  -5  -6 3378.79 431.518  17
   3  -5  -6 3216.44 522.550  28
  -3   5   6 2634.84 402.346  26
   3  -5  -6 2834.10 364.082  25
  -3   5   5 151113. 3045.79   2
  -3   5   5 146581. 2763.41  26
  -3   5   4 93061.3 2233.27   2
   3  -5  -4 99834.1 2241.33  28
  -3   5   4 93507.3 1987.27  26
  -3   5   3 33506.1 1243.11   2
  -3   5   3 35305.2 1095.91  26
   3  -5  -2 3114.86 394.314  28
  -3   5   2 2491.81 258.648  26
  -3   5   2 2633.21 341.820   2
   3  -5  -1 24626.6 1009.80  28
  -3   5   1 25425.8 946.836   2
  -3   5   1 24154.6 687.708  26
   3  -5   0 2236.92 270.867  31
   3  -5   0 3065.12 380.774  28
  -3   5   0 2443.49 284.403   2
  -3   5  -1 2804.49 228.559  30
  -3   5  -1 3113.50 348.238   6
   3  -5   1 2341.24 336.271  28
  -3   5  -1 2607.17 275.932   2
   3  -5   1 2452.56 303.421  27
   3  -5   1 2743.06 341.088  31
  -3   5  -2 343701. 2784.95   2
   3  -5   2 331980. 3861.45  31
  -3   5  -2 334066. 2892.07  30
   3  -5   2 334497. 3790.67  28
  -3   5  -2 344114. 3300.52   6
  -3   5  -3 938.214 185.842   6
   3  -5   3 1096.85 300.172  31
  -3   5  -3 1232.98 214.838  30
   3  -5   3 1471.21 292.719  28
   3  -5   3 1248.51 291.605   3
   3  -5   4 21701.2 1192.43  31
  -3   5  -4 22427.9 953.933  30
   3  -5   4 22373.7 1202.91   3
  -3   5  -4 23406.6 927.363   6
   3  -5   5 67024.4 2253.05  31
  -3   5  -5 66514.7 1781.38  30
  -3   5  -5 69979.2 1697.92   6
   3  -5   5 69649.7 2285.05   3
  -3   5  -6 4572.84 513.156  30
  -3   5  -6 5029.89 520.473   8
   3  -5   6 4233.25 626.164   3
  -3   5  -6 4126.70 435.861  33
   3  -5   6 4782.25 672.120  31
  -3   5  -6 4314.43 479.748  12
  -3   5  -7 24079.7 1089.24  14
  -3   5  -7 24549.2 1143.43   8
  -3   5  -7 22835.1 1088.11  19
  -3   5  -8 80471.7 1980.17  19
  -3   5  -8 78976.9 2001.91   8
  -3   5  -8 81547.7 1959.07  14
  -3   5  -9 6450.09 513.546  14
  -3   5  -9 6409.35 525.735  19
  -3   5  -9 6354.00 534.484   8
  -3   5 -10 86.9555 107.957  19
   3  -4 -11 814.554 164.737  10
   3  -4 -11 721.484 153.728  17
   3  -4 -10 7100.59 542.034  17
   3  -4 -10 8061.28 548.255  10
   3  -4  -9 4536.02 466.334  10
   3  -4  -9 4534.18 488.363  17
   3  -4  -8 2182.54 362.024  17
   3  -4  -8 2439.66 331.904  10
  -3   4   7 25960.2 1323.64   2
   3  -4  -7 24477.5 1123.00  17
  -3   4   7 24027.0 1290.79  26
   3  -4  -7 23141.4 991.207  19
   3  -4  -7 24813.1 1021.17  36
  -3   4   6 44883.5 1616.14   2
  -3   4   6 44469.8 1586.03  26
   3  -4  -6 40934.6 1687.84  28
  -3   4   5 118881. 2427.49   2
  -3   4   5 127571. 2383.68  26
  -3   4   4 31678.9 1158.57   2
   3  -4  -4 32452.6 1185.66  28
  -3   4   4 32798.5 1077.95  26
   3  -4  -3 322861. 3420.07  28
  -3   4   3 315573. 3347.85   2
   3  -4  -1 536169. 3066.58  31
   3  -4  -1 536230. 4057.64  28
  -3   4   1 535386. 3790.91   2
   3  -4  -1 529696. 3522.11  27
  -3   4   1 543296. 2779.49  26
   3  -4   0 500085. 3475.01  31
  -3   4   0 501841. 2308.03  30
  -3   4   0 494509. 3356.69   2
   3  -4   0 499637. 3819.51  27
  -3   4  -1 403334. 2761.82   2
  -3   4  -1 387985. 3586.12   6
  -3   4  -1 392484. 2621.76  30
   3  -4   1 393629. 3437.08  28
   3  -4   1 404798. 3569.65  31
  -3   4  -2 239405. 2744.46   6
   3  -4   2 235673. 3059.65  31
  -3   4  -2 233719. 2376.64  30
   3  -4   2 240905. 2724.35  28
  -3   4  -2 238806. 1932.29   4
   3  -4   3 147973. 2669.73  31
  -3   4  -3 144585. 2148.40  30
  -3   4  -3 146377. 1741.12   4
  -3   4  -3 143017. 2203.16   6
   3  -4   3 147988. 2178.92  28
   3  -4   4 216944. 3563.04  31
  -3   4  -4 217641. 2943.59  30
  -3   4  -4 213588. 2377.32   4
   3  -4   4 223952. 3755.81   3
  -3   4  -4 212736. 2865.98   6
   3  -4   5 1023.83 306.601  31
  -3   4  -5 1441.57 293.927  30
   3  -4   5 1007.72 321.534   3
  -3   4  -5 1024.97 223.919   6
  -3   4  -6 6131.33 564.708   6
  -3   4  -6 5625.45 530.103   8
   3  -4   6 6025.93 730.904  31
  -3   4  -6 5812.35 572.958  30
   3  -4   6 5805.80 746.087   3
  -3   4  -6 5260.22 524.667  14
  -3   4  -7 73749.7 2011.39   8
  -3   4  -7 71839.4 2028.32  14
  -3   4  -7 75273.4 1932.64  19
  -3   4  -8 9468.18 695.423  19
  -3   4  -8 8947.65 718.743  14
  -3   4  -8 8957.96 704.574   8
  -3   4  -9 10864.0 679.041  19
  -3   4  -9 10741.1 716.679  14
  -3   4  -9 10040.2 675.805   8
  -3   4 -10 476.938 155.055  19
   3  -3 -12 32048.1 758.324  10
   3  -3 -11 22.3173 127.707  17
   3  -3 -11 196.246 104.749  10
   3  -3 -10 12682.6 785.728  17
   3  -3 -10 13034.7 724.500  19
   3  -3  -9 22567.0 998.025  19
   3  -3  -9 20861.0 1069.39  17
  -3   3   8 15213.7 1106.83  26
   3  -3  -8 13726.7 767.390  19
   3  -3  -8 13717.9 859.803  17
  -3   3   7 46400.4 1619.38   2
  -3   3   7 44650.8 1682.59  26
  -3   3   6 351589. 4117.40   2
  -3   3   6 343468. 4152.96  26
   3  -3  -5 39916.6 1394.39  28
  -3   3   5 37271.0 1211.55  26
  -3   3   5 38591.6 1253.55   2
  -3   3   4 29992.1 1002.28   2
   3  -3  -4 29737.3 970.019  29
   3  -3  -4 29653.9 1041.25  28
   3  -3  -4 29975.3 726.913  27
  -3   3   4 29779.3 958.527  26
  -3   3   3 66988.6 1372.72   2
   3  -3  -3 69248.6 1416.37  28
  -3   3   3 68808.9 1265.46  26
   3  -3  -3 68111.1 1372.77  29
   3  -3  -3 67599.8 1098.04  27
  -3   3   2 624956. 3878.61   2
  -3   3   2 632793. 3341.70  26
   3  -3  -2 637518. 3836.66  27
   3  -3  -1 35997.4 873.820  28
  -3   3   1 36580.7 858.283   2
   3  -3  -1 36790.8 1036.82  27
   3  -3  -1 37644.0 791.593  31
  -3   3   1 32966.8 431.843  30
   3  -3  -1 34044.2 871.182  29
  -3   3   1 36607.7 689.121  26
  -3   3   0 148129. 1553.86   2
   3  -3   0 156296. 1891.45  31
  -3   3   0 143367. 1288.15  30
   3  -3   0 147035. 1693.70  28
  -3   3   0 136291. 734.726   4
   3  -3   0 141841. 1678.57  29
   3  -3   0 139887. 2111.93  27
  -3   3  -1 53040.6 1280.39   6
   3  -3   1 53781.3 1260.38  31
  -3   3  -1 50318.4 944.626  30
   3  -3   1 52939.8 952.602  29
  -3   3  -1 50874.2 655.271   4
   3  -3   1 52962.5 1000.62  28
  -3   3  -1 53622.4 802.292   2
  -3   3  -2 34430.1 1034.54   6
   3  -3   2 34478.9 814.744  28
   3  -3   2 36507.5 1180.63  31
  -3   3  -2 33604.2 903.884  30
  -3   3  -2 35807.3 702.055   4
   3  -3   2 34167.9 696.410  29
   3  -3   3 44041.4 1424.15  31
  -3   3  -3 43466.1 1176.43  30
  -3   3  -3 45331.9 949.353   4
  -3   3  -3 44468.6 1240.95   6
   3  -3   4 3395.85 466.741  31
  -3   3  -4 3642.49 399.642  30
  -3   3  -4 4000.29 336.216   4
   3  -3   4 3483.84 491.046   3
  -3   3  -4 4389.58 433.238   6
  -3   3  -5 6439.07 474.522   4
  -3   3  -5 6254.41 554.671  30
   3  -3   5 6729.75 728.372   3
  -3   3  -5 6066.00 541.554   6
  -3   3  -6 18175.7 1036.56   9
   3  -3   6 16719.2 1190.59  31
  -3   3  -6 17119.8 986.197  30
  -3   3  -6 18083.1 952.896   8
  -3   3  -6 17532.6 989.829  14
  -3   3  -6 17746.0 892.418  19
  -3   3  -6 17794.8 977.469   6
  -3   3  -7 5927.61 593.810   8
  -3   3  -7 6478.45 641.994  14
  -3   3  -7 6586.71 578.027  19
  -3   3  -8 5617.74 540.648  19
  -3   3  -8 5268.57 553.862   8
  -3   3  -8 4818.94 553.392  14
  -3   3  -9 1382.51 266.931  19
  -3   3  -9 1554.01 314.580  14
  -3   3 -10 19840.1 716.348  19
   3  -2 -12 1160.59 185.011  17
   3  -2 -12 1512.50 233.399  10
   3  -2 -11 21992.6 848.123  19
   3  -2 -11 21706.2 957.614  17
   3  -2 -10 1128.60 255.096  19
   3  -2 -10 678.034 245.814  17
   3  -2  -9 1088.76 237.196  19
   3  -2  -9 547.718 222.873  15
  -3   2   8 280.725 245.667  26
   3  -2  -8 129.551 147.426  15
  -3   2   7 545.468 195.281   2
  -3   2   7 501.514 212.362  26
  -3   2   6 11264.5 703.284   5
   3  -2  -6 10289.9 540.308   4
  -3   2   6 11595.6 699.155   2
   3  -2  -6 10759.1 577.078  27
  -3   2   6 12073.8 764.306  26
   3  -2  -5 124427. 1594.71   4
  -3   2   5 121472. 2070.82   2
   3  -2  -5 125440. 1802.03  27
  -3   2   5 116776. 2088.13  26
   3  -2  -5 119400. 1859.27  29
  -3   2   4 64398.5 1358.37   2
   3  -2  -4 62779.1 939.321   4
   3  -2  -4 62785.0 1272.40  29
  -3   2   4 64859.5 1379.01  26
   3  -2  -4 62186.9 1457.40  28
   3  -2  -4 61662.1 1218.29  27
  -3   2   3 14912.4 600.401   2
   3  -2  -3 15215.5 598.073  29
   3  -2  -3 15169.9 616.913  28
   3  -2  -3 13608.6 586.261  27
  -3   2   3 14387.0 583.569  26
   3  -2  -2 43453.0 964.477  29
   3  -2  -2 42466.6 1120.12  27
  -3   2   2 44856.8 954.105  26
   3  -2  -1 92034.4 1347.56  29
  -3   2   1 97751.6 1272.58   2
   3  -2  -1 98093.1 1143.24  28
   3  -2  -1 94260.4 1751.68  27
  -3   2   1 95419.0 1359.26  26
  -3   2   0 37859.9 753.007  30
  -3   2   0 38097.2 692.372  32
  -3   2   0 40205.4 722.798   2
   3  -2   0 38778.7 839.742  29
   3  -2   0 38838.9 623.067  28
   3  -2   0 38138.3 1152.17  27
  -3   2   0 40092.5 634.070  26
  -3   2  -1 289693. 2847.83   6
  -3   2  -1 293548. 2062.84  32
  -3   2  -1 284728. 1606.68   4
  -3   2  -1 282018. 2384.70  30
   3  -2   1 282382. 2154.15  29
   3  -2   1 289346. 1401.68  28
  -3   2  -1 290068. 1532.06   2
  -3   2  -2 109713. 1707.30  30
  -3   2  -2 112633. 1493.25  32
   3  -2   2 109928. 2090.94  31
  -3   2  -2 111926. 1295.88   4
   3  -2   2 112697. 1265.68  29
  -3   2  -2 112187. 1848.27   6
  -3   2  -3 68703.4 1556.03   6
  -3   2  -3 69899.8 1348.14  32
   3  -2   3 68281.0 1815.24  31
  -3   2  -3 69887.0 1226.69   4
  -3   2  -3 70224.8 1546.74  30
  -3   2  -4 2112.57 260.229   4
  -3   2  -4 1509.15 261.203  30
  -3   2  -4 1165.93 243.730   6
   3  -2   4 1233.11 323.028   3
   3  -2   4 1020.89 271.322  31
  -3   2  -5 32722.0 1291.12  30
  -3   2  -5 30774.9 1236.09   6
  -3   2  -6 249099. 3725.66   6
   3  -2   6 234438. 4541.53  31
  -3   2  -6 256191. 3849.65  30
  -3   2  -6 244667. 3778.92   9
  -3   2  -6 240649. 3265.51  19
  -3   2  -6 253353. 3566.27   8
  -3   2  -6 249929. 3833.11  14
  -3   2  -7 807.092 269.330  19
  -3   2  -7 423.440 256.822   9
  -3   2  -7 608.299 256.662   8
  -3   2  -7 799.030 279.639  14
  -3   2  -8 765.681 249.496  19
  -3   2  -8 903.348 223.497  10
  -3   2  -8 1022.71 302.924  14
  -3   2  -9 3575.76 380.801  19
  -3   2  -9 3644.13 434.156  14
  -3   2 -10 12484.5 523.568  19
   3  -1 -13 47998.7 966.672  10
   3  -1 -12 8460.59 533.288  17
   3  -1 -11 6280.34 559.615  17
  -3   1  11 7878.85 880.630  35
   3  -1 -11 6542.86 544.062  15
  -3   1  10 7919.33 904.460  35
   3  -1 -10 7605.52 638.070  15
  -3   1   9 56978.8 2347.22  26
   3  -1  -9 59769.7 1730.14  15
  -3   1   8 20075.4 1123.34   5
   3  -1  -8 20161.5 916.394   4
  -3   1   8 19988.5 999.483   2
  -3   1   8 19513.8 1246.64  26
   3  -1  -7 60030.3 1412.01   4
  -3   1   7 58393.3 1779.26   5
  -3   1   7 60106.3 1955.91  26
  -3   1   7 55027.7 1551.64   2
  -3   1   6 77402.5 1885.73   5
   3  -1  -6 78293.9 1414.68   4
  -3   1   6 76297.7 1697.79   2
   3  -1  -6 75779.6 1640.24  27
  -3   1   6 76704.6 1953.95  26
   3  -1  -6 74067.4 1426.25  29
   3  -1  -5 195893. 2235.90  29
   3  -1  -5 207413. 1658.89  30
   3  -1  -5 201200. 1948.34   4
  -3   1   5 195206. 2506.10   2
  -3   1   5 199093. 2839.66  26
   3  -1  -5 200223. 2459.03  27
  -3   1   5 192769. 2777.09   5
   3  -1  -4 69584.3 1278.93  29
  -3   1   4 64694.1 1507.92   5
  -3   1   4 68458.7 1369.38   2
   3  -1  -4 67470.1 939.074   4
   3  -1  -4 64534.2 1373.41  27
  -3   1   4 68320.1 1539.08  26
   3  -1  -4 69782.3 1095.81   1
  -3   1   3 332981. 3207.06   5
   3  -1  -3 345890. 2758.91  29
  -3   1   3 339184. 2779.11   2
   3  -1  -3 314697. 3010.06  28
   3  -1  -3 329886. 3147.43  27
  -3   1   3 330932. 3195.44  26
   3  -1  -2 13530.4 537.254  29
  -3   1   2 13122.0 509.598   2
   3  -1  -2 12637.0 197.382   4
   3  -1  -2 11255.4 485.269  28
   3  -1  -2 12185.5 657.037  27
  -3   1   2 12591.5 631.367  26
   3  -1  -1 157656. 1770.32  29
   3  -1  -1 159458. 2396.44  27
  -3   1   1 162128. 1611.12   2
  -3   1   1 156132. 2005.47  26
  -3   1   0 690930. 4167.70   6
  -3   1   0 677705. 3896.45  32
   3  -1   0 696795. 3686.13  29
   3  -1   0 682116. 5109.84  27
  -3   1  -1 415564. 3298.50   6
  -3   1  -1 408188. 3088.52  32
  -3   1  -1 406152. 3184.35  30
   3  -1   1 404407. 2770.12  29
   3  -1   1 416869. 4204.55  27
  -3   1  -2 281753. 2919.57  30
   3  -1   2 284651. 2260.68  29
  -3   1  -2 287969. 2961.53   6
  -3   1  -3 1518.23 232.625  32
   3  -1   3 1240.52 293.912  31
  -3   1  -3 1560.42 268.195  30
  -3   1  -3 1580.16 267.606   6
  -3   1  -4 79196.3 1916.07  30
  -3   1  -4 81156.7 1844.15  32
  -3   1  -4 76944.8 1849.75   6
   3  -1   5 28293.6 1523.86  31
  -3   1  -5 30439.7 1294.05  30
  -3   1  -5 29805.0 1247.03   6
  -3   1  -6 22277.8 995.973  19
  -3   1  -6 22122.2 1017.19  10
  -3   1  -6 21877.6 1138.30   9
   3  -1   6 22938.2 1394.52  27
  -3   1  -6 22567.1 1078.12   8
  -3   1  -6 23035.7 1192.28  14
  -3   1  -7 310101. 3794.81  19
  -3   1  -7 307617. 3819.44  10
  -3   1  -7 306328. 4224.16   9
  -3   1  -7 308157. 4444.00  14
  -3   1  -8 30508.5 1137.67  10
  -3   1  -8 31796.9 1355.81  14
  -3   1  -8 29980.3 1135.53  19
  -3   1  -9 11724.3 609.781  19
  -3   1  -9 12019.5 594.246  10
  -3   1  -9 12654.4 739.499  14
   3   0 -13 14583.0 524.548  17
   3   0 -12 3251.65 374.618  17
  -3   0  12 4269.88 733.687  35
   3   0 -12 3712.76 375.299  15
  -3   0  11-24.4028 386.286  35
   3   0 -11 440.146 208.353  15
   3   0 -10 54730.9 1721.63  15
  -3   0   9 11514.5 934.984   5
   3   0  -9 10834.4 717.935   4
   3   0  -9 10262.8 738.579  15
  -3   0   9 10648.2 1042.00  26
   3   0  -8 207417. 2878.95   4
  -3   0   8 202937. 3645.88   5
  -3   0   8 195986. 4085.28  26
   3   0  -7 161780. 2672.30  27
  -3   0   7 159043. 3007.16   5
   3   0  -7 161161. 2298.61   4
   3   0  -7 166377. 2130.62  30
  -3   0   7 157231. 3338.40  26
  -3   0   7 152764. 2564.39   2
  -3   0   6 8768.44 658.461   5
  -3   0   6 8573.94 517.019  31
   3   0  -6 8373.63 458.872  29
   3   0  -6 8859.23 486.898   4
  -3   0   6 8988.26 739.103  26
  -3   0   6 8866.15 584.540   2
  -3   0   5 355374. 3188.96  31
   3   0  -5 337710. 2609.03   4
  -3   0   5 345534. 3745.09   5
   3   0  -5 339657. 2927.17  29
   3   0  -5 348729. 2773.14   1
   3   0  -5 345514. 3467.66  27
  -3   0   5 340636. 3357.90   2
  -3   0   5 331890. 4148.87  26
  -3   0   4 299.482 131.277  31
   3   0  -4 437.304 125.093  29
   3   0  -4 586.558 190.618  27
  -3   0   4 382.528 191.142  26
  -3   0   4 674.356 171.088   2
  -3   0   3 70154.6 1492.62   5
   3   0  -3 65989.8 1258.47  29
   3   0  -3 67117.0 1503.33  27
  -3   0   3 69753.4 1314.23   2
  -3   0   3 64474.3 1672.18  26
  -3   0   2 207609. 2427.17   5
   3   0  -2 200909. 2726.11  27
  -3   0   2 203008. 2798.43  26
   3   0  -2 202802. 2185.88  29
  -3   0   2 203685. 2126.69   2
  -3   0   1 366.635 112.898   6
  -3   0   1 247.493 151.300  32
   3   0  -1 268.304 119.798  29
   3   0  -1 429.378 189.324  27
  -3   0   1 229.260 131.743  26
  -3   0   0 287223. 2518.20   6
  -3   0   0 283016. 2997.82  32
   3   0   0 289519. 2659.46  29
  -3   0  -1 95654.1 1780.90  32
   3   0   1 97205.5 1558.55  29
  -3   0  -1 98177.1 1587.58   6
   3   0   1 98808.4 2176.59  27
  -3   0  -1 98739.7 1749.21  30
  -3   0  -2 40460.0 1218.69  32
  -3   0  -2 40741.6 1227.29  30
   3   0   2 38744.8 984.052  29
   3   0   2 40515.5 1478.77  27
  -3   0  -2 38943.7 1110.31   6
  -3   0  -3 224514. 3118.37  32
  -3   0  -3 231220. 3203.07  30
   3   0   3 222643. 3667.45  27
  -3   0  -3 224971. 2963.28   6
  -3   0  -4 32494.6 1280.24  32
   3   0   4 28654.1 1502.10  31
  -3   0  -4 33469.7 1319.25  30
   3   0   4 31568.5 1470.73  27
  -3   0  -4 32208.2 1233.15   6
  -3   0  -5 69339.5 1835.19  20
   3   0   5 59899.8 2330.59  31
   3   0   5 65256.8 2213.38  27
  -3   0  -5 66331.2 1625.85  19
  -3   0  -5 73168.4 2070.17  30
  -3   0  -5 65348.0 1751.59  10
  -3   0  -5 69243.6 1937.22   9
  -3   0  -5 67519.7 1735.56   8
  -3   0  -5 67635.6 1940.98  14
  -3   0  -5 69331.3 1946.92   6
  -3   0  -6 4822.91 519.908  10
  -3   0  -6 3769.03 475.499   9
  -3   0  -6 4463.72 460.711  19
  -3   0  -6 4612.80 549.894  14
  -3   0  -7 76172.0 1844.01  19
  -3   0  -7 78145.9 2166.48  14
  -3   0  -7 77540.4 2017.39   9
  -3   0  -7 76972.5 1969.07  10
  -3   0  -8 71672.7 1715.32  10
  -3   0  -8 70501.3 1857.71  14
  -3   0  -8 69419.6 1599.08  19
  -3   0  -9 34647.8 891.734  19
  -3   0  -9 34662.3 928.303  10
   3   1 -13 12349.3 539.432  17
  -3  -1  13 17289.0 1231.51  35
   3   1 -12 3476.32 395.235  15
  -3  -1  12 3466.51 697.676  35
   3   1 -11 353.271 188.744  15
   3   1 -10 118745. 2584.88  15
   3   1  -9 33683.7 1261.34   4
  -3  -1   9 31280.3 1824.47  26
  -3  -1   9 32473.6 1619.52   5
   3   1  -9 33852.1 1337.75  22
   3   1  -9 33507.9 1333.65  15
  -3  -1   8 146297. 3203.90   5
   3   1  -8 151697. 2402.55  30
   3   1  -8 149507. 2494.57   4
  -3  -1   8 146497. 3733.52  26
  -3  -1   7 152391. 2624.34  31
   3   1  -7 148764. 2286.04   4
   3   1  -7 146430. 2652.58  27
  -3  -1   7 143871. 3446.08  26
  -3  -1   6 39521.3 1288.84  31
   3   1  -6 42151.9 1330.09  27
  -3  -1   6 39215.7 1692.02  26
   3   1  -6 38546.8 1080.26   1
   3   1  -6 39443.3 1029.09  29
  -3  -1   5 68943.8 1734.31   5
   3   1  -5 68027.2 1361.44  29
   3   1  -5 69356.8 1454.86   1
   3   1  -5 67277.9 1600.83  27
  -3  -1   5 67953.4 2084.40  26
  -3  -1   5 68869.9 1634.73  31
  -3  -1   4 26813.1 995.330  31
  -3  -1   4 25376.1 985.459   5
   3   1  -4 27456.7 925.835   1
   3   1  -4 27348.9 997.836  27
  -3  -1   4 27357.3 1265.40  26
   3   1  -4 27448.0 873.541  29
   3   1  -3 4643.45 403.657   1
  -3  -1   3 4432.61 396.100   5
   3   1  -3 4975.08 450.930  27
  -3  -1   3 3744.67 461.668  26
   3   1  -3 4487.23 377.568  29
   3   1  -2 94545.0 1667.16  29
  -3  -1   2 91922.9 1223.73   6
   3   1  -2 88469.8 1889.61  27
  -3  -1   2 94952.8 1994.05  26
   3   1  -2 93219.1 1748.49   1
  -3  -1   2 91821.0 1655.87   5
   3   1  -1 53833.4 1280.73  29
   3   1  -1 56056.5 1581.47  27
  -3  -1   1 58948.2 1609.20  32
  -3  -1   1 56623.3 975.593   6
   3   1   0 51583.9 1270.87  29
  -3  -1   0 51926.6 1464.83  32
   3   1   0 55847.4 1641.63  27
  -3  -1   0 53807.0 1079.64   7
  -3  -1   0 51530.5 1030.69   6
  -3  -1  -1 473.656 140.480   6
  -3  -1  -1 321.696 164.663  32
   3   1   1-3.73706 106.083  29
   3   1   1 221.715 144.946  27
  -3  -1  -1 27.7285 79.9649   7
  -3  -1  -2 516.035 160.756   6
  -3  -1  -2 515.985 181.410  32
   3   1   2 698.398 184.026  29
   3   1   2 338.446 148.243  27
  -3  -1  -2 476.308 178.362   7
  -3  -1  -3 28327.4 1078.44   6
  -3  -1  -3 27749.5 1208.29  32
   3   1   3 28723.6 1356.45  27
  -3  -1  -3 28786.6 1151.36   7
  -3  -1  -4 184233. 3065.31  20
  -3  -1  -4 193948. 3364.87  32
  -3  -1  -4 192727. 3022.03  10
  -3  -1  -5 472.084 214.886  19
  -3  -1  -5 409.088 186.202  10
  -3  -1  -5 386.424 174.845  20
  -3  -1  -5 107.843 235.089   9
  -3  -1  -5 128.041 154.085  14
  -3  -1  -6 7731.05 632.841  20
  -3  -1  -6 8854.08 630.248  19
  -3  -1  -6 7697.82 659.262  10
  -3  -1  -6 8841.96 695.070   9
  -3  -1  -6 7904.70 677.858  14
  -3  -1  -7 238.420 167.186  19
  -3  -1  -7 205.044 184.491  10
  -3  -1  -7 383.007 155.515   9
  -3  -1  -7 665.008 220.329  14
  -3  -1  -8 8323.78 562.973  10
  -3  -1  -8 8306.78 540.798  14
  -3  -1  -9 15783.0 513.964  10
  -3  -2  13 1155.43 418.706  35
   3   2 -13 1277.82 203.100  17
   3   2 -13 1191.78 201.571  15
   3   2 -12 66893.1 1685.45  15
  -3  -2  12 67360.2 2559.79  35
   3   2 -11 56715.4 1763.92  15
   3   2 -10 22264.5 1140.77  15
   3   2 -10 20685.1 1096.42  22
  -3  -2   9 62995.1 2310.64   5
   3   2  -9 63981.0 1769.25   4
   3   2  -9 62438.6 1853.62  22
  -3  -2   9 63951.7 2589.68  26
   3   2  -9 65372.5 1717.14  36
  -3  -2   8 529893. 5658.09  31
   3   2  -8 532062. 4848.32   4
  -3  -2   8 522664. 7224.96  26
   3   2  -7 142318. 2347.28   1
  -3  -2   7 143932. 2872.18  31
   3   2  -7 144711. 2724.95  27
  -3  -2   6 326966. 5126.84  26
  -3  -2   6 336651. 4228.70  31
   3   2  -6 326956. 3141.10  29
   3   2  -6 319235. 3826.31  27
   3   2  -6 327388. 3583.59   1
  -3  -2   5 44070.5 1485.32  31
   3   2  -5 43367.1 1182.77  29
   3   2  -5 43445.6 1341.82  27
   3   2  -5 41132.8 1287.75   1
  -3  -2   5 43684.8 1756.46  26
  -3  -2   4 272137. 3365.85   5
   3   2  -4 294125. 3412.46   1
   3   2  -4 272768. 3072.42  29
   3   2  -4 286681. 3329.42  27
  -3  -2   4 290380. 4204.43  26
  -3  -2   4 276869. 3622.60  31
   3   2  -3 18339.7 854.673   1
  -3  -2   3 17421.8 798.355   5
   3   2  -3 19061.6 821.195  29
   3   2  -3 19131.5 866.967  27
  -3  -2   3 18802.3 1013.20  26
  -3  -2   2 183494. 3257.00  32
   3   2  -2 180441. 2670.18   1
  -3  -2   2 182720. 2369.85   5
   3   2  -2 173418. 2529.44  29
   3   2  -2 178426. 2700.53  27
   3   2  -1 413988. 4120.83   1
  -3  -2   1 417082. 4572.96  32
   3   2  -1 413667. 3962.16  29
   3   2  -1 420359. 4343.63  27
  -3  -2   0 12198.2 782.694  32
   3   2   0 12553.2 712.604  29
   3   2   0 12002.2 781.810  27
  -3  -2   0 11410.1 534.569   7
   3   2   0 11978.7 726.131   1
  -3  -2  -1 129114. 2585.87  32
   3   2   1 122773. 2256.71  29
   3   2   1 127524. 2380.35   1
   3   2   1 125379. 2633.04  27
  -3  -2  -1 124068. 1822.42   6
  -3  -2  -1 126456. 2041.61   7
   3   2   2 296867. 3594.89   1
  -3  -2  -2 303712. 4117.07  32
   3   2   2 304208. 3576.07  29
  -3  -2  -2 304487. 3534.82   7
  -3  -2  -2 297940. 3162.15   6
  -3  -2  -3 66926.0 1893.22  20
  -3  -2  -3 68406.9 2048.61  32
  -3  -2  -3 69861.1 1856.16  10
  -3  -2  -3 67671.0 1841.74   7
  -3  -2  -4 137525. 2847.67  20
  -3  -2  -4 136364. 2307.19  19
  -3  -2  -4 135720. 2741.87  10
  -3  -2  -5 2311.64 368.844  20
  -3  -2  -5 2269.17 332.217  19
  -3  -2  -5 2914.92 452.323  10
  -3  -2  -5 2281.75 365.068   9
  -3  -2  -5 2602.21 370.654  14
  -3  -2  -6 14118.4 880.541  10
  -3  -2  -6 14377.0 757.094  19
  -3  -2  -6 14277.9 797.621   9
  -3  -2  -6 14635.4 799.138  14
  -3  -2  -6 15271.7 858.609  20
  -3  -2  -7 2558.61 358.100  10
  -3  -2  -8 662.844 169.964  10
   3   3 -13 1374.13 207.190  15
  -3  -3  13 1410.15 375.890  35
  -3  -3  12 982.518 413.886  35
   3   3 -12 1264.18 280.168  15
   3   3 -11 291.129 196.586  15
   3   3 -10 519.312 188.177  22
   3   3  -9 87726.9 2233.95  22
   3   3  -9 90764.3 2100.81  36
   3   3  -8 310782. 3827.65   4
   3   3  -8 307453. 3790.62  33
  -3  -3   8 298330. 5319.75  26
  -3  -3   8 308198. 4691.46  31
  -3  -3   8 298469. 4133.40  37
   3   3  -8 296414. 3804.70  36
   3   3  -8 314329. 4028.83  22
  -3  -3   7 6979.50 696.470  31
   3   3  -7 6567.30 610.351  27
  -3  -3   7 6211.71 763.349  26
   3   3  -7 5946.91 553.840   1
  -3  -3   6 89575.5 2395.08  31
   3   3  -6 85837.4 1750.67  29
   3   3  -6 85661.6 2042.16  27
  -3  -3   6 85571.0 2609.17  26
   3   3  -6 86034.4 2071.45   1
  -3  -3   5 7203.69 675.520  31
   3   3  -5 7763.65 559.453  29
   3   3  -5 7963.80 595.642  27
   3   3  -5 7291.17 615.088   1
  -3  -3   5 7741.37 762.490  26
  -3  -3   4 27402.4 1273.60  31
  -3  -3   4 27313.5 1112.46   5
   3   3  -4 27404.1 1077.04  29
   3   3  -4 27675.4 1170.29   1
   3   3  -4 27956.7 1067.01  27
  -3  -3   4 28520.6 1355.57  26
  -3  -3   3 80181.6 1760.35   5
  -3  -3   3 82782.9 2441.46  32
   3   3  -3 83099.5 2014.80   1
   3   3  -3 78510.7 1867.74  29
   3   3  -3 81217.4 1789.53  27
   3   3  -2 128899. 2439.78  29
  -3  -3   2 135357. 2896.43  32
   3   3  -2 136034. 2313.30  27
  -3  -3   1 1479.55 328.260  32
   3   3  -1 1171.45 271.254  29
   3   3  -1 1631.69 260.031  27
   3   3  -1 1337.88 280.186   1
   3   3   0 108950. 2310.36   1
  -3  -3   0 106605. 2525.07  32
   3   3   0 105384. 2282.06  29
  -3  -3  -1 30342.7 1369.60  32
   3   3   1 28935.6 1188.69   1
   3   3   1 27964.3 1200.95  29
  -3  -3  -2 13763.8 948.626  32
  -3  -3  -2 15073.1 907.576  10
   3   3   2 12331.8 809.188  29
  -3  -3  -2 13550.4 782.177   7
  -3  -3  -3 153829. 3061.87  20
  -3  -3  -3 154667. 2996.46  10
  -3  -3  -4 23548.6 1208.37  20
  -3  -3  -4 22253.1 1161.21  10
  -3  -3  -5 8290.57 683.316  20
  -3  -3  -5 9590.11 758.073  10
  -3  -3  -6 9243.79 614.903  20
  -3  -3  -6 10726.5 718.853  10
  -3  -3  -7 189.685 142.642  10
   3   4 -13 4100.32 315.976  15
  -3  -4  13 4400.35 521.441  35
  -3  -4  12 2304.96 473.990  35
   3   4 -12 2266.55 323.533  15
  -3  -4  11 1038.71 398.852  35
   3   4 -11 1128.73 292.891  15
   3   4 -11 1058.90 269.359  22
   3   4 -10 11765.5 720.567  36
   3   4 -10 11438.3 814.453  22
   3   4  -9 28140.8 1291.74  22
  -3  -4   9 26954.3 1332.70  37
   3   4  -9 26123.1 1164.58  36
  -3  -4   8 26106.5 1311.34  37
   3   4  -8 27328.8 1215.48  36
   3   4  -8 27693.4 1144.95  33
  -3  -4   8 26993.0 1490.28  26
   3   4  -8 28262.1 1257.97  22
  -3  -4   7 55161.9 1849.43  37
  -3  -4   7 59245.7 2158.16  31
   3   4  -7 60631.2 1873.14   1
   3   4  -7 61446.8 1838.10  27
  -3  -4   7 59359.2 2197.51  26
  -3  -4   7 53677.1 2493.52  24
   3   4  -7 57332.1 1708.36  22
   3   4  -7 59653.8 1786.97  36
  -3  -4   6 11453.2 930.265  31
   3   4  -6 10518.4 725.421  27
   3   4  -6 10777.3 811.702   1
  -3  -4   5 11501.7 921.384  31
  -3  -4   5 10941.1 795.729   5
   3   4  -5 9731.32 691.131  29
   3   4  -5 12392.6 859.663   1
   3   4  -5 10765.1 693.562  27
  -3  -4   4 72279.7 1859.74   5
   3   4  -4 69136.1 1883.03  29
   3   4  -4 77370.9 1763.42  27
   3   4  -4 75540.5 2100.20   1
  -3  -4   4 74158.6 2487.44  32
  -3  -4   3 150.900 244.455  32
   3   4  -3 9.50163 155.386   1
   3   4  -3 174.663 158.916  29
  -3  -4   2 173802. 3440.27  32
   3   4  -2 169803. 3076.78  29
   3   4  -2 170780. 3151.76   1
   3   4  -1 131161. 2744.38  29
   3   4  -1 121120. 2616.60   1
  -3  -4   1 127664. 2913.83  32
   3   4   0 23147.9 1167.82  29
   3   4   0 23260.2 1124.57   1
  -3  -4   0 24497.5 1280.46  32
  -3  -4   0 22553.6 1060.98  11
  -3  -4   0 24775.7 1088.11  23
  -3  -4  -1 143288. 2909.22  10
  -3  -4  -1 143594. 3109.69  32
   3   4   1 145433. 2927.90  29
  -3  -4  -1 146105. 2707.71  11
  -3  -4  -1 152181. 2673.43  23
  -3  -4  -2 4018.39 553.467  10
  -3  -4  -2 3484.67 431.111  11
  -3  -4  -3 1618.08 368.911  10
  -3  -4  -3 1737.47 367.530  20
  -3  -4  -4 47548.8 1660.04  20
  -3  -4  -4 45280.9 1601.36  10
  -3  -4  -5 33145.4 1243.84  10
  -3  -4  -5 33603.4 1221.50  20
  -3  -4  -6 128.063 112.932  20
  -3  -5  12-184.680 205.979  35
   3   5 -12 122.412 117.553  15
  -3  -5  11-134.703 269.820  35
   3   5 -11 280.210 167.882  22
   3   5 -11 313.222 201.364  15
  -3  -5  10 1406.92 407.775  35
  -3  -5  10 1549.87 327.554  37
   3   5 -10 1308.47 251.703  36
   3   5 -10 1321.53 317.556  22
   3   5  -9 207336. 3308.37  36
   3   5  -9 206957. 3438.33  22
  -3  -5   9 208174. 3725.96  37
  -3  -5   9 205639. 3867.09  35
   3   5  -8 5961.10 592.712  36
   3   5  -8 6294.07 540.375  33
  -3  -5   8 4908.29 792.063  24
   3   5  -8 5789.17 581.442  22
  -3  -5   8 5868.80 647.017  37
   3   5  -7 9439.92 758.892  36
  -3  -5   7 10158.1 854.565  37
   3   5  -7 10707.5 761.703  22
  -3  -5   7 8966.07 1009.08  24
   3   5  -6 65343.4 2091.80   1
  -3  -5   6 71166.4 2663.43  24
  -3  -5   6 68316.3 2377.59  31
  -3  -5   6 64105.0 2452.19  32
   3   5  -6 67835.5 1975.59  36
  -3  -5   6 65570.7 2082.56  37
  -3  -5   6 64039.8 2031.59  23
   3   5  -6 66233.4 1809.99  22
   3   5  -5 18772.6 1132.90   1
  -3  -5   5 18806.4 1268.11  32
   3   5  -5 18375.2 1005.33  29
   3   5  -5 19385.5 914.434  22
  -3  -5   5 20301.8 1133.61  37
  -3  -5   5 20026.5 1114.07  23
  -3  -5   4 8710.58 827.517  32
   3   5  -4 9042.78 737.203  29
   3   5  -4 10781.4 854.682   1
  -3  -5   4 8726.61 723.186  37
  -3  -5   4 9219.46 752.299  23
  -3  -5   3 9713.00 845.776  32
   3   5  -3 10240.4 806.521  29
  -3  -5   3 10349.1 782.945  23
   3   5  -3 10639.7 848.081   1
  -3  -5   3 10690.9 768.453  37
  -3  -5   2 79954.8 2377.52  32
   3   5  -2 78451.2 2246.40  29
   3   5  -2 74434.2 2170.09   1
  -3  -5   2 83113.4 2169.71  23
   3   5  -1 101631. 2448.88   1
  -3  -5   1 101710. 2651.37  32
  -3  -5   1 103204. 2426.05  23
  -3  -5   0 2205.11 372.072  23
  -3  -5  -1 92252.5 2162.25  23
  -3  -5  -2 460.955 257.168  20
  -3  -5  -3 15164.3 937.965  20
  -3  -5  -4 12560.8 756.045  20
  -3  -5  -5-205.344 129.239  20
   3   6 -12 14959.8 528.261  15
   3   6 -11 3679.99 341.718  15
   3   6 -11 3435.69 359.103  22
   3   6 -10 70226.4 1597.36  15
  -3  -6  10 70683.3 1898.48  37
   3   6 -10 71973.7 1770.76  22
   3   6 -10 70009.3 1565.28  36
   3   6  -9 83195.6 1990.96  36
  -3  -6   9 82904.7 2256.67  37
   3   6  -9 85169.7 2061.75  22
  -3  -6   8 2375.73 449.500  37
   3   6  -8 2069.66 355.114  22
  -3  -6   8 1204.06 403.893  24
   3   6  -8 2880.76 424.032  36
   3   6  -7 61419.4 1794.28  22
  -3  -6   7 60564.3 2385.17  24
  -3  -6   7 60144.1 2039.35  37
   3   6  -7 60191.0 1899.20  36
  -3  -6   6 23536.8 1278.36  37
  -3  -6   6 24846.5 1526.49  24
  -3  -6   6 25505.3 1282.31  23
   3   6  -6 25224.6 1111.17  22
   3   6  -6 24266.7 1222.39  36
  -3  -6   5 27098.8 1339.09  37
  -3  -6   5 26189.5 1305.67  23
   3   6  -5 25291.9 1063.18  22
  -3  -6   4 15529.7 1004.07  23
  -3  -6   4 15652.0 993.890  37
  -3  -6   3 69363.2 1957.72  37
  -3  -6   3 72679.8 2159.55  23
  -3  -6   2 4907.45 581.417  23
  -3  -6   1 49309.6 1724.17  23
  -3  -6   0-3.78425 159.349  23
  -3  -6  -1 3297.72 463.784  20
  -3  -6  -1 3474.35 421.136  23
  -3  -6  -2 4884.00 510.348  20
  -3  -6  -3 118570. 2151.51  20
  -3  -6  -4 14776.7 602.293  20
   3   7 -11 10818.6 484.300  22
   3   7 -10 64788.1 1119.41  15
   3   7 -10 62228.7 1226.78  36
  -3  -7  10 64247.1 1540.07  37
   3   7 -10 63880.8 1404.70  22
   3   7  -9 4842.85 438.388  22
  -3  -7   9 4835.77 508.213  37
   3   7  -9 4704.56 435.718  36
  -3  -7   8 20449.3 1074.89  37
   3   7  -8 20714.8 928.530  22
   3   7  -8 20123.6 972.960  36
  -3  -7   7 74133.0 2104.92  37
   3   7  -7 68447.4 1692.81  22
   3   7  -7 73181.7 1949.59  36
  -3  -7   6 16696.3 1126.30  24
   3   7  -6 16603.2 816.062  22
   3   7  -6 17068.1 981.338  36
  -3  -7   6 17059.8 1018.92  37
  -3  -7   6 16593.4 971.042  23
  -3  -7   5 61558.3 1899.78  37
  -3  -7   5 59210.8 1869.25  23
  -3  -7   5 65455.0 2216.02  24
   3   7  -5 61313.0 1851.37  36
  -3  -7   4 1826.63 361.733  23
  -3  -7   4 1461.61 315.815  37
  -3  -7   3 33374.4 1401.88  23
  -3  -7   2 1608.28 342.204  23
  -3  -7   1 84257.8 1946.43  20
  -3  -7   1 86342.7 2091.72  23
  -3  -7   0 1887.13 316.352  20
  -3  -7   0 1411.83 261.038  23
  -3  -7  -1 4.32922 140.632  20
  -3  -7  -1 169.234 115.953  23
  -3  -7  -2 27000.5 879.160  20
   3   8  -9 13848.2 560.122  36
   3   8  -9 14872.9 548.955  22
  -3  -8   9 14808.0 673.648  37
  -3  -8   8 8353.13 572.832  37
   3   8  -8 8889.76 461.575  22
   3   8  -8 8705.27 529.212  36
   3   8  -7 44202.9 1026.80  22
  -3  -8   7 46728.2 1393.73  37
   3   8  -7 47461.3 1333.92  36
  -3  -8   6 3604.04 406.335  37
  -3  -8   6 3150.68 413.008  24
   3   8  -6 3216.78 373.081  36
  -3  -8   5 15500.6 778.144  37
  -3  -8   5 16548.7 845.542  23
   3   8  -5 17299.9 838.796  36
  -3  -8   5 15677.3 909.921  24
  -3  -8   4 67842.1 1735.87  23
   3   8  -4 68726.0 1599.16  36
  -3  -8   4 72194.6 1942.89  24
  -3  -8   3 32153.8 1170.37  23
   3   8  -3 32254.5 1002.87  36
  -3  -8   2 17829.0 831.340  23
   3   8  -2 16280.9 608.161  36
  -3  -8   1 15491.6 605.603  20
  -3  -8   1 14241.7 666.166  23
  -3  -8   0 1112.98 166.488  20
  -4  11   2 49283.4 1122.56  22
   4 -11  -2 49317.9 1160.58  34
  -4  11   2 46945.5 1007.97  33
  -4  11   1 1303.32 209.737  33
   4 -11  -1 1303.97 229.503  34
  -4  11   1 1291.89 230.430  22
   4 -11   0 5597.87 465.057  34
  -4  11   0 5390.96 437.682  33
  -4  11   0 5128.10 445.382  22
   4 -11   1 5521.99 463.183  34
  -4  11  -1 5406.58 452.240  33
   4 -11   1 4810.09 360.639  37
  -4  11  -1 5790.47 478.894  22
  -4  11  -2 20464.3 853.018  33
  -4  11  -2 20429.2 861.458  22
   4 -11   2 18942.5 792.828  37
   4 -11   2 20524.6 830.752  34
   4 -11   3 70714.4 1347.75  34
  -4  11  -3 70876.1 1508.56  22
   4 -11   3 71199.6 1586.29  37
  -4  11  -3 73783.8 1567.85  33
  -4  11  -4 74878.9 1390.97  22
  -4  11  -4 75835.7 1482.50  33
   4 -11   4 74847.5 1591.38  37
  -4  11  -5 9263.50 465.516  33
   4 -11   5 9534.94 525.542  37
   4 -10  -5 2224.60 224.905  11
  -4  10   4 8432.05 516.204  33
   4 -10  -4 8867.68 489.966  11
   4 -10  -4 8296.20 477.877  34
  -4  10   4 8564.07 534.805  22
   4 -10  -3 96748.4 1987.53  34
  -4  10   3 98334.5 2045.78  33
  -4  10   3 97208.2 2051.65  22
   4 -10  -3 99593.1 1713.97  11
  -4  10   2 35360.2 1342.46  33
   4 -10  -2 35157.0 1323.57  34
  -4  10   2 37910.3 1404.47  22
  -4  10   1 45115.1 1570.88  33
   4 -10  -1 48131.9 1614.75  34
  -4  10   1 48551.1 1648.12  22
   4 -10   0 91362.6 2258.65  34
  -4  10   0 89195.5 2258.55  33
  -4  10   0 86344.9 1793.35  18
   4 -10   0 86481.9 1869.62  37
  -4  10   0 90725.6 2297.65  22
  -4  10  -1 2309.64 394.320  33
  -4  10  -1 1805.39 287.118  18
   4 -10   1 2084.05 336.316  37
   4 -10   1 2293.51 371.994  34
  -4  10  -1 2495.78 404.903  22
   4 -10   2 2728.73 389.394  34
  -4  10  -2 2465.35 404.405  33
  -4  10  -2 2220.81 333.461  18
  -4  10  -2 2647.48 406.244  22
   4 -10   2 2348.10 386.368  37
  -4  10  -3 158349. 2740.50  22
  -4  10  -3 156077. 2792.23  33
  -4  10  -3 156046. 2664.96  18
   4 -10   3 162323. 2983.85  37
   4 -10   3 154366. 2587.30  34
  -4  10  -4 66149.6 1727.51  33
  -4  10  -4 65111.5 1622.04  22
   4 -10   4 68750.0 1920.98  37
  -4  10  -5 10523.8 646.365  33
  -4  10  -5 10309.5 533.401   8
   4 -10   5 10203.6 704.537  37
  -4  10  -5 9141.83 527.903  22
  -4  10  -6 48615.9 1199.18  33
  -4  10  -6 49553.5 962.256   8
   4 -10   6 47202.5 1360.10  37
  -4  10  -7 361.678 102.390  33
  -4  10  -7 211.484 91.3270  19
   4 -10   7 370.403 132.532  37
   4  -9  -7 46945.5 1004.10  11
  -4   9   6 1631.33 260.006  33
   4  -9  -6 1735.36 260.207  11
  -4   9   6 1833.63 249.763  22
   4  -9  -5 22460.9 959.745  11
  -4   9   5 21329.0 1053.75  33
  -4   9   4 32949.8 1436.42  33
   4  -9  -4 34387.6 1242.75  11
   4  -9  -4 35413.2 1338.30  25
   4  -9  -4 34189.9 1262.95  34
   4  -9  -3 2323.99 346.502  11
  -4   9   3 2021.47 428.798  33
   4  -9  -3 1961.43 365.074  34
   4  -9  -3 1997.52 357.060  25
   4  -9  -2-22.8709 204.491  34
  -4   9   2-170.460 260.448  33
   4  -9  -2-18.4773 153.906  25
   4  -9  -1 3761.93 508.120  34
  -4   9   1 3506.49 535.478  33
   4  -9  -1 4618.93 523.871  25
   4  -9   0 15549.0 925.304  37
  -4   9   0 16227.0 1084.81  33
   4  -9   0 15481.6 918.165  25
   4  -9   0 15286.6 1004.20  34
  -4   9   0 16516.9 1085.93  22
   4  -9   1 3517.12 494.231  34
  -4   9  -1 2207.16 422.228  33
  -4   9  -1 2132.35 371.495  18
   4  -9   1 3017.79 467.165  37
  -4   9  -1 2963.69 380.981  12
  -4   9  -1 2870.91 464.740  22
  -4   9  -2 17754.2 1019.78  18
  -4   9  -2 17483.7 1066.56  33
   4  -9   2 17608.8 1079.46  37
   4  -9   2 17334.7 1024.16  34
  -4   9  -2 15888.9 900.471  12
  -4   9  -2 16762.8 1029.02  22
   4  -9   3 43607.6 1514.86  34
  -4   9  -3 41815.6 1590.57  33
  -4   9  -3 41246.7 1519.28  22
  -4   9  -3 40691.3 1542.68  18
   4  -9   3 42546.8 1695.81  37
  -4   9  -3 41083.0 1500.84  12
  -4   9  -4 23354.1 1133.57  33
  -4   9  -4 22313.9 1128.85  18
  -4   9  -4 20577.4 1098.91  12
  -4   9  -4 23381.6 1053.27  22
   4  -9   4 23644.8 1258.20  37
  -4   9  -5 8907.59 662.821  33
   4  -9   5 8403.21 745.509  37
  -4   9  -5 8189.53 562.963  22
  -4   9  -6 54901.3 1476.49  33
  -4   9  -6 57424.1 1410.33   8
   4  -9   6 55915.4 1754.35  37
  -4   9  -7 23169.3 822.863  33
  -4   9  -7 24583.1 785.398   8
   4  -9   7 25390.4 1007.74  37
  -4   9  -8 275.517 102.456  19
  -4   8   8 291.899 133.393  33
   4  -8  -8 497.054 157.386  11
  -4   8   7 23046.6 1108.47  33
   4  -8  -7 23034.3 963.876  11
  -4   8   6-9.36579 236.590  33
   4  -8  -6 157.906 157.420  11
   4  -8  -6 337.734 189.677  25
   4  -8  -5 60526.1 1648.22  34
   4  -8  -5 57785.1 1765.80  11
  -4   8   5 56968.3 2140.38  33
   4  -8  -5 58203.7 1771.75  25
   4  -8  -4 40194.3 1471.62  11
  -4   8   4 40263.2 1872.80  33
   4  -8  -4 40859.7 1514.42  34
   4  -8  -4 38338.7 1515.09  25
   4  -8  -3 1706.38 336.597  34
  -4   8   3 1880.70 472.149  33
   4  -8  -3 1949.99 331.426  11
   4  -8  -3 2448.11 403.559  25
  -4   8   2 25580.6 1479.83  33
   4  -8  -2 24975.3 1269.43  34
   4  -8  -2 24378.1 1205.04  25
   4  -8  -1 1323.55 260.498  37
  -4   8   1 1318.72 371.160  33
   4  -8  -1 1091.20 292.252  34
   4  -8  -1 1427.55 315.956  25
   4  -8   0 16467.5 1039.50  34
  -4   8   0 17651.5 1149.19  33
   4  -8   0 14715.6 889.999  25
   4  -8   0 14785.4 947.917  37
   4  -8   1 40894.9 1607.65  37
  -4   8  -1 39256.1 1636.97  33
   4  -8   1 38492.6 1366.84  25
   4  -8   1 38282.9 1547.11  34
  -4   8  -1 37075.0 1353.52  12
  -4   8  -1 38471.5 1577.48  22
  -4   8  -2 35649.6 1507.13  33
   4  -8   2 35880.7 1455.45  34
   4  -8   2 33574.3 1517.92  37
  -4   8  -2 34914.8 1392.95  12
  -4   8  -2 33073.5 1408.93  22
  -4   8  -3 102205. 2343.14  22
   4  -8   3 97268.6 2293.35  34
  -4   8  -3 97145.2 2418.03  18
   4  -8   3 94732.7 2573.15  37
  -4   8  -3 93424.5 2391.65  33
  -4   8  -3 95496.7 2375.11  12
  -4   8  -4 40325.7 1554.58  18
  -4   8  -4 37991.1 1470.37  33
   4  -8   4 38369.1 1668.49  37
  -4   8  -4 41709.0 1600.10  12
  -4   8  -4 40981.3 1386.73  22
  -4   8  -5 108191. 2380.46  33
  -4   8  -5 107275. 2486.41  18
   4  -8   5 111528. 2792.67  37
  -4   8  -5 110025. 2590.63  12
   4  -8   6 6.08993 174.132  37
  -4   8  -6 132.901 146.091  33
  -4   8  -7 6740.20 485.930  33
   4  -8   7 8028.65 658.882  37
  -4   8  -7 6818.63 515.429   8
  -4   8  -8 1003.78 201.318  19
  -4   8  -8 974.364 191.608   8
  -4   7   9 25233.7 1035.70  33
   4  -7  -9 23744.0 842.138  11
   4  -7  -8 35940.1 1252.46  11
   4  -7  -7 10109.9 756.571  11
   4  -7  -7 9301.36 634.796  25
   4  -7  -6 16681.6 952.157  25
   4  -7  -5 266479. 3923.60  25
  -4   7   4 15625.3 938.892  21
   4  -7  -4 18360.2 1013.24  34
   4  -7  -4 18620.1 1046.70  25
  -4   7   3 3953.04 488.383  21
   4  -7  -3 3412.79 461.163  34
   4  -7  -3 4187.63 542.168  28
   4  -7  -3 4385.86 507.189  25
  -4   7   3 3679.00 494.661   2
  -4   7   2 462.859 324.171  33
   4  -7  -2 918.787 276.371  28
  -4   7   2 1433.83 280.303  21
   4  -7  -2 1934.12 351.227  25
  -4   7   2 2231.44 373.436   2
   4  -7  -2 1671.57 353.317  34
  -4   7   1 54132.2 1675.28   2
  -4   7   1 53963.0 1963.83  33
  -4   7   1 54649.6 1737.15  21
   4  -7  -1 50944.7 1727.38  28
   4  -7  -1 50436.8 1565.78  25
   4  -7  -1 54818.1 1754.22  34
  -4   7   0 10996.7 719.890   2
   4  -7   0 11050.3 780.255  34
   4  -7   0 10582.1 785.555  28
   4  -7   1 60977.8 1816.55  34
  -4   7  -1 63554.1 1944.66  33
   4  -7   1 59316.9 1850.32  28
   4  -7   1 60390.3 1796.43   3
   4  -7   2 48402.5 1597.15  34
   4  -7   2 48820.2 1732.50  37
  -4   7  -2 52703.5 1733.37  33
   4  -7   2 50425.5 1687.41  28
   4  -7   2 48983.3 1721.81   3
  -4   7  -2 51787.6 1640.24  12
  -4   7  -2 52036.9 1633.59  22
   4  -7   3 55760.8 1673.22  34
  -4   7  -3 55137.7 1614.20  22
   4  -7   3 50096.2 1887.00  31
  -4   7  -3 56062.2 1792.93  18
  -4   7  -3 52793.5 1709.96  33
   4  -7   3 55204.3 1922.53   3
  -4   7  -3 55887.6 1779.71  12
   4  -7   3 54858.3 1923.42  37
  -4   7  -4 1447.34 349.126  12
  -4   7  -4 1005.26 244.745  33
  -4   7  -4 1071.79 269.546  18
   4  -7   4 1516.20 324.134  37
  -4   7  -5 96981.5 2198.46  33
   4  -7   5 97080.6 2649.75  37
  -4   7  -5 92297.0 2283.57  18
  -4   7  -5 99014.4 2451.50  12
  -4   7  -6 1652.88 343.084  12
  -4   7  -6 1626.76 324.642   8
   4  -7   6 1381.74 339.004  37
  -4   7  -7 18828.6 821.240  33
  -4   7  -7 20030.8 923.078  19
  -4   7  -7 20948.8 977.605   8
  -4   7  -8 39542.8 1146.33  19
  -4   7  -8 39012.7 1175.10   8
  -4   7  -9 43087.3 969.427   8
  -4   7  -9 41943.0 936.441  19
   4  -6 -10 47871.8 1148.45  11
   4  -6  -9 10849.4 695.061  11
   4  -6  -9 10855.2 663.795  17
   4  -6  -8 2359.40 379.452  17
   4  -6  -7 72340.8 2013.03  17
   4  -6  -7 72339.4 1865.66  25
   4  -6  -6 3736.10 482.360  17
   4  -6  -6 3917.30 465.394  25
  -4   6   5 154441. 3022.72  21
  -4   6   5 160271. 3293.43   2
   4  -6  -5 156434. 2881.04  17
   4  -6  -5 165238. 3326.82  28
  -4   6   5 151234. 2851.03  26
   4  -6  -5 156412. 2898.30  25
   4  -6  -4 1399.38 297.900  17
   4  -6  -4 1884.66 391.786  28
  -4   6   4 1048.95 237.497  26
   4  -6  -4 1350.06 288.689  25
  -4   6   4 1025.23 287.803   2
  -4   6   3 33030.1 1338.09   2
   4  -6  -3 31274.4 1315.38  28
  -4   6   2 9342.23 672.294   2
   4  -6  -2 8324.74 668.299  28
  -4   6   1 61566.2 1623.91   2
   4  -6  -1 59377.4 1702.18  28
   4  -6   0-22.6769 167.142  28
  -4   6   0 18.1864 86.1090   2
  -4   6  -1 162399. 2637.63   6
   4  -6   1 155952. 2695.42  28
  -4   6  -2 23586.6 984.430   6
   4  -6   2 24890.1 1206.78  31
   4  -6   2 25488.2 1088.37  28
  -4   6  -3 1926.02 303.457   6
   4  -6   3 1605.80 371.765  31
   4  -6   3 1956.92 353.241  27
   4  -6   3 1882.08 366.084   3
  -4   6  -4 109598. 2221.51  33
   4  -6   4 109088. 2915.57  31
  -4   6  -4 110846. 2376.16  18
   4  -6   4 111152. 2941.13   3
   4  -6   4 110642. 2705.46  37
  -4   6  -4 111715. 2467.07  12
  -4   6  -5 839.925 237.483  12
  -4   6  -5 683.185 215.567  33
  -4   6  -5 589.404 207.878  18
   4  -6   5 713.653 259.052  37
  -4   6  -6 1578.38 346.264  12
  -4   6  -6 1193.11 313.017   8
  -4   6  -7 1763.24 293.171  19
  -4   6  -7 1650.60 320.333   8
  -4   6  -8 6116.93 479.217  19
  -4   6  -8 5527.98 491.013   8
  -4   6  -9 12735.2 563.922  19
  -4   6  -9 12381.8 594.446   8
   4  -5 -11 23894.0 697.436  11
   4  -5 -10 34477.4 1138.48  17
   4  -5  -9 5226.04 537.885  17
   4  -5  -8 120114. 2585.48  17
  -4   5   7 58757.7 1949.60  21
   4  -5  -7 57984.8 1798.30  17
   4  -5  -7 57355.0 1715.77  36
   4  -5  -7 61759.2 1710.65  25
  -4   5   6 422271. 5145.10  21
  -4   5   6 431143. 5377.65   2
   4  -5  -6 431600. 4660.01  17
   4  -5  -6 434148. 5749.23  28
   4  -5  -6 422977. 4511.05  25
   4  -5  -6 421861. 4569.73  36
  -4   5   5 209699. 3490.89   2
  -4   5   5 217130. 3273.49  26
  -4   5   4 89506.0 2134.45   2
   4  -5  -4 92092.1 2172.08  28
  -4   5   4 89820.2 1893.86  26
   4  -5  -3 401724. 4242.92  28
  -4   5   3 390509. 3531.98  26
  -4   5   2 279608. 3287.60   2
   4  -5  -2 269217. 3325.85  28
  -4   5   1 7000.94 495.048   2
   4  -5  -1 6573.38 512.593  28
  -4   5   0 5875.53 422.228   2
   4  -5   0 5772.56 500.773  27
   4  -5   0 5676.76 454.785  31
   4  -5   0 6251.29 481.858  28
  -4   5  -1 61783.3 1630.79   6
   4  -5   1 59812.8 1609.75  31
   4  -5   1 61941.7 1467.78  28
   4  -5   1 59112.5 1736.75  27
  -4   5  -2 418649. 4187.79   6
   4  -5   2 420136. 4705.13  31
   4  -5   2 416741. 4932.29  27
   4  -5   3 38325.4 1555.21  31
  -4   5  -3 39109.3 1184.13  30
  -4   5  -3 39098.6 1303.86   6
   4  -5   4 89944.7 2572.25  31
  -4   5  -4 92676.2 2018.39  30
  -4   5  -4 94424.1 2098.54   6
  -4   5  -4 93215.2 2119.75  12
   4  -5   5 31111.7 1622.97  31
  -4   5  -5 30478.4 1246.91  30
  -4   5  -5 30895.0 1242.46   6
  -4   5  -5 30686.0 1219.64  14
  -4   5  -5 31139.9 1259.67  12
   4  -5   5 31198.3 1715.09   3
  -4   5  -5 32192.5 1305.19   8
  -4   5  -5 32633.4 1197.23  18
  -4   5  -6 13533.4 785.450  19
  -4   5  -6 14119.3 901.654   8
  -4   5  -6 15236.9 887.008  14
  -4   5  -6 14698.3 847.428  12
  -4   5  -7 40931.3 1353.84  19
  -4   5  -7 42103.7 1505.48   8
  -4   5  -7 40877.9 1429.29  14
  -4   5  -8 15567.8 773.120  19
  -4   5  -8 16306.5 859.894   8
  -4   5  -8 17391.8 857.842  14
  -4   5  -9 11093.7 536.444  19
   4  -4 -11 1543.21 247.779  17
   4  -4 -10 32139.7 1245.29  17
   4  -4  -9 6774.34 620.420  17
   4  -4  -8 74074.8 2036.71  17
   4  -4  -8 73475.5 1874.87  36
  -4   4   7 43678.0 1697.71   2
   4  -4  -7 41836.9 1473.48  17
   4  -4  -7 44654.3 1472.83  36
  -4   4   7 44523.7 1750.14  26
  -4   4   6 357291. 4572.27   2
   4  -4  -6 342238. 5071.57  28
  -4   4   6 353636. 4437.12  26
  -4   4   5 21294.9 1031.61   2
   4  -4  -5 23110.6 1151.31  28
  -4   4   5 22250.9 1008.59  26
  -4   4   4 20667.1 930.582   2
  -4   4   4 20770.1 874.306  26
   4  -4  -3 161.846 125.363  29
   4  -4  -3 338.000 143.475  28
  -4   4   3 139.445 111.506  26
  -4   4   3 137.643 98.5016   2
  -4   4   2 91044.0 1701.41   2
   4  -4  -2 86537.6 1660.05  28
   4  -4  -2 86027.3 1698.85  27
   4  -4  -2 85605.2 1724.42  29
  -4   4   2 87970.1 1465.83  26
   4  -4  -1 150092. 1947.52  31
   4  -4  -1 148261. 2157.00  29
  -4   4   1 145622. 1996.10   2
   4  -4  -1 142959. 2007.24  28
   4  -4  -1 147683. 2497.61  27
  -4   4   0 189067. 2059.46   2
   4  -4   0 189574. 2500.21  31
   4  -4   0 181464. 2279.13  29
   4  -4   0 183419. 2139.65  28
   4  -4   0 177551. 2935.86  27
  -4   4  -1 122615. 2264.60   6
   4  -4   1 124620. 2266.54  31
  -4   4  -1 117381. 1615.10  30
   4  -4   1 119165. 1736.60  29
   4  -4   1 116092. 2497.07  27
  -4   4  -2 70707.2 1718.29   6
   4  -4   2 72461.2 1910.49  31
  -4   4  -2 70004.3 1447.12  30
   4  -4   2 75812.4 2143.95  27
   4  -4   3 86860.1 2284.24  31
  -4   4  -3 88541.6 1834.31  30
  -4   4  -3 89593.6 1985.37   6
   4  -4   4 106838. 2769.31  31
  -4   4  -4 106512. 2221.65  30
   4  -4   4 112098. 3091.86   3
  -4   4  -4 107814. 2300.00   6
  -4   4  -5 18359.8 856.636  19
   4  -4   5 18100.2 1249.09  31
  -4   4  -5 18656.0 1004.98  30
  -4   4  -5 18153.2 967.235   8
   4  -4   5 16142.2 1271.01   3
  -4   4  -5 16995.3 963.305  14
  -4   4  -5 18898.9 1009.78   6
  -4   4  -6 152074. 2585.91  19
  -4   4  -6 158391. 2944.71   8
  -4   4  -6 151803. 2988.08  14
  -4   4  -7 8832.32 635.358  19
  -4   4  -7 9025.50 717.650   8
  -4   4  -7 8707.12 712.133  14
  -4   4  -8 949.420 213.123  19
  -4   4  -8 954.355 240.669   8
  -4   4  -8 1219.00 266.496  14
  -4   4  -9 3436.41 304.155  19
  -4   4  -9 3800.97 363.955  14
   4  -3 -12 5911.00 339.816  10
   4  -3 -12 6472.06 414.077  17
   4  -3 -11 1647.86 297.856  17
   4  -3 -11 1051.48 222.305  10
   4  -3 -10 3769.43 468.291  17
   4  -3  -9 1014.03 295.589  17
   4  -3  -9 798.770 215.160  36
   4  -3  -8 26771.6 1201.63  17
  -4   3   8 26605.5 1318.69   2
   4  -3  -8 23620.2 1143.78  15
  -4   3   8 27018.6 1497.00  26
   4  -3  -8 27248.2 1137.88  36
  -4   3   7 13850.7 901.703   2
  -4   3   7 14936.6 1011.64  26
  -4   3   6 141757. 2697.63   2
  -4   3   6 142282. 2821.35  26
  -4   3   5 105248. 2157.82   2
   4  -3  -5 104034. 2025.91  29
   4  -3  -5 98306.4 1681.15  27
  -4   3   5 105186. 2185.71  26
  -4   3   4 277901. 3208.20   2
   4  -3  -4 270978. 3107.84  29
   4  -3  -4 268346. 3242.23  28
   4  -3  -4 266702. 2805.44  27
  -4   3   4 272822. 3186.00  26
  -4   3   3 54040.3 1314.60   2
   4  -3  -3 48945.3 1262.83  29
   4  -3  -3 53377.5 1296.91  28
   4  -3  -3 49739.6 1313.13  27
  -4   3   3 52547.0 1285.69  26
  -4   3   2 45557.2 1119.28   2
   4  -3  -2 44047.6 1151.86  29
   4  -3  -2 44030.4 1037.97  28
   4  -3  -2 40454.7 1302.35  27
  -4   3   2 42129.2 1092.16  26
  -4   3   1 19938.7 683.101   2
   4  -3  -1 20363.6 757.715  29
   4  -3  -1 20775.9 626.888  28
   4  -3  -1 19778.6 966.933  27
  -4   3   0 292523. 3456.22   6
   4  -3   0 282746. 3179.37  31
  -4   3   0 282946. 2374.10  30
   4  -3   0 286612. 2701.09  29
  -4   3   0 292370. 2311.76   2
   4  -3   0 291369. 2053.41  28
   4  -3   0 285049. 3813.53  27
  -4   3  -1 2992.28 350.640   6
   4  -3   1 2511.85 344.291  31
  -4   3  -1 2446.31 254.538  30
   4  -3   1 2833.56 260.510  29
   4  -3   1 2867.61 422.974  27
   4  -3   2 39389.3 1414.32  31
  -4   3  -2 40195.0 1148.56  30
   4  -3   2 41242.3 1615.39  27
  -4   3  -2 38501.0 1252.86   6
  -4   3  -3 1666.11 284.696   6
   4  -3   3 1497.46 341.848  31
  -4   3  -3 1651.27 273.240  30
   4  -3   4 118275. 2967.22  31
  -4   3  -4 121593. 2450.99  30
   4  -3   4 117036. 3173.66   3
  -4   3  -4 126373. 2542.70   6
  -4   3  -5 10584.4 638.352  19
   4  -3   5 10348.7 967.167  31
  -4   3  -5 10137.5 761.395  30
  -4   3  -5 10628.3 813.570   9
  -4   3  -5 10254.6 764.309   6
   4  -3   5 10415.5 984.194  27
  -4   3  -5 9327.88 689.799   8
  -4   3  -5 8779.03 727.732  14
  -4   3  -6 200918. 2927.57  19
  -4   3  -6 201006. 3602.61   9
  -4   3  -6 204780. 3311.04   8
  -4   3  -6 199366. 3523.68  14
  -4   3  -7 16214.7 830.834  19
  -4   3  -7 16281.9 929.320   8
  -4   3  -7 15489.9 977.692  14
  -4   3  -8 6608.50 484.961  19
  -4   3  -8 7155.86 612.856  14
  -4   3  -9 812.980 164.912  19
  -4   3  -9 589.344 170.498  14
   4  -2 -12 8883.44 555.224  17
   4  -2 -11 22041.3 1046.10  17
   4  -2 -10 28392.0 1274.04  17
   4  -2 -10 27713.5 1236.06  15
  -4   2  10 28058.2 1573.69  35
  -4   2   9 801.933 237.852  35
   4  -2  -9 795.165 260.149  15
   4  -2  -9 275.616 154.789  36
   4  -2  -8 84794.8 2034.44  15
  -4   2   8 77168.1 2145.03   2
  -4   2   8 79219.6 2606.08  26
   4  -2  -8 80748.4 1922.92  36
  -4   2   8 77963.4 2451.09  35
   4  -2  -7 7557.87 558.003  29
  -4   2   7 7682.00 636.423   2
   4  -2  -7 9177.21 608.115  27
  -4   2   7 7747.02 762.319  26
   4  -2  -6 4687.84 431.462  29
  -4   2   6 5813.33 527.041   2
   4  -2  -6 5563.57 457.321  27
  -4   2   6 5313.57 573.858  26
   4  -2  -5 62.7322 109.203  29
   4  -2  -5 21.6289 103.583  27
  -4   2   5 148.376 167.695  26
  -4   2   5 82.0879 135.789   2
   4  -2  -4 2861.17 316.862  29
  -4   2   4 2876.11 319.762   2
   4  -2  -4 2027.35 317.143  28
   4  -2  -4 3779.12 388.270  27
  -4   2   4 2925.84 372.348  26
   4  -2  -3 109718. 1833.00  29
   4  -2  -3 108128. 1857.68  28
   4  -2  -3 107739. 2112.18  27
  -4   2   3 109473. 2083.63  26
   4  -2  -2 22730.7 811.716  29
  -4   2   2 21672.8 740.170   2
   4  -2  -2 20931.6 707.226  28
   4  -2  -2 20429.5 983.472  27
  -4   2   2 21511.5 888.937  26
  -4   2   1 6381.25 393.018  32
   4  -2  -1 6381.67 421.488  29
  -4   2   1 6846.81 379.675   2
   4  -2  -1 5683.36 301.950  28
   4  -2  -1 6529.71 600.415  27
  -4   2   1 6536.69 408.929  26
  -4   2   0 453537. 4071.49   6
  -4   2   0 436940. 3077.83  32
  -4   2   0 439859. 3333.39  30
   4  -2   0 439421. 3372.92  29
   4  -2   0 458957. 5053.82  27
  -4   2   0 450299. 2741.08   2
  -4   2  -1 55813.7 1438.09   6
  -4   2  -1 56488.2 1149.08  32
  -4   2  -1 54226.0 1292.66  30
   4  -2   1 54571.5 1820.17  27
   4  -2   1 56151.9 1157.24  29
  -4   2  -2 5253.55 392.480  32
  -4   2  -2 5951.47 485.029  30
   4  -2   2 5438.81 619.577  27
  -4   2  -2 5480.25 473.716   6
   4  -2   3 7974.51 755.683  31
  -4   2  -3 8446.27 629.389  30
   4  -2   3 9164.77 850.152  27
  -4   2  -3 9175.22 651.569   6
   4  -2   4 60023.4 2213.96  31
  -4   2  -4 63956.4 1858.03  30
   4  -2   4 64893.9 2330.41  27
  -4   2  -4 66279.2 1859.76   6
  -4   2  -5 15806.4 948.503   6
  -4   2  -5 14393.0 875.567  20
   4  -2   5 12751.8 1088.17  31
  -4   2  -5 14180.3 932.354  30
  -4   2  -5 14670.4 950.537   9
   4  -2   5 15073.4 1190.91  27
  -4   2  -5 15488.8 873.796   8
  -4   2  -5 14627.0 965.079  14
  -4   2  -6 50052.0 1433.86  19
  -4   2  -6 48445.3 1757.54   9
  -4   2  -6 46507.9 1560.71   8
  -4   2  -6 48549.8 1761.12  14
  -4   2  -7 48441.9 1369.60  19
  -4   2  -7 47704.4 1690.04  14
  -4   2  -8 93.6438 124.065  19
  -4   2  -8 392.697 215.508  14
  -4   2  -9 1184.84 146.129  19
  -4   2  -9 1361.73 215.951  14
   4  -1 -13 3311.03 273.356  10
   4  -1 -13 3783.92 296.457  17
   4  -1 -12 24376.7 984.076  17
  -4   1  12 27352.3 1497.35  35
  -4   1  11 222.619 304.065  35
   4  -1 -11 279.744 203.594  15
  -4   1  10 37904.4 1928.64  35
   4  -1 -10 39981.9 1494.16  15
  -4   1   9-247.645 342.292  35
  -4   1   9-146.542 342.206  26
   4  -1  -9 285.772 128.497  36
  -4   1   8 2506.14 396.934   2
  -4   1   8 1891.62 373.954   5
   4  -1  -8 1720.13 321.310  15
   4  -1  -8 2238.59 350.051  27
  -4   1   7 83087.0 2286.30   5
   4  -1  -7 82846.0 1750.28  29
   4  -1  -7 80345.5 1923.96  27
  -4   1   7 77168.7 1976.45   2
  -4   1   7 79029.9 2508.58  26
  -4   1   6 267305. 3877.27   5
   4  -1  -6 260394. 3038.05  29
   4  -1  -6 265894. 3345.89  27
  -4   1   6 250600. 3341.71   2
  -4   1   6 255837. 4155.88  26
   4  -1  -5 29413.1 871.392   1
  -4   1   5 28849.3 1209.01   5
   4  -1  -5 27811.3 971.600  29
  -4   1   5 29540.5 1070.53   2
   4  -1  -5 29262.4 1098.73  27
  -4   1   5 28762.6 1308.92  26
   4  -1  -4 45774.9 1219.12  29
   4  -1  -4 45881.0 1392.49  27
  -4   1   4 48076.4 1271.46   2
  -4   1   4 45615.6 1589.74  26
   4  -1  -3 29212.8 956.887  29
   4  -1  -3 28783.6 1162.92  27
  -4   1   3 27742.0 912.028   2
  -4   1   3 29807.9 1220.97  26
   4  -1  -2 57695.4 1319.67  29
   4  -1  -2 55982.8 1701.70  27
  -4   1   2 60261.1 1249.70   2
  -4   1   2 59985.0 1574.92  26
  -4   1   1 338539. 3379.98   6
   4  -1  -1 339389. 3148.04  29
   4  -1  -1 339146. 4331.96  27
  -4   1   1 327608. 3387.65  32
  -4   1   1 335341. 2774.12   2
  -4   1   0 245508. 2833.57   6
  -4   1   0 251714. 2842.19  32
   4  -1   0 248513. 2671.31  29
   4  -1   0 249511. 3864.75  27
  -4   1  -1 35282.2 1134.27  30
   4  -1   1 37436.6 1021.85  29
   4  -1   1 37767.1 1579.46  27
  -4   1  -1 36403.0 1105.27  32
  -4   1  -1 34426.8 1107.76   6
  -4   1  -2 137.887 105.215   6
  -4   1  -2 268.508 162.042  30
   4  -1   2 231.861 221.305  27
  -4   1  -3 72212.9 1765.15  32
   4  -1   3 67461.7 2318.79  31
  -4   1  -3 73163.2 1927.83  30
   4  -1   3 73346.6 2411.42  27
  -4   1  -3 73298.7 1861.37   6
  -4   1  -4 6924.20 625.198  20
   4  -1   4 4629.69 668.998  31
  -4   1  -4 5711.79 582.637  30
  -4   1  -4 6079.61 579.954   6
  -4   1  -4 6019.53 586.242   9
   4  -1   4 5377.94 703.231  27
  -4   1  -4 6307.30 519.301   8
  -4   1  -4 6000.32 594.695  14
  -4   1  -5 3765.75 472.672  20
  -4   1  -5 3134.72 458.220   9
  -4   1  -5 3498.80 418.116   8
  -4   1  -5 4286.11 538.913  14
  -4   1  -6 21480.2 1024.27  20
  -4   1  -6 19964.4 888.549  19
  -4   1  -6 20317.7 943.942  10
  -4   1  -6 20683.6 1127.15   9
  -4   1  -6 20760.7 1147.25  14
  -4   1  -7 34230.8 1084.06  19
  -4   1  -7 35828.9 1143.88  10
  -4   1  -7 37475.2 1400.24   9
  -4   1  -7 39080.2 1467.68  14
  -4   1  -8 157.284 102.135  19
  -4   1  -8 35.3709 130.924  14
  -4   0  13 314.886 244.100  35
   4   0 -13 630.621 142.647  17
   4   0 -12 2814.05 385.795  15
  -4   0  12 3122.23 636.458  35
   4   0 -11 29632.3 1277.78  15
  -4   0  11 28161.9 1711.92  35
   4   0 -10 20544.1 1089.65  15
   4   0 -10 20411.3 959.033  36
  -4   0  10 19662.8 1433.65  35
  -4   0   9 67863.9 2368.04   5
   4   0  -9 68685.6 1935.15  15
  -4   0   9 69924.0 2815.88  26
   4   0  -9 68117.6 1828.90  36
  -4   0   9 68249.5 2481.74  35
  -4   0   8 78475.9 2402.95   5
   4   0  -8 80297.5 2095.89  27
  -4   0   8 77054.4 2807.05  26
  -4   0   8 74233.7 2050.36   2
  -4   0   7 84879.0 2368.25   5
   4   0  -7 85542.3 1729.30  29
   4   0  -7 88399.7 1619.17   4
   4   0  -7 89220.6 2111.72  27
  -4   0   7 83884.5 2745.81  26
  -4   0   7 84556.4 2084.36   2
  -4   0   6 34339.1 1427.51   5
   4   0  -6 36379.0 1143.80  29
   4   0  -6 37186.3 1071.49   1
   4   0  -6 36319.9 927.049   4
   4   0  -6 36246.5 1308.15  27
  -4   0   6 38043.6 1741.58  26
  -4   0   6 37565.6 1325.32   2
  -4   0   5 136965. 2666.03   5
   4   0  -5 136130. 2125.89   1
   4   0  -5 133896. 2165.64  29
   4   0  -5 141362. 2542.27  27
  -4   0   5 133192. 3067.21  26
  -4   0   5 133378. 2350.53   2
  -4   0   4 286725. 3643.12   5
   4   0  -4 276784. 3107.83  29
   4   0  -4 269314. 3515.08  27
  -4   0   4 277921. 4221.47  26
  -4   0   4 281288. 3227.84   2
   4   0  -4 277237. 3173.32   1
   4   0  -3 2877.03 332.377  29
   4   0  -3 2655.13 402.272  27
  -4   0   3 2729.85 432.901  26
  -4   0   3 2648.93 316.173   2
  -4   0   2 169191. 2205.33   6
  -4   0   2 168851. 3003.15  32
   4   0  -2 169753. 2401.53  29
   4   0  -2 161059. 2969.56  27
  -4   0   2 169123. 2766.12  26
   4   0  -1 550295. 4356.46  29
   4   0  -1 538264. 5655.26  27
  -4   0   1 541524. 3895.20   6
  -4   0   0 86591.4 1912.96  32
   4   0   0 86712.8 1727.87  29
   4   0   0 87446.0 2395.24  27
  -4   0   0 86102.3 1606.23   6
  -4   0  -1 32701.3 1203.84  32
   4   0   1 35070.5 1095.85  29
   4   0   1 32507.3 1523.24  27
  -4   0  -1 32032.0 1062.47   6
  -4   0  -2 12284.7 768.324  32
   4   0   2 13919.3 1037.94  27
  -4   0  -2 13229.9 746.965   6
  -4   0  -3 8331.27 672.041  32
   4   0   3 6814.60 817.548  31
   4   0   3 8223.21 832.601  27
  -4   0  -3 8696.39 650.956   6
  -4   0  -4 62.3904 180.801  20
  -4   0  -4 335.356 124.957  32
   4   0   4-131.137 332.751  31
  -4   0  -4 607.653 211.716  10
   4   0   4 798.104 323.769  27
  -4   0  -4 443.803 177.168  14
  -4   0  -5 55678.3 1781.92  20
  -4   0  -5 55235.2 1651.84  10
  -4   0  -5 52552.8 1799.17   9
  -4   0  -5 53733.0 1791.34  14
  -4   0  -6 75332.8 1884.89  20
  -4   0  -6 73798.6 1842.94  10
  -4   0  -6 75180.5 2049.25   9
  -4   0  -6 75058.6 2060.48  14
  -4   0  -7 1861.07 247.437  19
  -4   0  -7 1672.86 273.827  10
  -4   0  -7 1434.59 278.386   9
  -4   0  -7 1606.54 299.572  14
  -4   0  -8 41606.0 870.434  10
  -4   0  -8 45736.3 1108.10  14
   4   1 -13 35552.6 996.520  17
   4   1 -13 33340.5 976.027  15
  -4  -1  12 8885.57 955.232  35
   4   1 -12 8656.34 634.736  15
  -4  -1  11 60158.2 2481.72  35
   4   1 -11 59630.8 1808.85  15
   4   1 -10 173085. 3163.02  15
   4   1 -10 177980. 2888.79  36
   4   1  -9 8125.42 680.076  15
  -4  -1   9 8757.11 1029.57  26
   4   1  -9 7413.85 649.162  22
  -4  -1   9 6411.67 806.405  35
   4   1  -9 7046.50 618.177  36
  -4  -1   8 465733. 5965.08   5
   4   1  -8 474954. 4255.63   4
   4   1  -8 467760. 4776.86  22
   4   1  -8 466693. 4705.49  15
   4   1  -8 478827. 5314.02  27
  -4  -1   8 455327. 7016.22  26
   4   1  -8 448720. 4688.11  36
  -4  -1   7 118247. 2446.34  31
  -4  -1   7 108747. 2750.65   5
   4   1  -7 113383. 2036.03  29
   4   1  -7 120210. 1995.68   4
   4   1  -7 121190. 2552.41  27
  -4  -1   7 111688. 3311.08  26
  -4  -1   6 39796.2 1564.52   5
   4   1  -6 38657.4 1215.84  29
   4   1  -6 37956.4 1243.76   1
   4   1  -6 41178.8 1436.76  27
  -4  -1   6 40923.1 1896.38  26
  -4  -1   5 8292.93 684.726   5
   4   1  -5 8457.27 604.477   1
   4   1  -5 8177.40 572.359  29
   4   1  -5 8809.34 672.590  27
  -4  -1   5 8445.57 832.329  26
  -4  -1   4 104707. 2273.43   5
   4   1  -4 100628. 1990.60  29
   4   1  -4 104970. 2282.26  27
  -4  -1   4 105447. 2675.82  26
   4   1  -4 107530. 2164.14   1
   4   1  -3 51359.9 1439.64  29
   4   1  -3 55890.8 1587.39   1
   4   1  -3 53688.5 1679.30  27
  -4  -1   3 54068.1 1773.64  26
   4   1  -2 177498. 2880.22   1
  -4  -1   2 180448. 3281.43  32
   4   1  -2 172612. 2656.75  29
   4   1  -2 174202. 3149.43  27
  -4  -1   2 173444. 1892.01   6
  -4  -1   1 91271.8 2225.30  32
   4   1  -1 90020.8 1938.00  29
   4   1  -1 89866.7 2387.81  27
  -4  -1   1 89127.5 1447.39   6
  -4  -1   0 16696.5 940.924  32
   4   1   0 15875.4 824.342  29
   4   1   0 14829.5 1021.70  27
  -4  -1   0 16223.3 681.043   6
  -4  -1  -1 54454.2 1725.25  32
   4   1   1 57667.2 1561.93  29
   4   1   1 58189.2 2051.69  27
  -4  -1  -1 54559.0 1369.25   6
  -4  -1  -2 15820.3 957.026  32
   4   1   2 13880.7 1046.93  27
  -4  -1  -2 15289.5 791.553   6
  -4  -1  -3 20824.7 1115.21  20
  -4  -1  -3 21075.9 1143.47  32
  -4  -1  -3 20829.3 1036.60  10
  -4  -1  -3 20454.7 1024.44  14
  -4  -1  -3 20957.6 989.562   6
  -4  -1  -4 7478.79 698.617  20
  -4  -1  -4 7079.65 630.064  10
  -4  -1  -4 8327.81 696.871  14
  -4  -1  -5 62167.5 1796.98  10
  -4  -1  -5 61353.3 1882.14   9
  -4  -1  -5 64524.4 1831.23  14
  -4  -1  -5 62202.2 1867.34  20
  -4  -1  -6 2316.07 345.996  20
  -4  -1  -6 2628.34 361.471  10
  -4  -1  -6 3578.89 435.818   9
  -4  -1  -6 2635.89 370.479  14
  -4  -1  -7 2764.19 305.349  10
  -4  -1  -7 2269.88 271.308  14
   4   2 -13 21956.3 788.700  15
  -4  -2  13 25056.7 1329.50  35
   4   2 -12 115408. 2239.87  15
  -4  -2  12 112057. 3141.56  35
   4   2 -11 26892.2 1201.80  15
  -4  -2  11 26772.2 1629.91  35
  -4  -2  10 2013.29 515.829  35
   4   2 -10 2886.35 434.483  15
   4   2 -10 2129.90 377.907  22
   4   2 -10 1654.94 298.445  36
   4   2  -9 73655.6 2002.44  15
   4   2  -9 70241.1 2003.87  22
   4   2  -9 72195.7 1974.27  36
  -4  -2   9 70181.8 2554.34  35
  -4  -2   8 77783.3 2226.52  31
  -4  -2   8 76331.6 2482.72   5
   4   2  -8 82303.9 1852.07   4
   4   2  -8 78193.9 2195.44  27
  -4  -2   8 77954.3 2879.89  26
  -4  -2   8 76936.3 2101.63  37
   4   2  -8 78545.9 2013.11  22
   4   2  -8 79042.6 2048.74  36
  -4  -2   8 74289.1 2478.42  35
  -4  -2   7 5641.57 611.411  31
  -4  -2   7 5904.48 679.856   5
   4   2  -7 6117.99 613.637  27
  -4  -2   7 5046.16 762.549  26
   4   2  -7 5036.58 509.143   1
  -4  -2   6 28826.5 1381.01   5
   4   2  -6 30447.5 1140.39  29
   4   2  -6 31769.8 1308.01  27
   4   2  -6 30962.0 1247.61   1
  -4  -2   6 27409.7 1578.49  26
  -4  -2   5 7956.97 687.590   5
   4   2  -5 7226.17 579.293  29
   4   2  -5 7388.00 616.100   1
   4   2  -5 7134.66 627.562  27
  -4  -2   5 8062.92 811.634  26
  -4  -2   4 5691.70 556.013   5
   4   2  -4 6520.26 602.076   1
   4   2  -4 6882.77 572.321  29
   4   2  -4 6456.53 589.606  27
  -4  -2   4 7273.38 730.023  26
   4   2  -3 19067.4 1011.69   1
   4   2  -3 19664.8 973.196  29
   4   2  -3 18280.9 991.132  27
   4   2  -2 397805. 4596.56   1
  -4  -2   2 416447. 5219.62  32
   4   2  -2 411001. 4465.09  29
   4   2  -2 411173. 4795.24  27
  -4  -2   1 63683.1 1986.12  32
   4   2  -1 60732.4 1839.61   1
   4   2  -1 64359.7 1795.72  29
   4   2  -1 62699.5 1954.19  27
   4   2   0 10459.7 777.488   1
  -4  -2   0 10891.1 833.350  32
   4   2   0 10457.3 742.974  29
   4   2   0 10434.1 840.892  27
  -4  -2  -1 282892. 3909.75  20
  -4  -2  -1 276528. 4184.28  32
   4   2   1 283573. 3781.71  29
  -4  -2  -2 88.7241 124.179  32
  -4  -2  -2-64.6193 197.343  10
  -4  -2  -3 1952.38 392.304  20
  -4  -2  -3 1952.72 361.186  10
  -4  -2  -4 98225.3 2442.42  20
  -4  -2  -4 99761.7 2359.66  10
  -4  -2  -5 91063.6 2147.34  20
  -4  -2  -5 95466.7 2167.10  10
  -4  -2  -5 95213.4 2109.59   9
  -4  -2  -6 161.955 120.432  20
  -4  -2  -6 415.366 186.161  10
  -4  -2  -6 283.603 149.725   9
   4   3 -13 212.388 126.328  15
  -4  -3  13 93.6168 216.967  35
   4   3 -12 4782.53 452.888  15
  -4  -3  12 5364.81 693.793  35
  -4  -3  11 2394.83 529.706  35
   4   3 -11 1835.17 346.665  15
   4   3 -11 1189.57 232.496  36
   4   3 -10 93491.9 2296.80  22
   4   3 -10 93240.6 2226.70  15
   4   3 -10 96317.7 2197.13  36
  -4  -3  10 91767.4 2937.34  35
   4   3  -9 90871.9 2170.29  15
  -4  -3   9 94723.1 2460.32  37
   4   3  -9 89521.7 2262.27  22
   4   3  -9 90728.2 2271.72  36
  -4  -3   9 92941.0 2897.88  35
  -4  -3   8 115308. 3328.77  26
  -4  -3   8 106472. 2613.35  37
   4   3  -8 108407. 2409.48  22
   4   3  -8 105626. 2458.86  36
  -4  -3   8 107625. 2975.38  35
  -4  -3   7 8920.61 837.238   5
   4   3  -7 9121.88 739.142  27
  -4  -3   7 9547.12 947.919  26
  -4  -3   7 9621.22 1080.41  24
  -4  -3   7 8561.20 732.753  37
   4   3  -7 9345.58 678.443  22
   4   3  -7 9752.93 735.569  36
   4   3  -7 9163.99 731.401   1
  -4  -3   7 9014.64 847.979  35
  -4  -3   6 10134.1 835.639   5
   4   3  -6 9254.67 671.632  29
   4   3  -6 9356.49 723.296  27
  -4  -3   6 8893.65 912.185  26
   4   3  -6 8822.96 735.970   1
   4   3  -6 9269.47 686.039  36
  -4  -3   5 14461.0 949.237   5
   4   3  -5 13865.0 856.977  29
   4   3  -5 13787.7 856.571  27
   4   3  -5 13471.2 913.412   1
  -4  -3   4 3075.71 426.344   5
  -4  -3   4 3345.24 585.670  32
   4   3  -4 4299.78 510.216  29
   4   3  -4 4323.53 532.650   1
   4   3  -4 3826.07 467.776  27
   4   3  -3 35870.5 1489.07   1
  -4  -3   3 35313.8 1650.11  32
   4   3  -3 35427.4 1411.35  29
   4   3  -3 36532.7 1372.05  27
  -4  -3   2 267699. 4385.20  32
   4   3  -2 257761. 3993.94   1
   4   3  -2 260040. 3867.89  29
   4   3  -2 269776. 3692.19  27
  -4  -3   1 200584. 3735.09  32
   4   3  -1 194391. 3452.30   1
   4   3  -1 201467. 3417.94  29
  -4  -3   0 225632. 3534.02  20
  -4  -3   0 229437. 3977.41  32
   4   3   0 214180. 3569.06   1
   4   3   0 221955. 3594.93  29
  -4  -3   0 224315. 3252.63  23
  -4  -3  -1 54222.6 1836.90  20
  -4  -3  -2 46961.8 1738.77  20
  -4  -3  -2 47100.7 1704.46  10
  -4  -3  -3 5179.85 583.089  20
  -4  -3  -3 4645.01 542.931  10
  -4  -3  -4 23687.6 1137.88  20
  -4  -3  -4 24776.8 1136.54  10
  -4  -3  -4 23917.3 1050.23   9
  -4  -3  -5 3086.46 369.984  20
  -4  -3  -5 2763.56 298.451   9
  -4  -3  -6 333.017 97.2937  20
   4   4 -12 1526.77 273.071  15
  -4  -4  12 609.814 280.940  35
   4   4 -11 40279.5 1362.86  22
   4   4 -11 40892.3 1319.68  15
   4   4 -11 38942.6 1169.18  36
  -4  -4  11 39137.4 1700.04  35
   4   4 -10 100146. 2297.46  22
   4   4 -10 100435. 2185.88  15
   4   4 -10 98419.0 2198.16  36
  -4  -4  10 100869. 2454.50  37
  -4  -4  10 99907.8 2838.67  35
   4   4  -9 98216.3 2338.33  22
   4   4  -9 97080.5 2164.64  15
  -4  -4   9 100648. 2585.69  37
   4   4  -9 101089. 2391.60  36
  -4  -4   9 100090. 2853.68  35
  -4  -4   8-313.121 309.718  35
  -4  -4   8 140.944 306.423  24
  -4  -4   8 52.6749 209.791  37
   4   4  -8 503.608 227.118  22
   4   4  -8 68.4779 176.831  36
   4   4  -7 8105.03 659.035  22
  -4  -4   7 6209.93 865.551  24
  -4  -4   7 6623.99 683.146  37
   4   4  -7 6185.26 616.031  36
  -4  -4   6 18776.4 1118.68  37
  -4  -4   6 18225.8 1120.86   5
  -4  -4   6 21703.2 1512.59  32
   4   4  -6 17892.2 968.800  29
   4   4  -6 18938.7 1016.51  27
  -4  -4   6 20745.9 1434.84  24
   4   4  -6 18588.7 895.047  22
   4   4  -6 20631.4 1172.28   1
   4   4  -6 20041.0 1072.27  36
  -4  -4   5 21427.7 1419.99  32
   4   4  -5 24741.3 1200.13  29
   4   4  -5 23022.1 1264.19   1
  -4  -4   5 23652.0 1221.87  37
  -4  -4   5 22823.3 1192.74  23
   4   4  -5 25282.4 1177.36  36
  -4  -4   4 653.951 261.811  32
   4   4  -4 679.617 280.310   1
   4   4  -4 978.168 274.086  29
  -4  -4   4 779.405 267.975  13
  -4  -4   4 823.778 255.340  37
  -4  -4   4 713.695 272.045  23
   4   4  -4 604.818 205.931  36
  -4  -4   3 4751.42 630.724  32
   4   4  -3 4107.84 526.461  29
   4   4  -3 4687.16 592.506   1
  -4  -4   3 4668.74 524.277  37
   4   4  -3 4452.97 475.323  36
  -4  -4   3 4827.67 538.018  23
   4   4  -2 2739.72 440.778   1
  -4  -4   2 3385.80 413.790  20
  -4  -4   2 2517.42 460.504  32
   4   4  -2 3015.27 465.556  29
  -4  -4   2 2650.22 413.420  23
  -4  -4   1 123229. 2617.39  20
  -4  -4   1 124047. 2643.56  23
  -4  -4   0 11258.8 831.541  20
  -4  -4   0 12162.8 810.042  23
  -4  -4  -1 434.388 245.859  20
  -4  -4  -2 232.010 221.568  20
  -4  -4  -3 2188.13 387.686  20
  -4  -4  -4 1767.13 296.185  20
  -4  -4  -5 17780.0 638.553  20
   4   5 -12 19462.9 653.389  15
  -4  -5  12 17096.8 733.016  35
   4   5 -11 157.565 120.827  36
   4   5 -11 115.564 118.830  15
  -4  -5  11 73.6563 207.061  35
   4   5 -11-114.889 151.025  22
   4   5 -10 111636. 2205.04  36
   4   5 -10 112278. 2020.20  15
  -4  -5  10 114113. 2481.78  37
   4   5 -10 112598. 2256.33  22
  -4  -5  10 106103. 2420.86  35
   4   5  -9 2221.05 306.441  15
  -4  -5   9 1995.80 367.765  37
   4   5  -9 2270.60 357.535  22
   4   5  -9 2382.91 391.110  36
   4   5  -8 21.0798 148.334  36
  -4  -5   8-38.5008 179.351  37
   4   5  -8 136.570 149.138  22
   4   5  -7 3313.34 493.049  36
  -4  -5   7 3368.30 635.131  24
  -4  -5   7 2475.40 457.368  37
   4   5  -7 2754.89 380.729  22
  -4  -5   6 4162.96 536.819  37
  -4  -5   6 4034.28 663.311  24
   4   5  -6 3276.13 461.987  36
  -4  -5   5 28402.1 1362.97  13
  -4  -5   5 26300.0 1322.07  37
  -4  -5   5 29966.3 1636.03  24
  -4  -5   5 24919.2 1297.53  23
   4   5  -5 29974.9 1316.92  36
  -4  -5   4 10514.1 836.315  23
   4   5  -4 10896.4 773.707  36
  -4  -5   4 10136.2 792.575  37
  -4  -5   3 95588.0 2285.22  37
  -4  -5   3 92576.8 2442.74  23
   4   5  -3 93671.6 2148.94  36
  -4  -5   2 4402.27 483.042  20
  -4  -5   2 3823.50 514.041  23
  -4  -5   1 39069.0 1478.59  20
  -4  -5   1 38462.0 1490.45  23
  -4  -5   0 15920.4 968.033  20
  -4  -5   0 17046.9 935.514  23
  -4  -5  -1 9359.34 727.234  20
  -4  -5  -2 12370.4 781.788  20
  -4  -5  -3 40693.2 1220.85  20
   4   6 -11 7019.33 327.342  15
   4   6 -11 6521.29 349.375  36
  -4  -6  10 114150. 2202.67  37
   4   6 -10 114494. 1939.07  22
   4   6 -10 115017. 1968.63  36
  -4  -6   9 47918.3 1597.92  37
   4   6  -9 45926.8 1317.08  22
   4   6  -9 45573.1 1412.40  36
  -4  -6   8 22496.5 1304.92  24
   4   6  -8 25598.8 1147.07  36
   4   6  -8 24516.6 983.667  22
   4   6  -7 93949.1 1869.03  22
  -4  -6   7 88008.5 2670.56  24
  -4  -6   7 93737.8 2421.30  37
   4   6  -7 93394.5 2252.87  36
  -4  -6   6 2575.41 379.823  13
  -4  -6   6 2940.71 550.121  24
  -4  -6   6 2912.69 460.233  37
   4   6  -6 2270.31 389.091  36
  -4  -6   5 10900.3 814.781  37
  -4  -6   5 12129.5 995.245  24
  -4  -6   5 9616.00 791.940  23
   4   6  -5 11214.9 789.815  36
  -4  -6   4 98289.7 2460.45  23
   4   6  -4 98124.6 2210.10  36
  -4  -6   4 96116.6 2262.42  37
  -4  -6   3 86981.0 2282.52  23
   4   6  -3 88365.8 1953.09  36
  -4  -6   2-131.901 209.339  20
  -4  -6   2 195.221 188.331  23
  -4  -6   1 82634.7 1930.11  20
  -4  -6   1 78776.1 1777.91  16
  -4  -6   1 78873.2 1953.03  23
  -4  -6   0 25807.7 1062.81  20
  -4  -6  -1 2371.33 315.444  20
  -4  -6  -2 18246.3 711.693  20
  -4  -7  10 21433.2 727.088  13
   4   7 -10 21347.4 644.433  36
  -4  -7   9 8476.58 521.214  13
   4   7  -9 8098.60 420.894  22
   4   7  -9 8111.42 504.011  36
  -4  -7   9 8094.83 548.619  37
  -4  -7   8 25474.6 915.600  13
  -4  -7   8 26333.7 1064.75  37
   4   7  -8 26031.4 983.550  36
   4   7  -8 26503.9 772.310  22
  -4  -7   7 4387.42 506.860  24
  -4  -7   7 4818.45 485.791  37
   4   7  -7 5552.37 493.769  36
  -4  -7   6 4278.27 531.243  24
  -4  -7   6 4575.35 478.731  37
   4   7  -6 4881.82 467.516  36
  -4  -7   5 18024.9 1038.17  24
  -4  -7   5 17473.4 863.432  37
   4   7  -5 18622.4 871.301  36
  -4  -7   4 66096.5 1935.01  24
   4   7  -4 63833.8 1502.03  36
  -4  -7   3 345.323 229.707  24
  -4  -7   3 244.018 153.954  23
   4   7  -3 727.906 171.816  36
  -4  -7   2 4509.44 391.524  16
  -4  -7   1 2451.99 260.377  20
  -4  -7   0 589.526 143.712  24
  -4  -7   0 678.835 142.346  20
  -4  -8   7 7594.72 420.412  16
   4   8  -7 7983.42 425.095  36
   4   8  -6 703.660 135.419  36
  -4  -8   6 683.869 170.649  24
  -4  -8   5 16974.1 678.244  16
  -4  -8   5 16191.0 720.032  24
   4   8  -5 17475.6 590.157  36
  -4  -8   4 56981.3 1152.20  16
  -4  -8   4 56992.6 1323.11  24
   5 -11  -3 105193. 1489.63  34
  -5  11   3 107017. 1539.93  33
   5 -11  -2 10799.9 577.661  34
  -5  11   2 11658.5 595.201  33
  -5  11   2 12148.0 622.391  22
  -5  11   1 5989.33 469.559  22
   5 -11  -1 6616.95 487.969  34
  -5  11   1 6127.39 468.628  33
   5 -11   0 23997.4 946.509  34
  -5  11   0 24016.8 936.871  33
  -5  11   0 24446.1 750.132  18
  -5  11   0 24784.9 949.999  22
   5 -11   1 26797.3 971.146  34
  -5  11  -1 27971.8 1002.11  33
  -5  11  -1 26682.0 849.670  18
   5 -11   1 26469.9 894.956  37
  -5  11  -1 27145.8 965.874  22
   5 -11   2 12.8446 99.3879  34
  -5  11  -2 157.055 116.224  33
  -5  11  -2 186.914 123.508  18
   5 -11   2 142.992 124.021  37
  -5  11  -2 49.8114 100.823  22
  -5  11  -3 27831.4 895.343  33
  -5  11  -3 26331.1 777.236  22
   5 -11   3 28165.2 973.664  37
  -5  11  -4 61701.2 1182.46  33
  -5  11  -4 61496.8 964.605   8
   5 -11   4 62614.1 1355.42  37
   5 -10  -5 6501.14 357.391  11
  -5  10   5 6871.09 469.237  33
  -5  10   5 7219.00 476.940  22
   5 -10  -4 19235.4 793.364  34
  -5  10   4 19371.6 914.514  33
  -5  10   4 20150.9 918.040  22
   5 -10  -3 55615.2 1567.81  34
  -5  10   3 58645.8 1726.39  33
  -5  10   3 59173.4 1704.44  22
   5 -10  -2 18019.8 970.295  34
  -5  10   2 18887.8 1036.64  33
  -5  10   2 17551.4 777.983  18
  -5  10   2 18326.2 1012.74  22
   5 -10  -1 283.985 172.833  34
  -5  10   1 74.5268 217.210  33
  -5  10   1 647.594 221.966  18
  -5  10   1 471.068 209.405  22
   5 -10   0 119889. 2563.35  34
  -5  10   0 127614. 2663.21  33
  -5  10   0 121596. 2359.60  18
   5 -10   0 121950. 2359.80  37
  -5  10   0 126087. 2635.51  22
   5 -10   1 19638.7 1010.23  34
  -5  10  -1 24296.0 1137.15  33
  -5  10  -1 21981.2 1031.72  18
   5 -10   1 21658.9 1056.82  37
  -5  10  -1 22550.6 1074.71  22
   5 -10   2 79688.7 1932.58  34
  -5  10  -2 76166.3 1837.97  22
  -5  10  -2 77932.8 1949.72  33
  -5  10  -2 80071.1 1949.82  18
   5 -10   2 81723.9 2087.57  37
  -5  10  -3 38270.4 1285.65  33
  -5  10  -3 37138.7 1299.43  18
   5 -10   3 37375.4 1183.26  34
   5 -10   3 38941.8 1427.65  37
  -5  10  -3 38210.8 1169.74  22
  -5  10  -4 19336.2 837.544  33
  -5  10  -4 19291.4 878.118  18
   5 -10   4 19283.5 968.969  37
  -5  10  -5 12987.7 599.295  33
  -5  10  -5 12548.9 573.062   8
   5 -10   5 12844.9 721.822  37
  -5  10  -6 15013.9 480.353  33
  -5  10  -6 15504.5 493.320  19
  -5  10  -6 16904.9 534.143   8
   5 -10   6 16873.5 671.140  37
   5  -9  -7 34291.1 917.764  11
  -5   9   7 36353.3 1078.64  33
  -5   9   6 780.925 257.145  33
   5  -9  -6 627.333 172.387  11
   5  -9  -5 67317.3 1563.07  34
   5  -9  -5 70653.5 1636.16  11
  -5   9   5 67621.2 2056.63  33
   5  -9  -5 69376.6 1764.04  25
   5  -9  -4 62432.4 1769.68  34
   5  -9  -4 61039.9 1553.95  11
  -5   9   4 62647.3 2117.26  33
   5  -9  -4 61448.3 1805.62  25
   5  -9  -3 3146.49 445.851  34
  -5   9   3 3187.83 481.362  33
   5  -9  -3 3637.16 458.214  25
   5  -9  -2 8285.63 741.412  34
  -5   9   2 9205.21 850.551  33
   5  -9  -2 9143.47 732.449  25
   5  -9  -1 2850.22 457.903  34
  -5   9   1 2694.47 469.881  33
   5  -9  -1 3154.44 423.017  25
   5  -9  -1 2796.87 405.083  37
  -5   9   0 8557.49 777.297  33
   5  -9   0 8270.47 647.857  25
  -5   9   0 8569.51 619.821  12
  -5   9   0 8323.52 751.620  22
   5  -9   0 8513.53 734.647  37
   5  -9   0 8195.22 735.236  34
   5  -9   1 13899.3 945.584  34
  -5   9  -1 13903.8 942.811  33
   5  -9   1 13893.1 955.793  37
  -5   9  -1 13364.1 824.006  12
  -5   9  -1 13853.7 911.520  22
   5  -9   2 14143.1 964.837  37
  -5   9  -2 13359.2 892.621  33
  -5   9  -2 14098.7 926.511  18
   5  -9   2 13872.5 897.827  34
  -5   9  -2 13202.7 849.822  12
  -5   9  -2 15034.5 884.342  22
   5  -9   3 12281.4 770.515  34
  -5   9  -3 13102.0 831.572  33
  -5   9  -3 13034.3 860.722  18
  -5   9  -3 12882.6 859.659  12
  -5   9  -3 13517.6 757.108  22
   5  -9   3 11566.8 896.101  37
  -5   9  -4 10.7594 179.558  12
  -5   9  -4 174.195 135.019  33
  -5   9  -4-42.0626 137.595  18
   5  -9   4 288.982 252.304  37
  -5   9  -5 389.232 156.197  33
  -5   9  -5 461.428 191.622   8
   5  -9   5 520.613 236.009  37
  -5   9  -6 6374.68 395.503  33
  -5   9  -6 6599.78 418.607  19
  -5   9  -6 6578.00 458.614   8
   5  -9   6 6941.29 550.146  37
  -5   9  -7 6960.23 334.965  19
  -5   9  -7 8032.37 404.372   8
   5  -8  -8 13156.2 652.178  11
  -5   8   8 14531.4 842.484  33
   5  -8  -7 30414.9 1131.24  11
  -5   8   7 30781.6 1427.39  33
   5  -8  -7 30432.8 1063.69  25
  -5   8   6-28.2339 259.219  33
   5  -8  -6 243.303 141.298  11
   5  -8  -6 47.5470 131.501  25
  -5   8   5 34416.6 1751.07  33
   5  -8  -5 34508.0 1315.07  11
   5  -8  -5 35239.4 1417.59  25
   5  -8  -5 35857.7 1337.95  34
  -5   8   5 35008.4 1316.79  21
   5  -8  -4 9987.05 771.034  34
  -5   8   4 10279.1 971.163  33
   5  -8  -4 10515.9 715.632  11
   5  -8  -4 10825.0 815.452  25
  -5   8   4 11049.6 795.929  21
  -5   8   3 8800.47 905.133  33
  -5   8   3 10145.9 792.716  21
   5  -8  -3 9373.70 763.440  25
   5  -8  -3 8584.77 742.557  34
   5  -8  -2 17557.1 1089.19  34
  -5   8   2 18609.3 1251.65  33
  -5   8   2 20632.0 1152.34  21
   5  -8  -2 18075.0 1031.78  25
   5  -8  -2 18176.8 969.941  37
  -5   8   1 13534.4 1026.08  33
   5  -8  -1 15779.9 940.898  25
   5  -8  -1 15582.1 1032.12  34
   5  -8  -1 16026.2 986.397  37
  -5   8   0 16591.8 1075.56  33
   5  -8   0 16620.4 913.834  25
   5  -8   0 15271.5 1007.44  34
   5  -8   0 15686.1 1017.75  37
  -5   8   0 17234.5 945.432  12
   5  -8   1 15726.0 1048.12  37
   5  -8   1 15464.5 1002.26  34
  -5   8  -1 15921.9 1011.82  33
  -5   8  -1 15829.3 958.813  22
  -5   8  -1 14991.5 923.821  12
   5  -8   2 15852.3 980.779  34
  -5   8  -2 15139.8 936.092  33
  -5   8  -2 16559.8 917.190  22
   5  -8   2 14915.6 1035.70  37
  -5   8  -2 15570.3 975.989  12
   5  -8   3 28932.3 1229.62  34
  -5   8  -3 28118.1 1218.01  33
  -5   8  -3 28426.9 1305.41  18
   5  -8   3 26274.0 1392.76  37
  -5   8  -3 27911.0 1323.66  12
  -5   8  -4 2517.81 424.473  12
  -5   8  -4 2413.17 349.635  33
  -5   8  -4 2248.27 378.338  18
   5  -8   4 1967.32 412.433  37
  -5   8  -5 19003.7 854.812  33
  -5   8  -5 17965.1 938.837  18
   5  -8   5 19386.2 1131.19  37
  -5   8  -5 19310.9 1043.49  12
  -5   8  -6 50393.3 1267.70  19
  -5   8  -6 52282.9 1466.67   8
   5  -8   6 54556.3 1686.50  37
  -5   8  -7 8486.65 449.193  19
  -5   8  -7 8897.72 523.695   8
  -5   8  -8 8386.40 385.792   8
   5  -7  -9 20421.3 837.020  11
   5  -7  -8 50114.0 1524.47  11
   5  -7  -8 47708.1 1274.72  25
   5  -7  -7 881.134 238.245  25
  -5   7   6 117611. 2621.83  21
   5  -7  -6 119944. 2585.85  17
   5  -7  -6 116045. 2572.96  25
  -5   7   5 30355.1 1401.24  21
   5  -7  -5 27470.2 1213.02  34
   5  -7  -5 27433.2 1295.85  25
  -5   7   4 5196.67 599.160  21
   5  -7  -4 4024.23 497.020  34
   5  -7  -4 3824.26 485.389  25
  -5   7   3 89069.1 2439.47  21
   5  -7  -3 92665.7 2388.87  34
  -5   7   3 94454.2 2339.54   2
   5  -7  -3 99044.9 2430.64  28
   5  -7  -3 92813.7 2303.58  25
  -5   7   2 709.170 236.314  21
   5  -7  -2 925.286 261.639  34
  -5   7   2 630.339 319.701  33
   5  -7  -2 953.380 263.341  28
   5  -7  -2 955.643 235.189  25
  -5   7   2 1050.15 264.818   2
  -5   7   1 10842.9 836.099  21
  -5   7   1 9795.97 683.623  12
   5  -7  -1 10207.0 803.718  34
  -5   7   1 10672.4 716.582   2
  -5   7   1 10518.9 883.505  33
   5  -7  -1 10355.8 752.639  28
   5  -7  -1 10385.7 718.092  25
  -5   7   0 1069.34 255.773  12
   5  -7   0 908.259 271.652  34
  -5   7   0 364.364 181.438   6
  -5   7   0 1106.81 287.275  33
   5  -7   0 856.235 204.758  28
   5  -7   1 111987. 2582.31  34
  -5   7  -1 117045. 2572.58  33
  -5   7  -1 113476. 2513.21  12
   5  -7   2 320374. 4299.31  34
  -5   7  -2 323283. 4105.83  33
  -5   7  -3 36797.3 1335.74  33
  -5   7  -3 36623.0 1450.77  18
   5  -7   3 35788.7 1606.62  37
  -5   7  -3 37171.5 1509.69  12
  -5   7  -4 24022.6 1146.30  18
   5  -7   4 25323.0 1360.66  37
  -5   7  -4 25262.8 1232.66  12
  -5   7  -5 604.708 242.354  12
  -5   7  -5 881.205 217.487  18
  -5   7  -5 896.477 243.960   8
   5  -7   5 1102.15 304.985  37
  -5   7  -6 22161.4 886.497  19
  -5   7  -6 23257.8 1057.00   8
  -5   7  -6 23157.7 1052.10  12
  -5   7  -7 5907.28 414.149  19
  -5   7  -7 6399.20 495.455   8
  -5   7  -8 7893.03 351.169  19
  -5   7  -8 8811.71 473.019   8
   5  -6 -10 757.630 189.681  11
   5  -6  -9 12833.3 755.806  17
  -5   6   8 29992.0 1319.04  21
   5  -6  -8 28265.5 1233.77  17
   5  -6  -8 29495.7 1142.64  25
  -5   6   7 36921.0 1575.04  21
   5  -6  -7 35187.1 1408.53  17
   5  -6  -7 35243.4 1380.57  25
  -5   6   6 4436.82 585.708  21
   5  -6  -6 3873.93 467.144  17
   5  -6  -6 3363.46 469.487  25
   5  -6  -6 3476.76 465.404  36
  -5   6   5 7733.70 761.286  21
   5  -6  -5 6438.55 573.310  34
  -5   6   5 7225.64 693.242   2
   5  -6  -5 7727.95 639.323  17
   5  -6  -5 7283.45 716.663  28
   5  -6  -5 6793.44 620.927  25
   5  -6  -5 7185.72 640.572  36
  -5   6   4 344417. 4787.60  21
   5  -6  -4 333681. 4181.56  34
  -5   6   4 334863. 4418.86   2
   5  -6  -4 328832. 3886.52  17
   5  -6  -4 346017. 4589.04  28
   5  -6  -4 334475. 4206.91  25
   5  -6  -4 338482. 4194.33  36
  -5   6   3 668.628 226.363   2
   5  -6  -3 1294.01 297.251  28
  -5   6   2 216737. 3174.17   2
   5  -6  -2 214085. 3204.90  28
  -5   6   1 50345.2 1427.80   2
   5  -6  -1 50726.9 1490.43  28
  -5   6   0 1472.41 321.166   6
   5  -6   1 146324. 2816.77  31
  -5   6  -1 144798. 2746.61   6
   5  -6   2 209992. 3300.84  34
   5  -6   2 206141. 3649.85  31
  -5   6  -2 213662. 3417.42  12
  -5   6  -2 209525. 3247.44   6
   5  -6   3 105335. 2795.00  31
  -5   6  -3 102032. 2270.51  18
   5  -6   3 103745. 2918.17  27
   5  -6   3 111835. 3012.38   3
  -5   6  -3 104869. 2443.87  12
  -5   6  -3 106103. 2296.87   6
  -5   6  -4 14123.0 827.158  18
   5  -6   4 15036.3 1055.87  37
  -5   6  -4 16108.5 973.959  12
  -5   6  -5 182.553 138.806  12
  -5   6  -5 134.195 141.622  19
  -5   6  -5 224.772 157.740   8
  -5   6  -6 276.529 157.178  12
  -5   6  -6 41.8146 117.847  19
  -5   6  -6 22.6098 165.191   8
  -5   6  -6 40.0617 129.404  14
  -5   6  -7-146.302 137.763  19
  -5   6  -7 102.867 155.106   8
  -5   6  -7 258.078 140.785  14
  -5   6  -8 14083.3 497.628  19
  -5   6  -8 15246.6 665.602   8
   5  -5 -11 33299.2 971.148  11
   5  -5 -11 32566.0 948.232  17
   5  -5 -10 70758.9 1724.88  17
  -5   5   9 59387.6 1990.80  21
   5  -5  -9 58955.3 1773.48  17
  -5   5   8 355941. 5147.03  21
   5  -5  -8 364598. 4528.06  17
   5  -5  -8 365674. 4206.34  25
   5  -5  -8 367787. 4434.07  36
  -5   5   7 8125.86 791.611  21
   5  -5  -7 8860.56 713.636  17
   5  -5  -7 10152.2 761.678  36
   5  -5  -7 7851.07 649.848  25
  -5   5   6 126086. 3071.82  21
  -5   5   6 132766. 2944.11   2
   5  -5  -6 127188. 2517.86  17
   5  -5  -6 121570. 3180.00  28
  -5   5   6 126467. 2858.60  26
   5  -5  -6 122520. 2563.08  25
   5  -5  -6 126282. 2602.03  36
  -5   5   5 252614. 3848.49   2
   5  -5  -5 259914. 4100.08  28
  -5   5   5 252380. 3713.63  26
   5  -5  -5 251744. 3509.62  36
  -5   5   4 103229. 2315.46   2
   5  -5  -4 104669. 2353.56  28
  -5   5   3 5834.46 520.917   2
   5  -5  -3 5753.20 514.983  28
  -5   5   2 423914. 4113.59   2
   5  -5  -2 430101. 4090.02  28
  -5   5   1 5532.69 448.621   2
   5  -5  -1 4764.42 458.426  29
  -5   5   0 34211.8 1372.08   6
   5  -5   0 31688.2 1183.08  31
   5  -5   0 31771.2 1434.30  27
  -5   5  -1 276411. 3777.28   6
   5  -5   1 280204. 3881.03  31
   5  -5   1 276819. 4486.43  27
   5  -5   2 3533.29 498.911  31
   5  -5   2 3249.16 518.685  27
  -5   5  -2 3467.28 431.775   6
   5  -5   3 22653.4 1298.39  31
  -5   5  -3 26291.9 1164.25   9
   5  -5   3 24593.9 1493.48  27
  -5   5  -3 25178.3 1092.73  14
  -5   5  -3 24401.7 1138.55   6
  -5   5  -3 24899.2 1138.78  12
  -5   5  -4 22628.7 1091.46  14
  -5   5  -4 22081.3 1078.23  12
  -5   5  -5 735.443 246.045  12
  -5   5  -5 773.155 256.473   8
  -5   5  -5 669.731 226.121  14
  -5   5  -6 5208.45 440.286  19
  -5   5  -6 5387.00 539.442   8
  -5   5  -6 5744.49 547.333  14
  -5   5  -7 7995.11 486.371  19
  -5   5  -7 7752.95 595.040   8
  -5   5  -7 9039.70 620.982  14
  -5   5  -8 89584.2 1636.57   8
  -5   5  -8 88065.4 1555.45  14
   5  -4 -12 13458.4 488.076  11
   5  -4 -12 13796.4 548.061  17
   5  -4 -11 115.696 141.555  17
  -5   4  10-211.305 263.304  21
   5  -4 -10 90.8173 171.279  17
   5  -4  -9 106331. 2443.40  17
   5  -4  -9 100144. 2248.93  36
   5  -4  -8 8990.52 717.442  17
   5  -4  -8 9412.59 738.007  36
   5  -4  -8 10236.8 707.212  25
   5  -4  -7 44306.2 1501.67  17
  -5   4   7 41192.8 1648.77   2
  -5   4   7 41911.7 1801.24  26
   5  -4  -7 44315.8 1548.03  36
   5  -4  -7 40670.5 1430.60  25
  -5   4   6 114369. 2610.89   2
  -5   4   6 113712. 2748.29  26
  -5   4   5 3325.31 428.594   2
   5  -4  -5 3088.84 410.787  29
   5  -4  -5 2204.72 400.894  28
  -5   4   5 2990.29 442.837  26
  -5   4   4 30613.6 1193.17   2
   5  -4  -4 28540.6 1167.35  29
   5  -4  -4 29757.8 1215.80  28
  -5   4   4 29047.4 1201.74  26
  -5   4   3 7711.03 573.039   2
   5  -4  -3 6961.68 560.488  29
   5  -4  -3 7011.86 525.154  28
   5  -4  -3 6487.70 541.074  27
   5  -4  -2 1108.54 238.768  29
   5  -4  -2 1157.09 207.996  28
   5  -4  -2 1153.91 333.045  27
  -5   4   2 1439.91 245.583   2
   5  -4  -1 6130.36 491.200  31
  -5   4   1 6432.49 442.593   2
   5  -4  -1 6297.50 492.067  29
   5  -4  -1 5822.38 620.104  27
  -5   4   0 216636. 3336.82   6
   5  -4   0 216372. 3163.79  31
   5  -4   0 221999. 2749.05  29
  -5   4  -1 161681. 2850.29   6
   5  -4   1 160636. 2978.96  31
   5  -4   1 164842. 3547.53  27
  -5   4  -2 2284.40 354.100   6
   5  -4   2 2485.24 425.898  31
   5  -4   2 2598.85 501.684  27
   5  -4   3 40998.0 1757.30  31
  -5   4  -3 40990.0 1360.23  30
  -5   4  -3 44010.1 1516.06   9
  -5   4  -3 43425.9 1414.07  12
   5  -4   3 42497.8 1992.78  27
  -5   4  -3 39510.3 1425.12  14
  -5   4  -3 40967.2 1486.47   6
  -5   4  -4 241661. 3796.17   9
  -5   4  -4 234373. 3437.33   8
  -5   4  -4 236328. 3662.46  14
  -5   4  -5 3531.25 500.198   9
  -5   4  -5 2795.67 410.298   8
  -5   4  -5 3593.44 480.158  14
  -5   4  -6 91522.5 2136.09   8
  -5   4  -6 92524.2 2278.75  14
  -5   4  -7 79215.7 1827.41   8
  -5   4  -7 77604.9 1907.40  14
  -5   4  -8 8931.21 539.795  14
  -5   3  12 29615.9 1214.09  21
   5  -3 -12 29590.9 949.361  17
   5  -3 -11 6314.35 550.463  17
   5  -3 -10 56604.8 1756.52  17
   5  -3 -10 54432.0 1560.23  36
   5  -3  -9 53242.8 1731.45  17
  -5   3   9 50011.5 2010.55  35
   5  -3  -9 52596.0 1671.59  36
   5  -3  -8 51683.3 1667.04  17
   5  -3  -8 48512.6 1666.65  15
  -5   3   8 51414.4 1856.68   2
  -5   3   8 53787.9 2237.44  26
   5  -3  -8 52179.5 1563.87  25
   5  -3  -8 52369.4 1680.83  36
  -5   3   8 53900.5 2082.29  35
   5  -3  -7 96849.5 2096.99  17
  -5   3   7 94612.0 2397.79   2
   5  -3  -7 91649.5 2166.60  15
  -5   3   7 96405.9 2822.88  26
   5  -3  -7 94190.6 2187.08  36
   5  -3  -6 62029.2 1749.62  29
  -5   3   6 60565.8 1820.87   2
   5  -3  -5 19784.2 959.770  29
  -5   3   5 20329.8 993.503   2
   5  -3  -5 16268.0 1050.19  28
   5  -3  -5 19605.1 900.193  27
  -5   3   5 18621.7 1089.42  26
   5  -3  -4 1018.68 236.411  29
   5  -3  -4 974.402 219.672  28
  -5   3   4 1074.28 289.615  26
  -5   3   4 1408.77 257.129   2
   5  -3  -3 80803.4 1805.15  29
  -5   3   3 79211.3 1712.97   2
   5  -3  -3 72878.3 1660.46  28
   5  -3  -3 74670.0 2004.83  27
  -5   3   3 75753.2 1916.38  26
   5  -3  -2 1051.80 228.774  29
   5  -3  -2 1109.45 316.272  27
  -5   3   2 1049.18 212.634   2
  -5   3   1 17412.7 952.205   6
   5  -3  -1 14945.8 740.192  29
   5  -3  -1 16305.8 1063.46  27
  -5   3   1 14955.5 631.923   2
  -5   3   0 334908. 4001.09   6
   5  -3   0 326508. 4950.61  27
  -5   3  -1 67088.6 1794.59   6
   5  -3   1 62100.1 1928.47  31
  -5   3  -1 65717.5 1526.13  30
   5  -3   1 67895.3 2361.74  27
   5  -3   2 13893.9 987.781  31
  -5   3  -2 13891.0 778.258  30
   5  -3   2 13808.0 1135.27  27
  -5   3  -2 14267.4 858.257   6
   5  -3   3 11367.6 949.147  31
  -5   3  -3 10915.2 752.588  30
  -5   3  -3 12321.8 825.233   9
   5  -3   3 11132.6 1050.04  27
  -5   3  -3 11533.9 697.527   8
  -5   3  -3 11835.3 815.472  14
  -5   3  -3 13264.2 852.490   6
  -5   3  -4 311.206 220.722   9
  -5   3  -4 267.527 157.636   8
  -5   3  -4 131.782 188.113  14
  -5   3  -5 11890.8 898.666   9
  -5   3  -5 10927.9 749.476   8
  -5   3  -5 11957.1 869.627  14
  -5   3  -6 4998.81 571.904   9
  -5   3  -6 5154.71 507.127   8
  -5   3  -6 4629.26 537.408  14
  -5   3  -7 41772.3 1414.74  14
  -5   3  -8 1007.95 207.752  14
   5  -2 -13 15128.7 547.030  17
   5  -2 -12 7347.12 528.210  17
  -5   2  11 3911.07 608.710  35
   5  -2 -11 4914.31 517.651  17
   5  -2 -10 49048.7 1658.19  17
   5  -2 -10 46082.8 1674.51  15
   5  -2 -10 49526.9 1553.81  36
  -5   2  10 50989.6 2158.68  35
  -5   2   9 4499.51 676.539  35
   5  -2  -9 3132.83 464.542  15
   5  -2  -9 3280.02 435.568  36
   5  -2  -8 34267.6 1358.53  36
   5  -2  -8 36194.7 1394.18  15
  -5   2   8 34472.2 1492.44   2
  -5   2   8 36214.3 1926.07  26
   5  -2  -8 35002.5 1266.47  25
  -5   2   8 32742.4 1676.21  35
   5  -2  -7 220542. 3241.04  29
   5  -2  -7 229817. 3312.57  27
  -5   2   7 221315. 3600.80   2
  -5   2   7 218734. 4409.82  26
   5  -2  -6 7778.44 606.202  29
  -5   2   6 8262.04 678.084   2
   5  -2  -6 7569.93 613.103  27
  -5   2   6 8647.49 854.617  26
   5  -2  -5 84059.3 1930.54  29
  -5   2   5 87046.1 2002.64   2
   5  -2  -5 86011.8 2058.16  27
  -5   2   5 82170.4 2401.86  26
   5  -2  -4 5857.63 501.968  29
  -5   2   4 4998.95 451.147   2
   5  -2  -4 4951.08 530.854  27
  -5   2   4 5490.16 617.191  26
   5  -2  -3 22683.6 956.770  29
   5  -2  -3 24036.2 1214.46  27
  -5   2   3 24105.1 938.212   2
  -5   2   3 23053.4 1116.32  26
  -5   2   2 21924.3 913.897  32
   5  -2  -2 20643.8 893.835  29
   5  -2  -2 20849.7 1186.09  27
  -5   2   2 20841.7 806.995   2
  -5   2   2 23983.4 966.509  26
  -5   2   1 11754.7 736.073   6
  -5   2   1 10902.9 585.509  32
   5  -2  -1 11723.0 661.723  29
   5  -2  -1 11243.6 913.734  27
  -5   2   1 10676.3 540.686   2
  -5   2   0 9618.43 660.020   6
   5  -2   0 9987.89 596.286  29
   5  -2   0 8725.26 854.476  27
  -5   2  -1 202968. 2891.22  30
   5  -2   1 212005. 4292.67  27
  -5   2  -1 207382. 3110.88   6
   5  -2   2 3515.06 547.806  31
  -5   2  -2 3257.92 411.213  30
   5  -2   2 3701.17 616.982  27
  -5   2  -2 3519.66 440.085   6
  -5   2  -3 10915.2 798.797  20
   5  -2   3 11723.4 1036.24  31
  -5   2  -3 12460.4 835.297  30
  -5   2  -3 12480.8 862.826   9
   5  -2   3 11534.5 1093.75  27
  -5   2  -3 11950.3 676.299   8
  -5   2  -3 12868.5 876.570  14
  -5   2  -3 12906.8 852.702   6
  -5   2  -4 4357.34 545.280  20
  -5   2  -4 4428.65 561.629   9
  -5   2  -4 4011.89 426.858   8
  -5   2  -4 3502.30 484.700  14
  -5   2  -5 1797.96 377.578   9
  -5   2  -5 2450.42 356.514   8
  -5   2  -5 2440.94 420.316  14
  -5   2  -6 16100.0 975.673   9
  -5   2  -6 16320.4 963.528  14
  -5   2  -7 26589.9 1074.62  14
  -5   2  -8 20175.2 718.344  14
   5  -1 -13 1769.66 223.564  17
   5  -1 -12 2081.73 319.753  17
  -5   1  12 2574.60 493.020  35
   5  -1 -11 36139.0 1397.96  15
   5  -1 -11 35930.0 1192.75  36
  -5   1  11 34735.5 1821.21  35
   5  -1 -10 48618.3 1666.26  15
   5  -1 -10 46179.3 1545.06  36
  -5   1  10 46658.9 2167.65  35
  -5   1   9 4208.58 658.782  35
   5  -1  -9 5450.12 582.388  15
   5  -1  -9 5467.44 560.458  36
   5  -1  -8 122719. 2499.95  15
   5  -1  -8 128963. 2686.93  27
  -5   1   8 124060. 3698.15  26
  -5   1   8 115353. 2722.22   2
   5  -1  -8 123542. 2571.59  36
  -5   1   8 119633. 3255.15  35
   5  -1  -7 138632. 2517.28  29
   5  -1  -7 144054. 2770.96  27
  -5   1   7 139181. 3707.80  26
  -5   1   7 138311. 2847.23   2
   5  -1  -6 33432.9 1241.51  29
   5  -1  -6 32606.8 1325.73  27
  -5   1   6 34384.3 1763.28  26
  -5   1   6 34728.4 1355.10   2
   5  -1  -5 3824.17 400.429   1
   5  -1  -5 3849.69 430.713  29
   5  -1  -5 3549.66 462.547  27
  -5   1   5 4088.90 452.386   2
  -5   1   5 3885.48 589.215  26
   5  -1  -4 222437. 3092.52  29
   5  -1  -4 223236. 3594.31  27
  -5   1   4 221913. 3057.28   2
   5  -1  -3 133752. 2356.79  29
   5  -1  -3 131891. 2928.93  27
  -5   1   3 129279. 2679.42  26
  -5   1   3 133036. 2264.36   2
  -5   1   2 111571. 2136.15   6
  -5   1   2 115793. 2356.59  32
   5  -1  -2 105006. 2081.33  29
   5  -1  -2 108239. 2768.64  27
  -5   1   2 113705. 2223.11  26
  -5   1   1 112642. 2113.12   6
  -5   1   1 117168. 2244.60  32
   5  -1  -1 113996. 2150.84  29
   5  -1  -1 108774. 2909.82  27
  -5   1   0 74198.0 1759.79  32
   5  -1   0 74989.5 1705.63  29
   5  -1   0 73100.5 2491.80  27
  -5   1   0 71523.8 1722.65   6
  -5   1  -1 4043.15 429.222  32
   5  -1   1 4031.62 402.169  29
   5  -1   1 3630.62 610.924  27
  -5   1  -1 3520.05 409.944   6
  -5   1  -2 70774.9 1977.83  20
  -5   1  -2 67088.5 1759.05  32
   5  -1   2 70381.9 2596.20  27
  -5   1  -2 69880.9 1963.99  14
  -5   1  -2 67885.8 1847.30   6
  -5   1  -3 39180.0 1541.37  20
   5  -1   3 38151.7 1967.05  31
   5  -1   3 40154.2 1994.15  27
  -5   1  -3 37701.2 1511.41  14
  -5   1  -3 39513.9 1456.95   6
  -5   1  -4 872.252 264.788  20
  -5   1  -4 594.958 290.050   9
  -5   1  -4 945.917 239.043  14
  -5   1  -5 31624.3 1309.91  20
  -5   1  -5 31247.2 1390.98   9
  -5   1  -5 33116.9 1410.14  14
  -5   1  -6 61179.8 1761.79   9
  -5   1  -6 58881.7 1724.22  14
  -5   1  -7 19712.9 827.218  14
   5   0 -13 8645.36 484.864  17
  -5   0  13 10396.7 813.702  35
  -5   0  12 2961.82 544.328  35
   5   0 -12 2900.71 397.286  15
   5   0 -11 179.205 202.661  15
  -5   0  11-118.294 354.659  35
   5   0 -11 70.6114 113.377  36
   5   0 -10 56140.9 1795.75  15
   5   0 -10 53540.3 1688.18  36
  -5   0  10 51647.8 2302.45  35
   5   0  -9 10226.7 761.526  15
   5   0  -9 9373.48 736.192  36
  -5   0   9 9196.02 1001.60  35
  -5   0   8 178322. 3827.92   5
   5   0  -8 168863. 2898.35  15
   5   0  -8 174190. 3244.24  27
  -5   0   8 166272. 4374.24  26
   5   0  -8 167876. 3039.15  36
  -5   0   8 168177. 3885.44  35
  -5   0   7 13385.1 1020.12   5
   5   0  -7 13544.4 792.190  29
   5   0  -7 13576.5 896.413  27
  -5   0   7 13402.6 1208.71  26
  -5   0   6 16714.8 1092.38   5
   5   0  -6 15207.3 825.250   1
   5   0  -6 16423.8 886.472  29
   5   0  -6 15019.7 940.365  27
  -5   0   6 16770.5 1287.82  26
   5   0  -5 54687.2 1598.38   1
   5   0  -5 52639.4 1578.46  29
   5   0  -5 52894.6 1767.99  27
  -5   0   5 54080.5 2113.81  26
   5   0  -4 161547. 2729.22  29
   5   0  -4 159130. 3122.11  27
  -5   0   4 152644. 3283.27  26
   5   0  -4 154784. 2795.04   1
  -5   0   3 6602.40 488.288   6
  -5   0   3 6056.68 667.774  32
   5   0  -3 5242.70 501.133  29
   5   0  -3 5512.60 638.168  27
  -5   0   3 5280.20 581.516  26
  -5   0   2 198817. 2557.59   6
  -5   0   2 206283. 3438.28  32
   5   0  -2 200705. 3032.22  29
   5   0  -2 203788. 3872.67  27
  -5   0   1 12068.9 807.617  32
   5   0  -1 12489.3 763.424  29
   5   0  -1 12314.5 1014.10  27
  -5   0   1 12191.0 653.819   6
  -5   0   0 20379.4 1037.71  32
   5   0   0 21255.9 974.117  29
   5   0   0 20770.9 1356.89  27
  -5   0   0 20363.3 884.586   6
  -5   0  -1 62553.0 1833.87  20
  -5   0  -1 62505.9 1832.92  32
   5   0   1 61967.7 2397.63  27
  -5   0  -1 63397.7 1645.18   6
  -5   0  -2 18240.8 1058.12  20
  -5   0  -2 18386.0 1009.06  32
  -5   0  -2 16820.9 891.991   6
   5   0   2 17428.6 1287.30  27
  -5   0  -2 18294.0 1024.40  14
  -5   0  -3 496.421 241.618  20
  -5   0  -3 541.486 190.487  10
  -5   0  -3-111.559 138.521  14
  -5   0  -4 47671.4 1697.24  20
  -5   0  -4 47403.6 1459.72  10
  -5   0  -4 45749.7 1696.87   9
  -5   0  -4 46309.7 1635.97  14
  -5   0  -5 20783.2 1032.83  20
  -5   0  -5 18266.9 833.511  10
  -5   0  -5 21497.6 1099.37   9
  -5   0  -5 21694.4 1064.30  14
  -5   0  -6 8061.48 589.551   9
  -5   0  -6 8077.06 560.678  14
  -5   0  -7 2747.90 234.185  14
   5   1 -13 23103.9 782.408  17
   5   1 -13 22494.0 793.848  15
  -5  -1  12 550.965 347.217  35
   5   1 -12 264.715 179.610  15
   5   1 -11 9780.75 734.398  15
   5   1 -11 9627.52 657.968  36
  -5  -1  11 11195.4 1087.08  35
   5   1 -10 34647.5 1374.13  36
   5   1 -10 36589.1 1431.39  15
  -5  -1  10 33927.3 1871.02  35
   5   1  -9 55889.8 1736.90  15
   5   1  -9 57514.0 1834.16  36
  -5  -1   9 53080.6 2303.88  35
  -5  -1   8 104634. 2958.15   5
   5   1  -8 97128.2 2166.45  15
   5   1  -8 107200. 2609.27  27
  -5  -1   8 100467. 3367.72  26
  -5  -1   8 98625.6 2417.73  37
   5   1  -8 97664.7 2242.64  22
   5   1  -8 99872.8 2379.51  36
  -5  -1   8 95008.1 2962.61  35
  -5  -1   7 172524. 3134.18  37
  -5  -1   7 176024. 3703.58   5
   5   1  -7 171061. 2855.02  29
   5   1  -7 172868. 3268.87  27
  -5  -1   7 167654. 4197.16  26
   5   1  -7 172837. 2758.06  22
   5   1  -7 169024. 2979.25  36
  -5  -1   7 163369. 3660.02  35
  -5  -1   6 174.876 165.722   5
   5   1  -6 163.765 154.027  29
   5   1  -6 269.498 214.335  27
  -5  -1   6 85.7652 255.867  26
   5   1  -6 218.440 145.098   1
   5   1  -5 54208.0 1740.36   1
   5   1  -5 53807.2 1666.75  29
   5   1  -5 57373.8 1894.23  27
  -5  -1   5 53133.7 2098.82  26
   5   1  -4 261242. 3871.53   1
  -5  -1   4 244959. 4589.53  32
   5   1  -4 253242. 3586.70  29
   5   1  -4 257362. 4034.62  27
  -5  -1   4 251063. 4249.12  26
   5   1  -3 141295. 2909.73   1
  -5  -1   3 141130. 3225.51  32
   5   1  -3 143049. 2731.70  29
   5   1  -3 137875. 3086.32  27
  -5  -1   2 364037. 4888.20  32
   5   1  -2 353006. 4302.45  29
   5   1  -2 366566. 5173.53  27
   5   1  -2 355625. 4662.10   1
  -5  -1   1 84252.1 2288.89  32
   5   1  -1 81864.5 2063.39  29
   5   1  -1 80264.3 2505.44  27
   5   1  -1 80829.4 2249.57   1
  -5  -1   0 20778.8 1064.64  20
  -5  -1   0 19567.0 1100.62  32
   5   1   0 22110.5 1068.97  29
   5   1   0 21609.3 1339.76  27
   5   1   0 22131.2 1191.91   1
  -5  -1  -1 1570.97 362.737  20
  -5  -1  -1 829.460 268.856  32
   5   1   1 1081.90 308.269   1
  -5  -1  -1 752.735 221.754  14
  -5  -1  -2 56750.4 1903.44  20
  -5  -1  -2 55920.4 1700.27  10
  -5  -1  -2 56143.5 1720.98  14
  -5  -1  -3 24057.2 1246.80  20
  -5  -1  -3 23684.7 1102.02  10
  -5  -1  -3 24910.3 1133.69  14
  -5  -1  -4 59742.1 1840.68  20
  -5  -1  -4 58538.8 1636.82  10
  -5  -1  -4 59300.7 1837.16   9
  -5  -1  -4 59745.5 1655.96  14
  -5  -1  -5 45045.5 1386.10  20
  -5  -1  -5 47316.2 1442.63   9
  -5  -1  -5 45994.5 1263.80  14
  -5  -1  -6 2752.23 277.768   9
  -5  -2  13 1481.46 309.898  35
   5   2 -13 1884.18 241.554  15
   5   2 -12 79411.8 1740.14  15
   5   2 -12 74216.5 1394.00  36
  -5  -2  12 79903.0 2445.64  35
   5   2 -11 49653.7 1545.32  15
   5   2 -11 49374.1 1464.32  36
  -5  -2  11 50440.8 2136.99  35
   5   2 -10 148720. 2778.25  15
   5   2 -10 147471. 2861.74  36
  -5  -2  10 152926. 3831.32  35
   5   2  -9 173979. 2961.40  15
   5   2  -9 176992. 3107.90  22
   5   2  -9 167099. 3162.13  36
  -5  -2   9 170515. 3289.12  37
  -5  -2   9 165053. 3964.33  35
   5   2  -8 90549.1 2150.29  22
   5   2  -8 94891.2 2068.43  15
   5   2  -8 91043.3 2325.20  36
  -5  -2   8 91005.8 2872.42  35
  -5  -2   8 91807.5 2445.49  37
  -5  -2   7 5516.37 601.662  37
  -5  -2   7 5976.56 711.700   5
   5   2  -7 6857.48 594.259  29
   5   2  -7 6686.63 555.953  22
   5   2  -7 7391.84 694.426  27
  -5  -2   7 5642.74 778.202  26
   5   2  -7 6020.41 600.737   1
  -5  -2   7 7118.92 901.887  24
   5   2  -7 7036.97 641.798  36
  -5  -2   7 6886.85 766.424  35
  -5  -2   6 152850. 3401.13   5
   5   2  -6 157784. 2919.89  29
   5   2  -6 164080. 3150.72   1
   5   2  -6 161689. 3172.53  27
  -5  -2   6 162743. 3833.52  26
  -5  -2   6 152023. 3035.80  37
  -5  -2   6 164805. 3836.10  24
   5   2  -6 163126. 2920.89  36
  -5  -2   6 161431. 3387.06  35
  -5  -2   5 130987. 3629.64  32
   5   2  -5 131335. 2891.57   1
   5   2  -5 127628. 2673.10  29
   5   2  -5 129753. 2867.47  27
  -5  -2   5 138328. 3226.47  24
  -5  -2   5 131525. 2758.90  37
  -5  -2   4 6136.33 750.334  32
   5   2  -4 5839.43 637.149   1
   5   2  -4 5678.82 591.441  29
   5   2  -4 6206.41 655.991  27
   5   2  -3 49396.2 1827.63   1
  -5  -2   3 53833.0 2045.24  32
   5   2  -3 50098.1 1722.52  29
   5   2  -3 49441.1 1800.66  27
   5   2  -2 236306. 3973.35   1
  -5  -2   2 234680. 4138.15  32
   5   2  -2 243977. 3792.70  29
   5   2  -2 242154. 4026.47  27
  -5  -2   1 72334.9 1960.37  20
   5   2  -1 67716.9 2121.62   1
  -5  -2   1 74219.5 2284.71  32
   5   2  -1 74005.7 2084.65  29
  -5  -2   1 73768.5 1961.76  16
   5   2  -1 72693.1 2246.42  27
  -5  -2   0 50008.7 1733.46  20
   5   2   0 48018.2 1747.08   1
  -5  -2   0 49770.3 1563.60  16
  -5  -2  -1 1917.48 379.572  20
  -5  -2  -2 73915.9 2178.52  20
  -5  -2  -3 397.204 219.007  20
  -5  -2  -4 44861.4 1462.34  20
  -5  -2  -4 42727.0 1381.09   9
  -5  -2  -5 44755.5 1166.88  20
  -5  -2  -5 44040.8 1083.67   9
   5   3 -13 21090.5 647.378  15
  -5  -3  13 22720.5 949.055  35
  -5  -3  12 24257.3 1224.01  35
   5   3 -12 24060.9 880.708  15
   5   3 -12 22509.5 724.121  36
   5   3 -11 4685.91 448.522  15
   5   3 -11 4256.18 430.472  36
  -5  -3  11 4386.17 626.194  35
   5   3 -10 72963.5 1958.73  36
   5   3 -10 72241.1 1789.14  15
  -5  -3  10 70629.5 2452.12  35
  -5  -3   9 1565.13 468.592  35
   5   3  -9 1591.65 302.648  15
   5   3  -9 1320.72 295.290  22
   5   3  -9 1074.87 279.086  36
  -5  -3   9 1205.66 325.557  37
  -5  -3   8 2827.68 489.388  35
   5   3  -8 2810.58 380.709  22
  -5  -3   8 2357.00 436.417  37
   5   3  -8 2542.10 423.974  36
  -5  -3   7 4308.35 563.829  37
  -5  -3   7 4445.81 713.660  24
   5   3  -7 4266.39 446.327  22
   5   3  -7 3911.12 491.959  36
   5   3  -6 1584.16 343.708  29
   5   3  -6 2032.45 368.370  27
  -5  -3   6 2349.53 511.203  24
  -5  -3   6 2092.15 419.584  37
   5   3  -6 2583.10 398.320  36
  -5  -3   5 19935.1 1367.44  32
   5   3  -5 18149.7 1061.19  29
   5   3  -5 18628.4 1055.52  27
   5   3  -5 19992.3 1183.25   1
  -5  -3   5 17842.0 1091.10  37
  -5  -3   5 22156.1 1355.40  24
  -5  -3   5 17532.5 1154.30  13
   5   3  -5 18990.1 1010.61  36
  -5  -3   4 16513.3 1016.38  37
  -5  -3   4 18315.8 1248.72  32
   5   3  -4 17967.8 1073.24  29
   5   3  -4 17320.0 1115.46   1
   5   3  -4 16023.9 976.891  27
  -5  -3   4 20685.1 1267.20  24
   5   3  -4 18208.3 938.629  36
  -5  -3   3 1060.26 304.131  32
   5   3  -3 2265.03 408.448  29
  -5  -3   3 1104.80 295.911  23
  -5  -3   3 1431.25 316.816  37
  -5  -3   3 1068.06 273.337  13
   5   3  -3 1666.93 374.649   1
  -5  -3   2 6631.91 608.484  20
  -5  -3   2 5760.83 590.806  23
  -5  -3   1 2732.25 430.587  20
  -5  -3   1 2274.97 372.431  16
  -5  -3   0 16199.6 999.506  20
  -5  -3   0 16721.5 901.027  16
  -5  -3  -1 3099.55 470.151  20
  -5  -3  -2 225.873 190.386  20
  -5  -3  -3 24573.2 1085.71  20
  -5  -3  -3 22586.6 981.233   9
  -5  -3  -4 19128.6 802.274  20
  -5  -3  -4 19185.5 698.904   9
   5   4 -12 59762.5 1131.47  15
  -5  -4  12 60019.0 1595.31  13
   5   4 -12 55139.0 962.911  36
  -5  -4  12 57243.8 1464.73  35
   5   4 -11 61284.7 1338.73  15
   5   4 -11 59305.7 1439.32  36
  -5  -4  11 58260.2 1754.56  35
   5   4 -10 19799.4 814.051  15
  -5  -4  10 19662.3 1033.80  37
   5   4 -10 17515.5 873.449  22
   5   4 -10 17087.7 897.479  36
  -5  -4  10 18520.7 1082.62  35
  -5  -4   9 14382.3 955.195  37
   5   4  -9 13191.1 774.188  22
   5   4  -9 13023.6 855.460  36
  -5  -4   9 13073.4 933.074  35
  -5  -4   8 24.4086 188.933  37
  -5  -4   8 188.244 330.328  24
   5   4  -8 26.5134 118.761  22
   5   4  -8 192.403 218.972  36
  -5  -4   7 151.967 325.702  24
  -5  -4   7-103.402 165.332  37
   5   4  -7 189.762 199.234  36
  -5  -4   6 5988.62 773.847  24
  -5  -4   6 5080.06 606.965  37
  -5  -4   6 4786.46 627.759  13
   5   4  -6 6303.63 615.964  36
  -5  -4   5 7685.66 728.307  37
  -5  -4   5 7991.04 852.517  24
  -5  -4   5 8463.74 797.227  13
   5   4  -5 8242.57 667.435  36
  -5  -4   4 22515.3 1179.10  37
  -5  -4   4 24746.0 1400.10  24
  -5  -4   4 22718.9 1184.19  13
   5   4  -4 24406.6 1092.00  36
  -5  -4   3 181224. 3380.25  23
  -5  -4   2 8277.50 660.809  20
  -5  -4   2 6664.26 645.545  23
  -5  -4   1 69197.8 1937.51  20
  -5  -4   1 67666.2 1857.54  16
  -5  -4   0 9483.32 745.055  20
  -5  -4  -1 31251.8 1263.31  20
  -5  -4  -2 683.392 221.063  20
  -5  -4  -3 4039.43 364.471  20
  -5  -4  -3 3972.90 296.805   9
  -5  -5  11 11672.2 725.804  13
   5   5 -11 10866.6 527.322  36
  -5  -5  10 8317.46 702.453  13
   5   5 -10 7799.14 550.021  36
  -5  -5   9 29652.9 1385.22  13
   5   5  -9 30598.0 1021.43  22
   5   5  -9 30787.9 1200.63  36
  -5  -5   9 28989.0 1244.08  37
  -5  -5   8-121.839 238.229  24
  -5  -5   8-62.7305 175.777  37
   5   5  -8-134.438 119.485  22
  -5  -5   8 48.1947 206.144  13
   5   5  -8-254.306 217.629  36
  -5  -5   7 13054.3 1049.79  24
  -5  -5   7 13824.0 946.727  37
  -5  -5   7 14221.9 974.015  13
   5   5  -7 13493.5 862.540  36
  -5  -5   6 21198.0 1320.81  24
  -5  -5   6 21660.1 1160.73  37
  -5  -5   6 22985.8 1192.58  13
   5   5  -6 23455.1 1115.56  36
  -5  -5   5 256.331 262.112  24
  -5  -5   5-133.404 196.420  37
   5   5  -5 272.188 133.999  36
  -5  -5   4 13957.7 1031.17  24
   5   5  -4 14292.2 793.533  36
  -5  -5   3 180970. 3474.39  24
  -5  -5   2-68.8647 170.593  20
  -5  -5   2 846.824 250.103  16
  -5  -5   1 791.563 225.515  20
  -5  -5   1 778.043 215.037  16
  -5  -5   0 10450.5 664.164  20
  -5  -5   0 10123.1 625.692  24
  -5  -5  -1 21501.1 854.508  20
  -5  -5  -2 2196.79 240.496  20
  -5  -6  10 16285.4 723.977  13
   5   6 -10 16063.9 634.507  36
  -5  -6   9 8701.44 458.670  16
  -5  -6   9 7796.24 553.840  13
   5   6  -9 7975.36 525.955  36
  -5  -6   8 734.388 199.914  16
  -5  -6   8 667.050 233.531  37
  -5  -6   8 583.388 211.823  13
   5   6  -8 406.370 165.372  36
  -5  -6   7 40841.2 1558.02  24
  -5  -6   7 41441.3 1398.50  37
  -5  -6   7 38462.3 1206.64  13
   5   6  -7 41579.0 1304.33  36
  -5  -6   6 43572.9 1632.41  24
  -5  -6   6 43873.5 1434.50  37
   5   6  -6 46735.8 1372.60  36
  -5  -6   5 10704.7 814.594  24
   5   6  -5 10952.2 636.345  36
  -5  -6   4 156967. 2647.78  16
  -5  -6   4 157756. 2964.57  24
   5   6  -4 159286. 2169.08  36
  -5  -6   3 29508.3 1081.03  16
  -5  -6   3 31095.4 1241.09  24
  -5  -6   2 24312.2 849.296  16
  -5  -6   2 25166.5 1026.22  24
  -5  -6   1 34190.3 887.570  20
  -5  -6   1 35022.5 1028.97  24
  -5  -6   0 246.593 103.750  20
  -5  -7   8 4347.24 291.479  16
   5   7  -8 4699.52 323.778  36
  -5  -7   7 36226.9 957.238  16
   5   7  -7 35145.5 894.543  36
  -5  -7   6 2098.03 264.484  16
  -5  -7   6 1884.12 281.399  24
   5   7  -6 2017.88 217.839  36
  -5  -7   5 4407.62 363.595  16
  -5  -7   5 4006.89 395.819  24
   5   7  -5 4370.53 274.559  36
  -5  -7   4 38708.8 961.717  16
  -5  -7   4 37472.2 1093.52  24
  -5  -7   3 14993.2 486.470  16
  -5  -7   3 14955.3 619.651  24
   6 -11  -3 9203.91 455.034  34
  -6  11   3 9723.20 493.838  33
  -6  11   3 9912.03 504.926  22
   6 -11  -2 30552.6 948.705  34
  -6  11   2 31870.7 966.409  33
  -6  11   2 30049.7 694.248  18
  -6  11   2 31956.1 968.820  22
   6 -11  -1 1080.93 206.390  34
  -6  11   1 756.439 184.493  33
  -6  11   1 894.051 150.793  18
  -6  11   1 775.485 180.757  22
  -6  11   0 37947.6 1082.57  33
  -6  11   0 37689.3 995.612  18
   6 -11   0 36314.0 1098.10  34
  -6  11   0 36775.6 1016.23  22
   6 -11   0 36222.2 930.180  37
   6 -11   1 5658.81 415.323  34
  -6  11  -1 5293.74 397.788  33
  -6  11  -1 5244.45 386.192  18
   6 -11   1 4608.66 376.742  37
  -6  11  -1 5249.55 353.333  22
   6 -11   2 310.325 108.825  34
  -6  11  -2 329.078 116.342  33
  -6  11  -2 130.798 95.8440  18
   6 -11   2 328.428 150.784  37
  -6  11  -3 18860.8 572.346  33
   6 -11   3 20345.2 734.175  37
  -6  10   5 15527.5 746.347  33
  -6  10   5 15591.1 732.197  22
   6 -10  -4 14019.5 692.229  34
  -6  10   4 15100.2 822.511  33
   6 -10  -4 14688.5 730.397  25
   6 -10  -3 39463.7 1311.37  34
  -6  10   3 41079.3 1399.80  22
  -6  10   3 39664.4 1408.71  33
   6 -10  -3 40268.7 1273.71  25
   6 -10  -2 19052.8 973.673  34
  -6  10   2 19413.3 1006.41  33
   6 -10  -2 19071.9 878.299  25
  -6  10   2 18053.5 960.100  22
   6 -10  -1 33414.0 1318.09  34
  -6  10   1 31556.4 1263.98  33
  -6  10   1 31859.3 1206.77  18
   6 -10  -1 33635.2 1115.45  25
   6 -10  -1 31082.1 1114.32  37
  -6  10   1 32356.8 1262.74  22
   6 -10   0 18023.3 968.700  34
  -6  10   0 17804.8 922.651  33
  -6  10   0 18631.4 941.353  18
   6 -10   0 17512.2 920.842  37
  -6  10   0 16268.7 736.939  12
  -6  10   0 17255.0 880.810  22
  -6  10  -1 1307.65 255.917  12
   6 -10   1 1117.97 242.316  34
  -6  10  -1 1180.65 275.216  33
  -6  10  -1 1213.16 262.354  18
   6 -10   1 1272.84 293.879  37
  -6  10  -1 1404.12 252.026  22
   6 -10   2 5062.66 459.500  34
  -6  10  -2 4579.36 425.310  33
  -6  10  -2 5346.35 489.217  18
   6 -10   2 4903.22 505.750  37
  -6  10  -2 4746.58 449.049  12
  -6  10  -3 88665.0 1616.37  33
  -6  10  -3 93644.6 1858.87  18
   6 -10   3 94565.8 2047.65  37
  -6  10  -4 11668.2 480.108  33
  -6  10  -4 12365.6 587.743   8
  -6  10  -5 20889.3 634.108   8
   6 -10   5 19909.6 707.843  37
   6  -9  -7 64805.5 1187.53  11
  -6   9   7 69970.9 1648.11  33
  -6   9   6 974.205 267.531  33
   6  -9  -6 1031.22 183.396  11
   6  -9  -6 896.921 208.537  25
   6  -9  -5 70263.2 1641.84  34
   6  -9  -5 70903.9 1466.10  11
   6  -9  -5 70469.3 1794.90  25
   6  -9  -4 5153.41 515.969  34
  -6   9   4 6899.66 712.345  33
   6  -9  -4 7184.67 616.555  25
   6  -9  -3 9191.60 747.383  34
  -6   9   3 10094.5 850.913  33
   6  -9  -3 8555.89 691.247  25
   6  -9  -2 2805.21 457.264  34
  -6   9   2 2950.86 458.090  33
   6  -9  -2 2626.14 378.068  25
   6  -9  -2 3152.84 409.150  37
   6  -9  -1 81194.7 2264.94  34
  -6   9   1 79842.6 2258.63  33
   6  -9  -1 78817.1 1932.04  25
   6  -9  -1 80504.0 2133.10  37
  -6   9   1 76514.9 1802.03  12
   6  -9   0 20045.0 1123.58  34
  -6   9   0 20346.2 1095.18  33
   6  -9   0 19820.1 1121.01  37
  -6   9   0 19789.9 977.765  12
  -6   9   0 20903.4 1048.83  22
   6  -9   1 42869.0 1589.11  34
  -6   9  -1 44553.5 1518.89  33
  -6   9  -1 46635.6 1645.20  18
   6  -9   1 45705.8 1707.91  37
  -6   9  -1 44773.9 1530.07  12
  -6   9  -1 46352.9 1425.74  22
   6  -9   2 7940.63 644.274  34
  -6   9  -2 8527.01 628.888  33
  -6   9  -2 8502.86 679.204  18
   6  -9   2 8508.71 743.467  37
  -6   9  -2 7935.63 663.869  12
  -6   9  -3 1061.50 275.583  12
   6  -9   3 1484.77 267.822  34
  -6   9  -3 1422.45 244.169  33
  -6   9  -3 1343.17 268.998  18
   6  -9   3 1140.14 303.288  37
  -6   9  -4 869.152 271.249  12
  -6   9  -4 933.407 224.879  18
   6  -9   4 918.721 260.133  37
  -6   9  -5 223.084 124.280   8
   6  -9   5 297.967 176.967  37
  -6   9  -6 2604.20 242.775   8
   6  -8  -8 10455.0 571.729  11
  -6   8   8 11240.5 784.152  33
   6  -8  -8 10409.3 517.777  25
  -6   8   7 10076.3 607.234  21
  -6   8   7 9408.59 837.376  33
   6  -8  -7 9398.50 604.602  11
   6  -8  -7 9419.04 625.615  25
  -6   8   6 1646.38 328.874  21
  -6   8   6 1299.46 365.258  33
   6  -8  -6 1085.55 252.662  11
   6  -8  -6 930.042 236.875  25
  -6   8   5 109700. 2554.99  21
   6  -8  -5 113011. 2391.53  34
  -6   8   5 113132. 3081.56  33
   6  -8  -5 113098. 2184.68  11
   6  -8  -5 112888. 2535.45  25
  -6   8   4 40850.2 1632.38  21
   6  -8  -4 42761.5 1604.29  34
  -6   8   4 41342.0 1865.66  33
   6  -8  -4 41988.6 1588.75  25
  -6   8   3 4249.54 559.503  21
   6  -8  -3 4696.18 569.129  34
  -6   8   3 4833.65 652.325  33
   6  -8  -3 4818.22 558.690  25
   6  -8  -3 5458.79 535.209  37
   6  -8  -2 52168.8 1898.55  34
  -6   8   2 53578.2 1991.82  33
   6  -8  -2 53303.7 1734.04  25
  -6   8   2 51965.9 1561.86  12
  -6   8   2 50950.8 1875.22  21
  -6   8   1 22760.9 1240.69  33
   6  -8  -1 21276.2 1052.05  25
   6  -8  -1 22805.2 1251.51  34
  -6   8   1 19489.9 1032.26  12
  -6   8   0 1655.62 344.375  12
   6  -8   0 1633.53 370.639  34
  -6   8   0 1108.60 277.069  33
   6  -8   1 67051.4 2061.66  34
  -6   8  -1 65403.0 1844.21  33
   6  -8   1 63162.7 2113.92  37
  -6   8  -1 68389.4 2024.76  12
   6  -8   2 28537.1 1280.43  34
  -6   8  -2 30224.4 1165.37  33
  -6   8  -2 29952.3 1311.39  18
   6  -8   2 30178.5 1462.03  37
  -6   8  -2 31235.9 1369.49  12
   6  -8   3 4784.14 595.738  37
  -6   8  -3 3827.54 466.864  18
  -6   8  -3 3944.38 506.687  12
  -6   8  -4 22190.8 976.595  18
   6  -8   4 23379.3 1203.09  37
  -6   8  -4 24715.8 1138.64  12
  -6   8  -5 27379.3 1040.15   8
   6  -8   5 27056.4 1152.99  37
  -6   8  -5 25595.7 1025.11  12
  -6   8  -6 11508.7 582.070   8
   6  -7  -9 52202.1 1333.87  11
  -6   7   8 57665.6 1626.51  21
   6  -7  -8 55115.1 1476.61  25
  -6   7   7 16685.3 1010.44  21
   6  -7  -7 15201.7 899.415  25
  -6   7   6 56079.0 1963.99  21
   6  -7  -6 52842.1 1766.00  25
  -6   7   5 99987.6 2698.88  21
   6  -7  -5 103250. 2392.87  34
   6  -7  -5 99757.4 2483.43  25
  -6   7   4 88169.8 2545.85  21
   6  -7  -4 85501.6 2305.68  34
   6  -7  -4 87275.3 2307.37  25
  -6   7   3 45384.6 1816.80  21
   6  -7  -3 44586.5 1712.82  34
  -6   7   3 43222.4 1854.64  33
   6  -7  -3 44095.6 1620.58  25
  -6   7   3 48323.8 1524.46  12
  -6   7   2 149497. 3209.14  21
   6  -7  -2 145985. 3100.22  34
  -6   7   2 138074. 3146.19  33
   6  -7  -2 145866. 2810.83  25
  -6   7   2 140598. 2733.69  12
  -6   7   1 909.745 219.532  12
  -6   7   1 1282.96 349.097  21
   6  -7  -1 1214.21 327.867  34
  -6   7   1 1235.61 330.613  33
   6  -7  -1 1078.24 276.535  25
   6  -7   0 3358.43 476.588  34
  -6   7   0 3991.76 475.496  33
  -6   7   0 3472.29 424.224  35
  -6   7   0 3413.47 469.634  12
   6  -7   1 85853.0 2326.46  34
  -6   7  -1 86668.2 2324.71  12
  -6   7  -2 2528.43 431.603  12
   6  -7   2 2236.75 390.055  34
  -6   7  -2 2458.68 393.811  18
  -6   7  -3 21343.8 1036.35  18
   6  -7   3 21195.6 1251.44  37
  -6   7  -3 21087.1 1125.19  12
  -6   7  -4 964.177 263.769  12
  -6   7  -4 1445.31 276.537  18
  -6   7  -4 1394.58 301.514   8
   6  -7   4 1405.08 375.385  37
  -6   7  -5 6767.78 558.596   8
  -6   7  -5 7332.31 580.301  12
  -6   7  -6 4634.56 419.985   8
  -6   7  -7 23535.5 730.978   8
   6  -6 -10 1214.80 233.381  17
  -6   6   9 8085.11 675.687  21
   6  -6  -9 8177.78 607.474  17
   6  -6  -9 8022.29 528.104  25
  -6   6   8 6796.60 708.175  21
   6  -6  -8 6671.02 589.439  17
   6  -6  -8 5799.06 534.530  25
  -6   6   7 2960.11 510.231  21
   6  -6  -7 3453.89 429.956  17
   6  -6  -7 3232.79 447.232  25
   6  -6  -7 2896.01 447.000  36
  -6   6   6 8147.73 826.186  21
   6  -6  -6 8656.18 657.370  17
   6  -6  -6 8991.66 750.320  36
   6  -6  -6 7513.53 687.683  25
  -6   6   5 17643.7 1170.78  21
   6  -6  -5 18649.1 1025.70  34
   6  -6  -5 17655.7 928.094  17
   6  -6  -5 17682.5 1031.17  25
   6  -6  -5 17610.0 1010.70  36
  -6   6   4 216556. 4007.75  21
   6  -6  -4 216853. 3582.72  34
  -6   6   4 234126. 3688.02   2
   6  -6  -4 237379. 3835.56  28
   6  -6  -4 222599. 3579.51  25
   6  -6  -4 224478. 3455.69  36
  -6   6   3 164803. 3371.40  21
   6  -6  -3 160185. 3127.52  34
   6  -6  -3 163282. 2894.59  28
   6  -6  -3 162714. 2811.68  36
   6  -6  -3 162152. 2949.46  25
  -6   6   2 24805.9 1270.46  21
   6  -6  -2 24493.8 1232.77  34
  -6   6   2 22403.3 1177.53  33
  -6   6   2 24068.3 1052.29   2
   6  -6  -2 23252.0 1079.50  25
  -6   6   2 23649.9 1083.68  35
  -6   6   1 131550. 2794.39  21
  -6   6   1 129816. 2940.79   6
   6  -6  -1 132488. 2853.53  34
   6  -6  -1 138578. 2492.24  25
  -6   6   1 132706. 2615.16  35
  -6   6   0 36325.6 1463.17  12
  -6   6   0 39157.8 1551.10   6
   6  -6   0 36253.1 1498.88  34
  -6   6   0 37180.1 1411.83  35
  -6   6  -1 18540.5 1038.63   6
   6  -6   1 18406.9 1057.47  34
  -6   6  -1 18246.6 1018.97  35
  -6   6  -1 18786.0 1071.24  12
   6  -6   2 14853.6 932.199  34
  -6   6  -2 14446.7 943.737  12
  -6   6  -3 8008.55 704.011  12
  -6   6  -4 92652.2 2182.05   8
  -6   6  -4 91601.4 2030.42  14
   6  -6   4 96355.3 2590.24  37
  -6   6  -4 92812.7 2172.20  12
  -6   6  -5 838.634 211.433  12
  -6   6  -5 982.723 256.628   8
  -6   6  -5 931.113 229.480  14
  -6   6  -6 1224.81 239.552   8
  -6   6  -6 1601.90 234.435  14
  -6   6  -7 27075.3 821.636   8
  -6   5  11 27283.4 969.420  21
   6  -5 -11 27547.8 889.014  17
  -6   5  10 17017.5 1012.55  21
   6  -5 -10 18377.7 882.825  17
  -6   5   9 211.596 251.413  21
   6  -5  -9 484.640 202.769  17
   6  -5  -9 555.908 201.440  25
   6  -5  -9 542.957 218.407  36
  -6   5   8 10577.8 951.700  21
   6  -5  -8 10109.6 746.229  17
   6  -5  -8 10530.2 756.112  25
   6  -5  -8 10198.7 781.032  36
  -6   5   7 30234.3 1586.03  21
   6  -5  -7 30643.1 1260.27  17
   6  -5  -7 30978.3 1356.95  25
   6  -5  -7 34176.5 1430.10  36
  -6   5   6 97262.9 2809.20  21
   6  -5  -6 95193.1 2119.40  17
   6  -5  -6 99179.0 2414.18  25
   6  -5  -6 98671.3 2383.93  36
  -6   5   5 198274. 3841.56  21
   6  -5  -5 204830. 3249.75  34
   6  -5  -5 195908. 3327.38  25
   6  -5  -5 202920. 3278.45  36
  -6   5   4 16159.4 1057.64  21
   6  -5  -4 15200.7 911.598  34
   6  -5  -4 14893.4 935.061  29
  -6   5   4 14990.6 905.115   2
   6  -5  -4 15333.8 945.351  28
   6  -5  -4 15061.1 902.322  25
   6  -5  -4 16208.4 885.181  36
   6  -5  -3 111203. 2467.01  29
  -6   5   3 113011. 2326.94   2
   6  -5  -2 312594. 3973.78  29
  -6   5   2 310429. 3586.75   2
  -6   5   1 259.902 170.139   6
   6  -5  -1 57.2364 110.606  29
   6  -5  -1-31.5570 244.710  27
  -6   5   0 772314. 6829.93   6
   6  -5   0 761770. 6498.69  31
   6  -5   0 765682. 8035.50  27
  -6   5   0 757861. 6469.83  35
  -6   5  -1 7293.63 638.208  12
  -6   5  -1 7372.59 666.978   6
   6  -5   1 6802.02 677.510  31
   6  -5   1 6265.04 791.082  27
  -6   5  -1 5653.22 557.119  14
  -6   5  -1 6957.82 647.002  35
   6  -5   2 37315.0 1447.73  34
  -6   5  -2 36036.1 1321.42   9
  -6   5  -2 36437.7 1389.78  14
  -6   5  -2 36834.5 1504.48  35
  -6   5  -2 37484.2 1447.51  12
  -6   5  -3 14063.7 885.405   9
  -6   5  -3 14269.1 850.600   8
  -6   5  -3 12886.6 858.472  14
  -6   5  -3 13718.9 856.647  12
  -6   5  -4 130287. 2539.20   8
  -6   5  -4 133203. 2689.55  14
  -6   5  -4 131916. 2451.50  12
  -6   5  -5 42696.4 1390.90   8
  -6   5  -5 41505.3 1435.99  14
  -6   5  -6 27589.8 1008.61   8
  -6   5  -6 27819.4 1050.21  14
  -6   5  -7 35843.0 954.032  14
   6  -4 -12 57940.7 1131.11  17
  -6   4  11 3010.71 454.599  21
   6  -4 -11 2605.31 335.594  17
  -6   4  10 102407. 2792.73  21
   6  -4 -10 103515. 2205.74  17
   6  -4 -10 105076. 2168.09  36
   6  -4  -9 209.576 162.162  17
   6  -4  -9 336.333 163.719  25
   6  -4  -9-27.8532 162.466  36
   6  -4  -8 7010.96 614.505  17
   6  -4  -8 5501.78 563.409  25
  -6   4   8 5750.12 637.227  35
   6  -4  -8 6128.54 609.496  36
   6  -4  -7 86908.9 2037.41  17
   6  -4  -7 86463.0 2222.34  25
   6  -4  -7 88774.2 2278.96  36
  -6   4   7 82848.8 2467.63  35
   6  -4  -6 16893.7 843.363  17
   6  -4  -6 16962.8 1009.47  29
  -6   4   6 17248.6 1044.78   2
  -6   4   6 16530.3 1175.13  26
   6  -4  -6 17205.7 976.944  25
   6  -4  -6 18090.3 994.563  36
  -6   4   6 16882.3 1102.32  35
   6  -4  -5 20818.2 1090.46  29
   6  -4  -5 20600.1 1001.32  36
  -6   4   5 21033.1 1096.24   2
   6  -4  -5 20034.4 1027.62  25
   6  -4  -4 25337.9 1176.65  29
  -6   4   4 25454.2 1143.12   2
   6  -4  -4 21207.9 1120.49  28
   6  -4  -4 24184.2 1125.67  27
   6  -4  -3 14943.1 877.308  29
  -6   4   3 13774.9 782.818   2
   6  -4  -3 13238.5 925.266  27
   6  -4  -2 96747.1 2173.06  29
  -6   4   2 103470. 1967.59   2
   6  -4  -2 100694. 2720.44  27
  -6   4   1 66424.0 2014.59   6
   6  -4  -1 68515.8 1859.58  31
   6  -4  -1 63164.6 1695.96  29
   6  -4  -1 64052.4 2323.70  27
  -6   4   0 154537. 2986.97   6
   6  -4   0 153339. 3032.36  31
   6  -4   0 150089. 3733.36  27
   6  -4   1 11500.6 902.432  31
   6  -4   1 13139.9 1171.46  27
  -6   4  -1 12389.8 827.074  14
  -6   4  -1 11997.5 839.707  35
  -6   4  -1 11748.1 832.100   6
  -6   4  -2 1334.27 297.881  12
   6  -4   2 912.161 316.636  31
  -6   4  -2 1118.09 298.621   9
   6  -4   2 1313.40 370.042  27
  -6   4  -2 942.912 198.631   8
  -6   4  -2 1414.87 327.941  14
  -6   4  -2 1328.63 310.338  35
  -6   4  -3 294.013 199.599  12
  -6   4  -3 292.403 226.735   9
  -6   4  -3 78.4019 127.725   8
  -6   4  -3 19.7559 174.796  14
  -6   4  -4 10430.9 814.746   9
  -6   4  -4 10758.0 704.112   8
  -6   4  -4 10455.9 792.345  14
  -6   4  -5 44431.4 1367.44   8
  -6   4  -5 42260.0 1518.73  14
  -6   4  -6 57035.7 1380.43   8
  -6   4  -6 59740.8 1607.13  14
  -6   4  -7 21269.1 768.511  14
  -6   3  12 129054. 2624.43  21
   6  -3 -12 122661. 1882.43  17
   6  -3 -11 27753.8 1082.93  17
  -6   3  11 26533.8 1218.47  35
   6  -3 -11 28472.2 1010.50  36
   6  -3 -10 44332.3 1490.14  17
   6  -3 -10 41792.1 1456.06  36
  -6   3  10 42349.0 1780.44  35
  -6   3   9 3922.12 590.850  35
   6  -3  -9 3837.34 477.261  17
   6  -3  -9 4506.08 482.963  25
   6  -3  -9 3844.93 487.576  36
   6  -3  -8 23548.2 1088.60  17
   6  -3  -8 20873.5 1068.15  25
   6  -3  -8 21522.9 1145.31  36
  -6   3   8 20835.4 1348.58  35
   6  -3  -7 119895. 2603.99  36
   6  -3  -7 121106. 2637.80  29
   6  -3  -7 125726. 2332.55  17
  -6   3   7 124862. 2835.04   2
  -6   3   7 124628. 3508.27  26
   6  -3  -7 119757. 2571.99  25
  -6   3   7 121655. 3161.30  35
   6  -3  -6 61111.8 1871.55  29
  -6   3   6 62983.2 1939.77   2
   6  -3  -6 64446.2 1804.71  27
  -6   3   6 60573.4 2325.28  26
   6  -3  -6 64188.6 1821.62  36
   6  -3  -6 61690.7 1796.93  25
  -6   3   6 59188.7 2148.45  35
   6  -3  -5 4399.60 504.359  29
  -6   3   5 4636.94 516.080   2
   6  -3  -5 4649.22 530.075  27
  -6   3   5 3752.82 583.188  26
   6  -3  -4 68333.4 1900.11  29
   6  -3  -4 67628.7 2065.56  27
  -6   3   4 68751.7 1817.90   2
   6  -3  -3 26071.7 1146.57  29
   6  -3  -3 25987.1 1379.98  27
  -6   3   3 25671.4 1042.02   2
  -6   3   2 2384.82 401.258   6
   6  -3  -2 2601.87 369.332  29
   6  -3  -2 2168.98 467.637  27
  -6   3   1 123350. 2630.81   6
   6  -3  -1 124350. 2362.48  29
   6  -3  -1 122159. 3328.35  27
  -6   3   0 11152.8 791.596   6
   6  -3   0 10141.7 832.676  31
   6  -3   0 11323.7 1068.57  27
   6  -3   1 8958.23 835.481  31
  -6   3  -1 8465.11 673.274  16
  -6   3  -1 7671.55 635.693   9
   6  -3   1 7618.09 926.620  27
  -6   3  -1 9547.09 760.306  14
  -6   3  -1 9023.00 714.223  35
  -6   3  -1 8997.89 719.339   6
  -6   3  -2 43022.5 1570.78   9
  -6   3  -2 45334.0 1666.57  14
  -6   3  -2 42755.4 1576.86  35
  -6   3  -3 369.042 179.824   9
  -6   3  -3 158.889 103.216   8
  -6   3  -3 457.568 240.375  14
  -6   3  -4 1963.82 391.924   9
  -6   3  -4 1299.47 226.600   8
  -6   3  -4 1315.63 290.400  14
  -6   3  -5 7772.35 676.055   9
  -6   3  -5 8952.77 709.368  14
  -6   3  -6 34447.1 1197.28  14
  -6   3  -7 1954.96 236.187  14
   6  -2 -12 10676.7 602.841  17
  -6   2  12 11774.1 812.520  35
   6  -2 -11 143494. 2523.94  17
   6  -2 -11 133808. 2351.44  36
  -6   2  11 141562. 3287.96  35
   6  -2 -10 92696.4 2165.45  17
  -6   2  10 88039.6 2819.97  35
   6  -2 -10 90011.7 2198.79  36
  -6   2   9 16178.2 1256.68  35
   6  -2  -9 14165.8 935.946  15
   6  -2  -9 16457.9 903.394  25
   6  -2  -9 16366.2 992.627  36
   6  -2  -8 139503. 2852.87  15
   6  -2  -8 147302. 2810.41  25
   6  -2  -8 148138. 2950.31  36
  -6   2   8 146888. 3703.03  35
   6  -2  -7 15817.4 935.634  29
   6  -2  -7 13005.4 840.754  15
   6  -2  -7 14231.7 907.986  27
  -6   2   7 14504.2 1273.78  26
  -6   2   7 14556.4 976.233   2
   6  -2  -7 15239.3 930.867  36
  -6   2   7 17171.1 1257.35  35
   6  -2  -6 131200. 2688.08  29
   6  -2  -6 133462. 2820.58  27
  -6   2   6 132024. 2797.37   2
  -6   2   6 128779. 3507.54  26
   6  -2  -6 135307. 2589.02  36
  -6   2   6 133537. 3275.75  35
   6  -2  -5 9930.11 742.552  29
   6  -2  -5 9560.48 804.563  27
  -6   2   5 9734.82 732.688   2
  -6   2   5 9933.19 934.395  26
   6  -2  -5 9886.80 681.950   1
   6  -2  -4 55126.5 1692.09  29
   6  -2  -4 48419.2 1852.57  27
  -6   2   4 49671.2 1835.42  26
  -6   2   4 50859.1 1575.89   2
  -6   2   3 4876.41 551.214   6
   6  -2  -3 4322.76 476.701  29
   6  -2  -3 5324.15 676.367  27
  -6   2   3 6414.95 536.247   2
  -6   2   2 36583.6 1390.98   6
   6  -2  -2 42332.5 1443.55  29
   6  -2  -2 40525.0 1871.05  27
  -6   2   1 36737.4 1375.16   6
   6  -2  -1 39174.2 1355.34  29
   6  -2  -1 38732.3 1921.58  27
  -6   2   0 4786.88 535.431  20
   6  -2   0 4005.83 421.640  29
   6  -2   0 3502.50 642.966  27
  -6   2   0 3580.79 489.418  14
  -6   2   0 3690.08 452.525   6
  -6   2  -1 3538.26 497.590  20
   6  -2   1 3981.09 603.991  31
  -6   2  -1 4521.31 491.553  16
   6  -2   1 3305.92 646.098  27
  -6   2  -1 5256.66 572.537  14
  -6   2  -1 4728.54 514.261  35
  -6   2  -1 4105.59 478.686   6
  -6   2  -2 1744.83 396.484  20
  -6   2  -2 1659.13 349.679   9
  -6   2  -2 1973.36 388.788  14
  -6   2  -3 600.410 215.648  20
  -6   2  -3-2.90281 186.959   9
  -6   2  -3 367.480 242.126  14
  -6   2  -4 22151.9 1163.80   9
  -6   2  -4 21572.1 1136.89  14
  -6   2  -5 3219.80 448.708   9
  -6   2  -5 3415.67 439.507  14
  -6   2  -6 20694.3 869.884  14
   6  -1 -13 17129.7 603.977  17
  -6   1  13 18933.0 856.858  35
  -6   1  12 2519.20 470.219  35
   6  -1 -12 1929.82 283.837  17
   6  -1 -12 1793.73 236.085  36
  -6   1  11 213.290 294.863  35
   6  -1 -11 240.429 170.356  17
   6  -1 -11 248.584 200.106  15
   6  -1 -11 25.9868 135.172  36
   6  -1 -10 119411. 2627.63  15
   6  -1 -10 123204. 2622.09  36
  -6   1  10 124895. 3476.65  35
  -6   1   9 2635.78 623.319  35
   6  -1  -9 2075.44 358.116  15
   6  -1  -9 2280.74 373.328  25
   6  -1  -9 2693.77 426.304  36
   6  -1  -8 76980.2 2001.51  15
  -6   1   8 74465.6 2245.91  13
   6  -1  -8 75427.1 2105.50  36
  -6   1   8 69975.8 2629.41  35
   6  -1  -7 7131.12 639.695  29
   6  -1  -7 6730.87 582.740  15
   6  -1  -7 5940.94 618.246  27
  -6   1   7 7393.74 943.309  26
  -6   1   7 6919.64 681.778   2
  -6   1   7 5894.52 660.276  13
   6  -1  -7 6463.36 602.858  36
  -6   1   7 7008.82 826.140  35
   6  -1  -6 45388.4 1599.32  29
   6  -1  -6 46078.9 1736.47  27
  -6   1   6 45589.7 2116.04  26
  -6   1   6 47377.0 1708.25   2
  -6   1   6 44618.5 1710.04  13
   6  -1  -6 44245.2 1490.32  36
  -6   1   6 45854.0 1927.32  35
   6  -1  -5 926.346 262.111  29
   6  -1  -5 1211.31 287.538   1
   6  -1  -5 1148.09 346.589  27
  -6   1   5 956.825 374.372  26
  -6   1   4 42216.6 1467.06   6
  -6   1   4 44809.7 1797.63  32
   6  -1  -4 42549.9 1519.29  29
   6  -1  -4 43631.4 1808.75  27
  -6   1   4 43123.1 1721.67  26
  -6   1   3 6608.32 563.233   6
  -6   1   3 6171.80 614.653  32
   6  -1  -3 6272.65 597.030  29
   6  -1  -3 6510.96 748.612  27
  -6   1   2 7473.38 583.526   6
  -6   1   2 7285.35 631.934  32
   6  -1  -2 7697.30 638.524  29
   6  -1  -2 7181.46 809.158  27
  -6   1   1 134029. 2584.21  32
   6  -1  -1 135991. 2608.97  29
   6  -1  -1 136663. 3643.87  27
  -6   1   1 128544. 2394.69   6
  -6   1   0 71065.9 2039.43  20
   6  -1   0 73793.8 1873.07  29
  -6   1   0 74484.1 1958.70  16
   6  -1   0 76318.0 2795.31  27
  -6   1   0 72800.2 2095.39  14
  -6   1   0 76196.4 1935.57  35
  -6   1   0 70797.5 1818.00   6
  -6   1  -1 23701.9 1234.49  20
  -6   1  -1 23620.4 1101.58  16
  -6   1  -1 23750.7 1215.42  14
  -6   1  -1 23936.2 1094.75   6
  -6   1  -1 26881.6 1131.92  35
  -6   1  -2 50879.7 1821.42  20
  -6   1  -2 47917.7 1727.06  14
  -6   1  -3 19044.1 1117.99  20
  -6   1  -3 19679.2 1124.17   9
  -6   1  -3 19484.9 1089.27  14
  -6   1  -4 7894.48 698.281   9
  -6   1  -4 6819.48 617.811  14
  -6   1  -5 59349.5 1619.45   9
  -6   1  -5 60290.5 1583.84  14
  -6   1  -6 1390.67 201.392  14
   6   0 -13 2624.77 249.668  17
  -6   0  13 3087.87 419.481  35
   6   0 -12 5006.05 424.645  17
   6   0 -12 4932.35 388.430  36
  -6   0  12 5313.47 643.604  35
  -6   0  11 3564.77 627.643  35
   6   0 -11 3674.88 442.291  15
   6   0 -11 3931.09 432.745  36
   6   0 -10 7390.03 652.821  15
  -6   0  10 7047.83 706.370  13
   6   0 -10 7347.65 650.155  36
  -6   0  10 6626.44 845.098  35
  -6   0   9 11437.7 928.088  13
   6   0  -9 12476.9 819.370  15
   6   0  -9 13138.2 895.357  36
  -6   0   9 12658.0 1153.52  35
  -6   0   8 535.935 339.418  35
   6   0  -8 1165.81 297.059  15
  -6   0   8 729.646 276.488  13
   6   0  -8 1279.92 312.457  36
  -6   0   7 3456.68 618.421  35
   6   0  -7 3005.90 421.328  29
   6   0  -7 2324.42 342.463  15
   6   0  -7 2720.84 448.213  27
  -6   0   7 2799.53 621.960  26
  -6   0   7 2357.30 449.429  13
   6   0  -7 2802.10 424.375  36
  -6   0   6 1479.10 418.830  35
   6   0  -6 1577.23 326.757  29
  -6   0   6 1096.59 284.792  16
   6   0  -6 1226.84 334.618  27
  -6   0   6 1247.08 439.653  26
   6   0  -6 1073.11 256.295   1
  -6   0   6 815.147 279.425  13
   6   0  -5 20070.8 1105.97   1
   6   0  -5 20350.5 1087.86  29
  -6   0   5 18996.8 998.739  16
   6   0  -5 19490.8 1204.39  27
  -6   0   5 18828.8 1257.44  26
  -6   0   5 19798.6 1183.40  13
  -6   0   4 1745.15 394.390  32
   6   0  -4 1570.87 317.924  29
   6   0  -4 1597.90 326.083   1
   6   0  -4 1926.61 428.962  27
  -6   0   4 1530.57 347.150  13
  -6   0   3 1758.91 373.767  32
   6   0  -3 1485.93 337.807   1
   6   0  -3 1514.48 319.860  29
  -6   0   3 1695.48 321.614  16
   6   0  -3 1457.10 395.979  27
  -6   0   3 1678.50 346.150  13
  -6   0   2 103154. 2264.72  20
  -6   0   2 106293. 2568.38  32
   6   0  -2 105588. 2441.34  29
  -6   0   2 107277. 2381.33  16
   6   0  -2 106817. 3075.00  27
  -6   0   2 104824. 2567.71  13
   6   0  -2 106471. 2716.23   1
  -6   0   1 98077.9 2333.51  20
  -6   0   1 97163.9 2397.92  32
   6   0  -1 103890. 2374.33  29
  -6   0   1 96155.5 2259.78  16
   6   0  -1 100008. 3054.73  27
  -6   0   1 101577. 2422.04  14
  -6   0   0 972.790 265.721  20
  -6   0   0 1176.77 270.366  16
  -6   0   0 1332.41 300.325  14
  -6   0  -1 5756.01 639.961  20
  -6   0  -1 6620.20 580.768  16
  -6   0  -1 5919.59 600.454  14
  -6   0  -2 50409.8 1806.77  20
  -6   0  -2 48315.3 1660.33  14
  -6   0  -3 9577.42 773.504  20
  -6   0  -3 10021.0 783.662   9
  -6   0  -3 9827.14 718.525  14
  -6   0  -4 38062.4 1350.54  20
  -6   0  -4 37400.2 1348.47   9
  -6   0  -4 37067.8 1240.91  14
  -6   0  -5 36912.3 1109.62   9
  -6   0  -5 36191.0 980.863  14
  -6  -1  13 1449.28 288.250  35
   6   1 -13 1321.95 177.369  17
   6   1 -12 10633.3 627.369  15
  -6  -1  12 10992.8 661.613  13
   6   1 -12 10708.5 565.446  36
  -6  -1  12 11885.6 903.167  35
   6   1 -11 32394.3 1199.46  15
  -6  -1  11 31298.4 1368.64  13
   6   1 -11 30069.5 1171.68  36
  -6  -1  11 30550.3 1597.77  35
   6   1 -10 7616.65 618.678  15
  -6  -1  10 6429.29 698.762  13
   6   1 -10 7429.10 652.819  36
  -6  -1  10 7915.11 894.180  35
   6   1  -9 4857.31 497.066  15
   6   1  -9 5604.47 596.488  36
  -6  -1   9 5059.19 748.372  35
   6   1  -8 58083.4 1590.48  15
  -6  -1   8 53926.3 2131.94  13
   6   1  -8 56034.4 1850.57  36
  -6  -1   8 52704.2 2249.52  35
  -6  -1   7 273752. 3792.58  16
  -6  -1   7 258822. 4607.51  13
   6   1  -7 266414. 3940.37  36
  -6  -1   7 262404. 4768.02  35
  -6  -1   6 4335.60 604.674  35
   6   1  -6 4227.33 538.545  29
   6   1  -6 4765.59 560.463   1
  -6  -1   6 4430.42 532.997  16
   6   1  -6 4624.52 595.905  27
  -6  -1   6 3782.27 597.293  26
  -6  -1   6 3919.09 636.753  24
  -6  -1   6 4371.60 648.720  13
   6   1  -6 4523.08 521.094  36
  -6  -1   5 154183. 3776.13  32
   6   1  -5 147019. 3160.81   1
   6   1  -5 147959. 3001.86  29
  -6  -1   5 146208. 2888.25  16
   6   1  -5 159470. 3382.21  27
  -6  -1   5 145736. 3295.81  24
  -6  -1   5 154495. 3415.49  13
   6   1  -5 148948. 2705.02  36
  -6  -1   5 149718. 3197.59  35
   6   1  -4 77223.2 2333.18   1
  -6  -1   4 74959.3 2464.73  32
   6   1  -4 75434.2 2150.85  29
  -6  -1   4 72511.3 2043.73  16
   6   1  -4 72941.1 2338.07  27
  -6  -1   4 71653.2 2165.59  24
  -6  -1   4 75139.6 2315.45  13
   6   1  -3 74261.6 2297.12   1
  -6  -1   3 74867.2 2360.56  32
   6   1  -3 74314.1 2125.94  29
  -6  -1   3 70991.4 2016.65  16
   6   1  -3 76294.6 2440.08  27
  -6  -1   3 70682.6 2029.65  24
  -6  -1   3 68839.4 2161.92  13
   6   1  -2 275070. 4435.76   1
  -6  -1   2 273047. 3756.97  20
  -6  -1   2 271868. 4353.41  32
   6   1  -2 281387. 4095.66  29
  -6  -1   2 274073. 3955.88  16
   6   1  -2 278124. 4726.72  27
  -6  -1   2 270394. 3828.17  14
  -6  -1   2 270822. 4193.10  13
  -6  -1   1 216816. 3549.46  20
  -6  -1   1 217306. 3507.16  16
  -6  -1   1 216332. 3380.28  14
  -6  -1   0 2614.22 451.343  20
  -6  -1   0 2397.93 364.580  16
  -6  -1   0 3345.65 428.511  14
  -6  -1  -1 44706.3 1686.14  20
  -6  -1  -1 41159.3 1432.79  14
  -6  -1  -2 18937.8 1082.01  20
  -6  -1  -2 20116.9 948.149  14
  -6  -1  -3 2239.27 387.634  20
  -6  -1  -3 1771.88 343.557   9
  -6  -1  -3 1615.20 244.511  14
  -6  -1  -4 47158.0 1312.51  20
  -6  -1  -4 47842.6 1311.49   9
   6   2 -12 29470.7 920.688  15
  -6  -2  12 30424.0 1120.78  13
   6   2 -12 29812.3 890.366  36
  -6  -2  12 30848.2 1322.19  35
   6   2 -11 20186.7 854.374  15
  -6  -2  11 18685.5 1073.94  13
   6   2 -11 20193.7 919.871  36
  -6  -2  11 20519.2 1234.77  35
   6   2 -10 17633.3 847.750  15
  -6  -2  10 17483.5 1155.51  13
   6   2 -10 18678.5 991.248  36
  -6  -2  10 17510.9 1233.09  35
   6   2  -9 100445. 1984.12  15
  -6  -2   9 96005.0 2809.11  13
   6   2  -9 102707. 2446.67  36
  -6  -2   9 100739. 2937.16  35
  -6  -2   8 74364.4 2522.72  13
   6   2  -8 73301.3 2113.81  36
  -6  -2   8 73730.8 2469.76  35
  -6  -2   7 5587.70 583.194  16
  -6  -2   7 5608.20 783.117  24
  -6  -2   7 4844.65 690.261  13
   6   2  -7 5186.78 564.470  36
  -6  -2   7 5644.64 696.579  35
  -6  -2   6 263811. 3968.36  16
  -6  -2   6 263136. 4801.18  24
  -6  -2   6 265124. 4678.82  13
   6   2  -6 269208. 3867.82  36
  -6  -2   5 10739.5 827.356  16
  -6  -2   5 10401.1 915.421  24
  -6  -2   5 11174.8 956.280  13
   6   2  -5 9789.49 704.107  36
  -6  -2   4 150214. 3064.46  16
  -6  -2   4 152368. 3280.98  24
  -6  -2   4 142411. 3222.43  13
  -6  -2   3 65816.8 2017.36  16
  -6  -2   3 67457.2 2079.38  24
  -6  -2   3 66262.5 2102.15  13
  -6  -2   2 18405.7 993.848  20
  -6  -2   2 17988.6 1051.60  16
  -6  -2   2 20473.8 1083.61  24
  -6  -2   1 628.942 258.804  20
  -6  -2   1 296.015 198.411  16
  -6  -2   0 8591.70 733.508  20
  -6  -2   0 8329.07 636.954  16
  -6  -2  -1 39050.3 1498.32  20
  -6  -2  -2 7986.00 653.225  20
  -6  -2  -3 19856.5 873.264  20
  -6  -2  -3 19425.4 836.018   9
  -6  -2  -4 60820.3 1047.18   9
  -6  -3  12 18473.0 820.897  13
   6   3 -12 16976.5 597.719  36
  -6  -3  12 18289.2 827.012  35
  -6  -3  11 515.068 218.883  35
   6   3 -11 515.466 165.665  36
   6   3 -11 481.284 127.347  15
  -6  -3  11 449.450 220.189  13
  -6  -3  10 46428.2 1776.72  13
   6   3 -10 46418.0 1478.20  36
  -6  -3  10 46286.0 1683.31  35
  -6  -3   9 23470.3 1346.33  13
   6   3  -9 23634.4 1130.46  36
  -6  -3   9 22392.3 1215.95  35
  -6  -3   8 411.174 208.599  16
  -6  -3   8 727.659 326.544  13
   6   3  -8 655.821 231.228  36
  -6  -3   7 16730.6 983.876  16
  -6  -3   7 16414.7 1245.80  24
  -6  -3   7 17604.2 1106.44  37
  -6  -3   7 18670.7 1247.13  13
   6   3  -7 17297.6 995.088  36
  -6  -3   6 3986.36 513.412  16
  -6  -3   6 4017.24 604.942  24
  -6  -3   6 2989.46 520.656  13
   6   3  -6 3171.41 408.963  36
  -6  -3   5 1275.57 334.013  16
  -6  -3   5 1494.21 379.499  24
  -6  -3   5 1312.70 323.843  13
   6   3  -5 1598.66 296.507  36
  -6  -3   4 58550.4 1913.13  16
  -6  -3   4 62837.1 2121.60  24
  -6  -3   4 61403.4 1989.36  13
  -6  -3   3 67526.8 2023.77  16
  -6  -3   3 67912.2 1945.70  13
  -6  -3   3 68876.1 2111.45  24
  -6  -3   2 31504.8 1238.90  20
  -6  -3   2 32625.0 1340.82  16
  -6  -3   2 32091.9 1349.96  24
  -6  -3   1 24264.9 1120.86  20
  -6  -3   1 24604.4 1084.95  16
  -6  -3   0 17227.7 937.113  20
  -6  -3  -1 31479.2 1188.65  20
  -6  -3  -2 100.194 153.972  20
  -6  -3  -2 74.3306 115.633   9
  -6  -4  11 636.232 192.015  13
   6   4 -11 401.794 132.140  36
  -6  -4  10 63272.8 1834.18  13
   6   4 -10 60519.3 1506.76  36
  -6  -4   9 51265.3 1783.21  13
   6   4  -9 52644.0 1535.39  36
  -6  -4   8 1266.65 288.037  16
  -6  -4   8 1081.22 310.577  13
   6   4  -8 1070.42 256.647  36
  -6  -4   7 83390.7 2072.01  16
  -6  -4   7 79446.4 2480.87  24
  -6  -4   7 82963.7 2346.52  13
   6   4  -7 86071.2 2067.81  36
  -6  -4   6 18000.1 1002.57  16
  -6  -4   6 18671.7 1193.33  24
  -6  -4   6 17159.6 1043.86  13
   6   4  -6 17499.6 913.627  36
  -6  -4   5 818.088 298.037  16
  -6  -4   5 193.355 195.350  24
  -6  -4   5 340.701 202.506  13
   6   4  -5 298.945 124.523  36
  -6  -4   4 88329.0 2230.35  16
  -6  -4   4 93422.8 2441.81  24
  -6  -4   3 3382.59 444.998  16
  -6  -4   3 3189.39 465.140  24
  -6  -4   2 6691.31 508.934  20
  -6  -4   2 6681.69 549.455  16
  -6  -4   2 7769.70 624.889  24
  -6  -4   1 8096.10 557.387  20
  -6  -4   1 9001.85 544.404  16
  -6  -4   0 4564.60 408.630  20
  -6  -4  -1 8645.09 482.348  20
  -6  -4  -1 9157.36 488.342   9
   6   5 -10 5208.06 375.806  36
  -6  -5  10 4991.46 418.015  13
  -6  -5   9 9604.58 469.945  16
  -6  -5   9 8865.39 608.253  13
   6   5  -9 8863.04 539.567  36
  -6  -5   8 212.310 139.171  16
  -6  -5   8 107.717 150.767  13
   6   5  -8 482.440 188.295  36
  -6  -5   7 10009.8 649.692  16
  -6  -5   7 9145.50 751.067  24
  -6  -5   7 9634.97 633.658  13
   6   5  -7 10957.9 641.334  36
  -6  -5   6 46165.0 1429.27  16
  -6  -5   6 43082.2 1570.64  24
  -6  -5   6 44239.5 1246.99  13
   6   5  -6 46243.7 1254.02  36
  -6  -5   5 7669.37 606.410  16
  -6  -5   5 6996.72 633.253  24
   6   5  -5 7797.49 476.829  36
  -6  -5   4 66188.2 1661.08  16
  -6  -5   4 68154.1 1820.08  24
  -6  -5   3-63.2376 139.655  16
  -6  -5   3 268.913 159.687  24
  -6  -5   2 9905.85 509.044  16
  -6  -5   2 10530.2 566.101  24
  -6  -5   1 8275.38 389.448  20
  -6  -6   8 10608.9 440.296  16
   6   6  -8 10578.5 452.737  36
  -6  -6   7 24205.6 764.919  16
   6   6  -7 23260.5 662.425  36
  -6  -6   6 16480.7 663.791  16
   6   6  -6 14861.8 478.733  36
  -6  -6   5 17544.9 678.192  16
  -6  -6   5 16272.7 720.629  24
  -6  -6   4 17944.2 622.172  16
  -6  -6   4 16520.1 662.049  24
   7 -11  -2 5218.90 361.325  34
  -7  11   2 5356.53 341.784  33
  -7  11   2 5282.09 311.866  18
  -7  11   2 5285.32 317.565  22
   7 -11  -1 4134.70 334.960  34
  -7  11   1 3846.48 290.557  33
  -7  11   1 4248.01 311.155  18
  -7  11   1 3468.81 242.694  22
   7 -11   0 9881.75 488.381  34
  -7  11   0 9565.22 421.250  33
  -7  11   0 9818.24 471.695  18
   7 -11   0 9006.20 431.736  37
   7 -11   1 3889.91 269.099  34
  -7  11  -1 4787.80 321.445  18
   7 -11   1 4363.05 319.796  37
   7 -10  -5 95.3971 73.5802  34
  -7  10   5 347.302 135.034  33
   7 -10  -5 212.159 102.088  25
  -7  10   5 96.6313 115.891  22
   7 -10  -4 5448.20 424.477  34
  -7  10   4 6128.17 486.549  33
   7 -10  -4 5586.44 421.314  25
  -7  10   4 5357.21 452.789  22
   7 -10  -3 28278.7 1059.85  34
  -7  10   3 28049.7 1048.51  33
   7 -10  -3 28611.4 962.968  25
  -7  10   3 28270.5 1038.61  22
   7 -10  -2 1730.64 302.359  34
  -7  10   2 1350.40 258.924  33
   7 -10  -2 1517.13 229.593  25
   7 -10  -2 1894.03 247.844  37
  -7  10   2 1776.25 269.646  22
   7 -10  -1 25464.2 1067.33  34
  -7  10   1 24668.8 951.915  33
  -7  10   1 24312.0 1004.23  18
   7 -10  -1 24023.5 963.315  37
  -7  10   1 24346.9 889.431  22
   7 -10   0 20415.7 933.254  34
  -7  10   0 19971.0 802.242  33
  -7  10   0 21227.8 920.040  18
   7 -10   0 19481.4 909.016  37
  -7  10   0 20446.8 798.848  12
  -7  10  -1 1201.87 232.574  12
   7 -10   1 841.044 192.579  34
  -7  10  -1 1378.97 201.049  33
  -7  10  -1 1572.97 263.745  18
   7 -10   1 840.254 221.672  37
   7 -10   2 53167.3 1156.37  34
  -7  10  -2 53089.3 1274.32  18
   7 -10   2 53585.7 1425.59  37
  -7  10  -2 54004.2 1306.91  12
  -7  10  -3 11789.8 533.373   8
   7 -10   3 11206.3 591.664  37
  -7   9   7 15462.5 738.903  33
   7  -9  -7 14990.5 606.973  25
  -7   9   6-27.0562 168.497  33
   7  -9  -6 94.5291 124.255  25
   7  -9  -5 101820. 1936.26  34
  -7   9   5 104665. 2354.00  33
   7  -9  -5 104511. 2088.64  25
   7  -9  -4 108826. 2286.67  34
  -7   9   4 110546. 2471.86  33
   7  -9  -4 112493. 2261.57  25
   7  -9  -3 20407.5 1055.99  34
  -7   9   3 23461.8 1143.19  33
   7  -9  -3 22045.4 1015.75  25
   7  -9  -3 21222.7 922.217  37
   7  -9  -2 37048.1 1467.87  34
  -7   9   2 35441.6 1357.06  33
   7  -9  -2 34683.9 1219.50  25
   7  -9  -2 33655.1 1290.25  37
  -7   9   2 33998.5 1134.51  12
   7  -9  -1 12617.7 871.687  34
  -7   9   1 10983.0 715.741  33
   7  -9  -1 11793.6 657.562  25
   7  -9  -1 12004.5 829.652  37
  -7   9   1 11935.4 730.130  12
  -7   9   1 11356.1 692.330  22
   7  -9   0 14768.3 903.003  34
  -7   9   0 15207.3 778.515  33
   7  -9   0 16199.6 968.804  37
  -7   9   0 15575.7 860.899  12
   7  -9   1 60336.6 1726.40  34
  -7   9  -1 59651.8 1665.31  18
   7  -9   1 57277.8 1802.38  37
  -7   9  -1 61303.3 1711.28  12
   7  -9   2 40474.7 1248.70  34
  -7   9  -2 40742.5 1275.68  18
   7  -9   2 43413.4 1501.33  37
  -7   9  -2 40505.2 1345.46  12
  -7   9  -3 231.910 166.257  12
  -7   9  -3 120.057 120.413  18
  -7   9  -3 64.5201 120.302   8
   7  -9   3 32.1439 154.926  37
  -7   9  -4 444.827 147.429   8
   7  -9   4 533.487 158.180  37
   7  -8  -8 39474.1 975.633  11
  -7   8   8 39318.3 1337.83  33
   7  -8  -8 41061.4 1055.31  25
  -7   8   7 279.656 157.900  21
  -7   8   7 140.920 218.097  33
   7  -8  -7 105.311 121.081  11
   7  -8  -7-9.09736 125.883  25
  -7   8   6 7602.68 657.426  21
  -7   8   6 7230.87 729.463  33
   7  -8  -6 7664.15 504.979  11
   7  -8  -6 8534.21 651.762  25
  -7   8   5 77495.0 2170.70  21
   7  -8  -5 77801.7 1977.39  34
  -7   8   5 75488.7 2295.64  33
   7  -8  -5 72875.4 1996.70  25
  -7   8   4 302717. 4401.34  21
   7  -8  -4 292245. 4165.11  34
   7  -8  -4 298139. 4049.39  25
   7  -8  -3 10668.2 844.599  34
  -7   8   3 12515.2 907.905  33
   7  -8  -3 11022.7 780.242  25
  -7   8   3 11687.9 735.485  12
  -7   8   3 11827.4 900.432  21
   7  -8  -2 45750.9 1757.02  34
  -7   8   2 47113.7 1637.13  33
   7  -8  -2 45386.5 1510.62  25
  -7   8   2 47864.8 1576.04  12
   7  -8  -1 27648.7 1361.75  34
  -7   8   1 26972.0 1143.91  33
  -7   8   1 26320.4 1221.32  12
  -7   8   0 2634.52 403.056  12
   7  -8   0 3335.85 484.355  34
   7  -8   1 20561.2 1090.78  34
  -7   8  -1 22221.6 1069.37  18
  -7   8  -1 22141.2 1130.05  12
   7  -8   2 42858.3 1427.72  34
  -7   8  -2 45833.8 1419.41  18
   7  -8   2 44143.6 1664.42  37
  -7   8  -2 46475.6 1575.29  12
  -7   8  -3-42.2303 172.256  12
  -7   8  -3 3.27305 105.666  18
  -7   8  -3 54.9563 123.943   8
  -7   8  -4 191.155 138.594  12
  -7   8  -4 158.732 121.841   8
   7  -8   4 464.471 179.786  37
  -7   8  -5 8027.72 441.814   8
  -7   7   9 5265.38 431.638  21
   7  -7  -9 5195.27 362.708  25
  -7   7   8 41619.9 1450.87  21
   7  -7  -8 40142.1 1276.63  25
  -7   7   7 786.083 256.736  21
   7  -7  -7 679.257 268.006  25
  -7   7   6 29513.1 1441.47  21
   7  -7  -6 29459.2 1168.90  34
   7  -7  -6 29426.9 1310.26  25
  -7   7   5 48900.2 1896.43  21
   7  -7  -5 50732.5 1709.06  34
   7  -7  -5 49822.9 1737.34  25
  -7   7   4 818.976 272.932  12
  -7   7   4 574.060 261.023  21
   7  -7  -4 416.287 239.870  34
  -7   7   4 490.083 318.419  33
   7  -7  -4 225.920 171.800  25
  -7   7   3 42875.9 1557.18  12
  -7   7   3 45375.1 1791.71  21
   7  -7  -3 44931.1 1750.61  34
  -7   7   3 43688.8 1664.28  33
   7  -7  -3 43647.9 1580.91  25
  -7   7   2 23890.1 1274.39  21
   7  -7  -2 23075.4 1275.24  34
   7  -7  -2 23209.6 1104.72  25
  -7   7   2 22928.1 1075.13  35
  -7   7   2 25247.8 1237.40  12
   7  -7  -1 58224.3 2008.62  34
  -7   7   1 58508.2 1753.37  35
  -7   7   1 58905.3 1919.64  12
   7  -7   0 50098.3 1821.30  34
  -7   7   0 50401.1 1656.42  35
  -7   7   0 48841.7 1757.87  12
  -7   7  -1 430.192 237.735  12
   7  -7   1 901.859 282.022  34
   7  -7   2 41290.2 1473.99  34
  -7   7  -2 39474.5 1292.04  18
  -7   7  -2 39910.5 1503.95  12
  -7   7  -3 32976.0 1198.76   8
   7  -7   3 32147.9 1411.55  37
  -7   7  -3 34219.3 1295.72  12
  -7   7  -4 26272.4 981.412   8
   7  -7   4 26309.3 1093.27  37
  -7   7  -4 26592.7 997.273  12
  -7   7  -5 1848.68 242.839   8
  -7   6  10 3740.52 394.703  21
  -7   6   9 252.460 190.114  21
   7  -6  -9 776.356 190.193  17
   7  -6  -9 380.028 162.949  25
  -7   6   8 309.996 208.010  21
   7  -6  -8 36.8440 143.475  17
   7  -6  -8-98.1283 144.710  25
   7  -6  -8 334.175 192.865  36
  -7   6   7 378.663 287.302  21
   7  -6  -7-98.9825 144.747  17
   7  -6  -7-143.688 169.612  25
   7  -6  -7 169.186 162.484  36
  -7   6   6 2725.98 484.444  21
   7  -6  -6 2957.48 393.877  34
   7  -6  -6 2913.83 368.934  17
   7  -6  -6 3033.42 474.030  25
   7  -6  -6 2568.98 410.595  36
  -7   6   5 4388.47 625.805  21
   7  -6  -5 4618.92 534.385  34
   7  -6  -5 4917.41 568.906  25
   7  -6  -5 4622.44 531.993  36
  -7   6   4 191.706 264.686  21
   7  -6  -4 405.070 230.309  34
  -7   6   4-257.010 291.076  33
   7  -6  -4 137.229 193.416  25
   7  -6  -4 519.601 201.442  36
  -7   6   4 520.509 213.617  35
  -7   6   3 21065.7 1224.55  21
   7  -6  -3 19028.5 1139.31  34
   7  -6  -3 20589.4 1080.10  25
   7  -6  -3 21097.4 989.530  36
  -7   6   3 20199.0 1090.39  35
  -7   6   2 25027.0 1267.68  21
   7  -6  -2 26585.5 1368.17  34
   7  -6  -2 25154.6 1134.26  25
  -7   6   2 24769.7 1226.11  35
  -7   6   1 2728.88 461.376  12
   7  -6  -1 3300.28 515.264  34
  -7   6   1 2765.12 448.949  35
   7  -6   0 51614.8 1849.19  34
  -7   6   0 51569.2 1575.27  14
  -7   6   0 50644.0 1763.54  35
  -7   6   0 53131.0 1842.83  12
   7  -6   1 36636.3 1507.89  34
  -7   6  -1 37134.2 1342.78  14
  -7   6  -1 35490.9 1480.87  35
  -7   6  -1 38577.3 1533.41  12
   7  -6   2 214058. 3417.02  34
  -7   6  -2 212203. 3153.79  14
  -7   6  -2 212886. 3466.38  12
  -7   6  -3 20521.5 941.439   8
  -7   6  -3 19554.0 931.825  14
   7  -6   3 21228.5 1165.63  37
  -7   6  -3 19905.8 972.644  12
  -7   6  -4 118648. 2086.81   8
  -7   6  -4 122795. 2125.30  14
  -7   6  -4 122980. 2045.78  12
  -7   6  -5 49061.5 1169.95   8
  -7   6  -5 52058.6 1173.12  14
  -7   5  11 9282.21 605.844  21
   7  -5 -11 9458.63 474.138  17
  -7   5  10 5290.64 570.228  21
   7  -5 -10 4902.83 419.897  17
  -7   5   9 13709.8 1010.08  21
   7  -5  -9 14016.4 767.420  17
   7  -5  -9 13123.7 769.822  25
   7  -5  -9 14697.5 861.689  36
  -7   5   8 580.256 319.663  21
   7  -5  -8 233.381 170.571  17
   7  -5  -8 366.006 205.240  25
   7  -5  -8 144.882 188.976  36
  -7   5   7 3749.41 573.305  21
   7  -5  -7 4439.54 444.412  17
   7  -5  -7 4881.10 558.635  25
   7  -5  -7 4661.71 549.538  36
  -7   5   7 4826.52 573.933  35
  -7   5   6 61091.4 2237.18  21
   7  -5  -6 66751.5 1858.72  34
   7  -5  -6 62682.8 1976.89  25
   7  -5  -6 63374.6 1921.09  36
  -7   5   6 62806.8 2045.94  35
  -7   5   5 70263.8 2331.72  21
   7  -5  -5 72824.0 2074.00  34
   7  -5  -5 74459.8 2140.90  25
   7  -5  -5 72198.9 1983.25  36
  -7   5   5 72397.3 2205.12  35
  -7   5   4 13842.9 1003.13  21
   7  -5  -4 12057.9 893.362  34
  -7   5   4 13984.5 875.842   2
   7  -5  -4 13734.5 908.630  25
   7  -5  -4 14964.2 867.597  36
  -7   5   4 12946.9 935.430  35
  -7   5   3 171938. 3304.77  21
   7  -5  -3 171931. 3049.72  25
  -7   5   3 179180. 3406.53  35
  -7   5   2 75263.7 2065.27  21
   7  -5  -2 77948.4 2068.14  29
   7  -5  -2 70756.7 1859.36  25
  -7   5   2 74609.5 2195.33  35
  -7   5   1 2102.65 380.631  14
  -7   5   1 3029.43 454.876  35
  -7   5   1 1801.04 336.684  21
  -7   5   0 35199.3 1469.58  12
  -7   5   0 32167.2 1373.31  14
  -7   5   0 34643.9 1487.54  35
   7  -5   1 219947. 3702.10  34
  -7   5  -1 215643. 3517.51  14
  -7   5  -1 215674. 3708.54  35
  -7   5  -1 225270. 3607.97  12
  -7   5  -2 81.5994 138.562  12
   7  -5   2 245.670 182.745  34
  -7   5  -2 161.584 158.905   9
  -7   5  -2 676.703 210.726   8
  -7   5  -2 492.717 185.044  14
  -7   5  -3 2220.45 314.681  12
  -7   5  -3 1939.30 356.086  14
  -7   5  -4 53939.2 1353.27   8
  -7   5  -4 55320.8 1579.45  14
  -7   5  -5 878.530 168.837   8
  -7   5  -5 816.866 190.864  14
  -7   5  -6 20881.6 634.627  14
  -7   4  11 25403.4 1183.27  21
   7  -4 -11 23167.3 830.982  17
   7  -4 -11 24487.1 869.733  36
  -7   4  10 597.634 326.147  21
   7  -4 -10 26.7851 113.226  17
   7  -4 -10 253.719 152.871  25
   7  -4 -10 248.991 177.706  36
  -7   4  10 239.373 175.077  35
  -7   4   9 3631.00 570.557  21
   7  -4  -9 3684.40 410.770  17
   7  -4  -9 3956.70 463.520  25
   7  -4  -9 3460.04 463.880  36
  -7   4   9 4695.70 584.464  35
  -7   4   8-137.215 275.268  21
   7  -4  -8 179.117 147.797  17
   7  -4  -8-46.7779 177.357  25
   7  -4  -8 403.052 235.270  36
  -7   4   8 491.597 269.087  35
  -7   4   7 60606.6 2235.32  21
   7  -4  -7 66726.4 2027.99  25
   7  -4  -7 65044.9 1961.06  36
  -7   4   7 63563.5 2233.43  35
  -7   4   6 125765. 3109.25  21
   7  -4  -6 131028. 2629.26  34
   7  -4  -6 127030. 2786.40  25
   7  -4  -6 123851. 2652.52  36
  -7   4   6 128307. 3140.28  35
  -7   4   5-75.2738 226.989  21
   7  -4  -5 168.447 152.690  25
  -7   4   5 64.3532 131.971   2
   7  -4  -5 410.709 198.440  36
  -7   4   5 177.119 228.105  35
  -7   4   4 59449.2 1947.88  21
   7  -4  -4 63615.8 1959.98  29
  -7   4   4 62024.2 1914.59  16
   7  -4  -4 62883.7 2028.27  27
  -7   4   4 60026.6 1763.78   2
   7  -4  -4 63053.1 1873.73  25
   7  -4  -4 63271.7 1697.62  36
  -7   4   4 60617.2 2094.04  35
  -7   4   3 125084. 2627.21  21
  -7   4   3 121249. 2964.67   6
   7  -4  -3 120575. 2632.39  29
  -7   4   3 113507. 2621.42  16
   7  -4  -3 127831. 3124.78  27
   7  -4  -3 115096. 2448.39  25
  -7   4   3 124299. 2904.66  35
  -7   4   2 185781. 3498.08   6
   7  -4  -2 192961. 3221.89  29
  -7   4   2 184325. 3368.00  16
   7  -4  -2 188055. 4042.43  27
   7  -4  -2 186535. 2938.45  25
  -7   4   2 184817. 3500.22  35
  -7   4   1 452.065 240.903  16
   7  -4  -1 85.5255 253.055  27
  -7   4   1-138.547 189.044  35
  -7   4   0 9499.94 776.248  14
  -7   4   0 8743.77 762.963  35
  -7   4  -1 11023.8 735.370   9
  -7   4  -1 10802.9 828.033  14
  -7   4  -1 9661.28 796.048  35
  -7   4  -1 9727.72 732.211  12
  -7   4  -2 2110.12 335.244  12
  -7   4  -2 1499.21 298.104   9
  -7   4  -2 1151.25 311.970  14
  -7   4  -3 19694.2 1015.57   9
  -7   4  -3 20007.3 1071.42  14
  -7   4  -4 3158.44 307.819   8
  -7   4  -4 4089.91 468.944  14
  -7   4  -5 3267.17 354.378  14
  -7   3  12 9215.09 651.457  21
   7  -3 -12 7649.41 411.158  17
  -7   3  11 4047.01 539.449  21
   7  -3 -11 4577.90 403.477  17
   7  -3 -11 4704.14 424.380  36
  -7   3  11 4108.18 490.330  35
   7  -3 -10 106250. 2058.91  17
   7  -3 -10 107902. 2033.77  25
   7  -3 -10 108265. 2318.89  36
  -7   3  10 111309. 2785.97  35
   7  -3  -9 7683.81 573.540  17
   7  -3  -9 7729.97 643.444  25
   7  -3  -9 8183.06 700.216  36
  -7   3   9 8357.00 847.924  35
   7  -3  -8-6.80226 159.651  25
   7  -3  -8-53.6427 157.682  36
  -7   3   8-158.126 229.687  35
   7  -3  -7 117463. 2681.08  25
   7  -3  -7 117145. 2632.58  36
  -7   3   7 116083. 3193.07  35
  -7   3   6 188211. 3280.04  13
   7  -3  -6 181572. 3155.78  36
  -7   3   6 186308. 3952.88  35
  -7   3   5 10528.7 835.823  21
   7  -3  -5 11625.9 854.692  29
  -7   3   5 11369.1 820.533  16
   7  -3  -5 11437.2 889.766  27
  -7   3   5 10719.1 784.978   2
  -7   3   5 10632.5 803.602  13
   7  -3  -5 11022.9 746.204  36
  -7   3   5 9861.62 906.165  35
   7  -3  -4 259935. 3935.78  29
  -7   3   4 255688. 3831.33  16
   7  -3  -4 246708. 4343.49  27
  -7   3   4 250561. 3604.72   2
  -7   3   4 247838. 3928.91  13
  -7   3   4 255555. 4332.63  35
  -7   3   3 22450.1 1202.51   6
   7  -3  -3 24415.7 1195.05  29
  -7   3   3 23067.0 1173.50  16
   7  -3  -3 23591.9 1443.14  27
  -7   3   3 24527.3 1314.24  35
  -7   3   2 85142.6 2262.11   6
   7  -3  -2 90052.8 2210.96  29
  -7   3   2 89534.0 2309.41  16
   7  -3  -2 88832.2 2909.13  27
  -7   3   2 87461.1 2403.16  35
  -7   3   1 56374.1 1805.24   6
   7  -3  -1 56529.1 1993.31  31
  -7   3   1 59122.0 1901.42  16
  -7   3   1 57364.8 1916.24  35
  -7   3   0 24179.0 1210.43  16
  -7   3   0 23554.6 1085.66   9
  -7   3   0 23440.7 1247.58  14
  -7   3   0 22765.5 1196.87  35
  -7   3  -1 6460.48 630.871  16
  -7   3  -1 6894.43 638.278   9
  -7   3  -1 7952.97 728.050  14
  -7   3  -1 7895.94 700.458  35
  -7   3  -2 3667.47 475.868   9
  -7   3  -2 3519.38 472.006  14
  -7   3  -3 30839.5 1287.29   9
  -7   3  -3 31228.6 1328.87  14
  -7   3  -4 3089.20 401.561   9
  -7   3  -4 3904.00 450.037  14
  -7   3  -5 5844.96 446.926  14
   7  -2 -12 770.097 148.952  17
   7  -2 -12 895.991 171.334  36
  -7   2  12 516.722 198.082  35
   7  -2 -11 856.545 202.813  17
   7  -2 -11 876.689 227.322  36
  -7   2  11 927.682 325.342  35
   7  -2 -10 54648.3 1459.23  17
   7  -2 -10 56947.8 1517.95  25
   7  -2 -10 57702.0 1735.37  36
  -7   2  10 55031.1 2116.00  35
  -7   2   9 277.070 265.330  35
   7  -2  -9 137.459 112.243  17
   7  -2  -9 450.832 221.579  25
   7  -2  -9 613.394 232.631  36
   7  -2  -8 36493.8 1476.69  25
  -7   2   8 38939.8 1521.08  13
   7  -2  -8 36804.0 1497.72  36
  -7   2   8 37882.7 1872.51  35
  -7   2   7 24481.2 1269.74  13
   7  -2  -7 26979.3 1255.49  36
  -7   2   7 27426.0 1580.07  35
  -7   2   6 10607.2 780.608  16
  -7   2   6 9934.88 829.158  13
   7  -2  -6 10007.6 738.914  36
  -7   2   6 10430.6 977.141  35
   7  -2  -5 5646.49 605.049  29
  -7   2   5 6113.98 622.367  16
   7  -2  -5 5470.97 657.617  27
  -7   2   5 5859.99 655.626  13
   7  -2  -5 5307.39 511.842  36
  -7   2   5 4864.00 657.132  35
  -7   2   4 115910. 2571.53   6
   7  -2  -4 124587. 2743.25  29
  -7   2   4 118759. 2626.69  16
   7  -2  -4 123899. 3176.90  27
  -7   2   4 120331. 2861.47  13
  -7   2   4 122919. 3021.56  35
  -7   2   3 41795.5 1497.77   6
   7  -2  -3 44527.9 1617.85  29
  -7   2   3 43859.8 1619.21  16
   7  -2  -3 45147.6 2029.67  27
  -7   2   3 44457.7 1752.51  35
  -7   2   2 40288.6 1445.60   6
   7  -2  -2 44203.9 1570.29  29
  -7   2   2 44040.1 1633.23  16
   7  -2  -2 44090.5 2114.75  27
  -7   2   2 42915.9 1655.56  35
  -7   2   1 34485.7 1452.45  16
  -7   2   1 38340.9 1611.16  14
  -7   2   1 33763.0 1438.43  35
  -7   2   0 614.230 256.825  16
  -7   2   0 458.236 200.743  14
  -7   2   0 825.448 254.493  35
  -7   2  -1 322.878 218.250  16
  -7   2  -1 116.378 156.516   9
  -7   2  -1 507.601 265.330  14
  -7   2  -1 696.614 223.713  35
  -7   2  -2 15179.6 936.601   9
  -7   2  -2 15774.8 982.841  14
  -7   2  -3 5766.26 551.081   9
  -7   2  -3 7375.81 628.317  14
  -7   2  -4 7598.81 568.603   9
  -7   2  -4 7316.67 558.572  14
  -7   2  -5 1332.50 203.430  14
   7  -1 -12 17881.8 651.382  17
   7  -1 -12 18186.4 704.237  36
  -7   1  12 19976.8 1031.07  35
   7  -1 -11 2434.46 303.648  17
   7  -1 -11 2306.19 342.751  36
  -7   1  11 2296.72 448.229  35
   7  -1 -10 26693.3 989.367  17
   7  -1 -10 25492.4 1026.68  25
   7  -1 -10 27557.7 1213.02  36
  -7   1  10 25816.1 1500.12  35
  -7   1   9 2102.45 494.781  35
   7  -1  -9 1238.22 285.475  25
  -7   1   9 1959.36 385.657  13
   7  -1  -9 1440.98 324.962  36
  -7   1   8 60267.8 2049.04  13
   7  -1  -8 59840.8 1888.02  36
  -7   1   8 55637.7 2281.93  35
  -7   1   7 26757.8 1410.04  13
   7  -1  -7 25562.9 1217.68  36
  -7   1   7 26319.2 1555.37  35
  -7   1   6 930.516 302.873  16
  -7   1   6 436.001 260.398  13
   7  -1  -6 475.452 204.803  36
  -7   1   6 507.112 299.279  35
   7  -1  -5 51046.6 1798.27   1
  -7   1   5 54015.1 1779.82  16
  -7   1   5 53433.6 1986.07  13
   7  -1  -5 50986.1 1562.28  36
  -7   1   5 52686.8 2036.00  35
  -7   1   4 127074. 2760.61  16
  -7   1   4 118549. 2963.83  13
  -7   1   4 122990. 2963.97  35
   7  -1  -4 126602. 2963.59   1
  -7   1   3 368.409 228.967  16
  -7   1   3 284.810 177.090  13
  -7   1   3 809.311 265.059  35
  -7   1   2 205968. 3437.57  20
  -7   1   2 214836. 3627.17  16
  -7   1   2 212152. 3512.13  35
  -7   1   1 43207.2 1618.85  20
  -7   1   1 46427.4 1669.41  16
  -7   1   1 43507.7 1678.10  14
  -7   1   1 45976.8 1561.79  35
  -7   1   0 3787.28 516.449  20
  -7   1   0 3651.85 472.472  16
  -7   1   0 3877.36 513.184  14
  -7   1   0 3803.54 430.240  35
  -7   1  -1 3391.00 499.253  20
  -7   1  -1 3850.63 441.677  16
  -7   1  -1 4201.70 511.485  14
  -7   1  -2 88054.1 2192.91   9
  -7   1  -2 88247.4 2159.55  14
  -7   1  -3 15368.4 848.032   9
  -7   1  -3 14985.3 808.866  14
  -7   1  -4 21494.3 842.327   9
  -7   1  -4 20734.8 782.122  14
   7   0 -12 41045.8 923.407  17
   7   0 -12 41869.2 1068.67  36
   7   0 -11 11291.1 571.367  17
  -7   0  11 11308.4 699.753  13
   7   0 -11 10863.0 677.744  36
  -7   0  11 11418.8 919.871  35
   7   0 -10 11740.8 695.534  25
  -7   0  10 11279.6 827.590  13
   7   0 -10 13744.6 856.420  36
  -7   0  10 13492.9 1069.72  35
  -7   0   9 2377.10 529.443  35
  -7   0   9 1830.70 379.743  13
   7   0  -9 2279.75 398.581  36
  -7   0   8 64799.1 2235.04  13
   7   0  -8 66469.6 1980.41  36
  -7   0   8 65171.5 2418.83  35
  -7   0   7 11103.0 778.864  16
  -7   0   7 10256.9 926.019  13
   7   0  -7 12061.3 850.333  36
  -7   0   7 10837.1 995.646  35
  -7   0   6 8026.90 694.930  16
  -7   0   6 8677.83 845.438  13
   7   0  -6 8832.67 687.531  36
  -7   0   6 10212.0 925.552  35
  -7   0   5 16716.1 1009.54  16
  -7   0   5 15869.6 1137.32  13
   7   0  -5 15160.2 840.946  36
  -7   0   5 16166.4 1094.35  35
  -7   0   4 15717.0 998.994  16
  -7   0   4 14603.8 1071.87  13
  -7   0   4 14684.4 975.536  35
  -7   0   3 65121.4 2014.11  16
  -7   0   3 63854.7 2183.08  13
  -7   0   3 63643.2 1872.90  35
  -7   0   2 20614.2 1079.84  20
  -7   0   2 20952.9 1136.16  16
  -7   0   2 21091.2 1140.02  14
  -7   0   1 19453.2 1085.09  20
  -7   0   1 20785.4 1092.77  16
  -7   0   1 20228.0 1085.41  14
  -7   0   0 10530.3 818.752  20
  -7   0   0 10068.6 720.050  16
  -7   0   0 10456.6 757.931  14
  -7   0  -1 2984.16 448.190  20
  -7   0  -1 3026.39 395.473  14
  -7   0  -2 15366.5 879.850  20
  -7   0  -2 16878.4 904.392   9
  -7   0  -2 14984.5 772.290  14
  -7   0  -3 127.952 136.263   9
  -7   0  -3 611.783 166.114  14
  -7  -1  12 37485.9 977.234  13
   7   1 -12 39059.1 983.196  36
  -7  -1  11 87.5977 138.600  13
   7   1 -11 366.456 168.901  36
  -7  -1  11 319.445 206.791  35
  -7  -1  10-118.302 172.210  13
   7   1 -10 9.70559 157.621  36
  -7  -1  10 155.501 215.622  35
  -7  -1   9 1623.83 380.366  13
   7   1  -9 1332.56 303.718  36
  -7  -1   9 1566.08 414.668  35
  -7  -1   8 51961.4 1592.40  16
  -7  -1   8 52201.5 2019.58  13
   7   1  -8 53376.0 1738.35  36
  -7  -1   8 53497.2 2044.47  35
  -7  -1   7 28101.2 1256.36  16
  -7  -1   7 27888.3 1502.92  13
   7   1  -7 26950.7 1221.44  36
  -7  -1   7 26900.5 1417.50  35
  -7  -1   6 421.529 234.929  16
  -7  -1   6 230.790 253.017  13
   7   1  -6 319.795 200.430  36
  -7  -1   6 27.7307 205.262  35
  -7  -1   5 19302.0 1094.95  16
  -7  -1   5 17235.6 1102.47  24
  -7  -1   5 18241.5 1208.52  13
   7   1  -5 17513.2 888.615  36
  -7  -1   5 17853.1 1026.25  35
  -7  -1   4 9427.44 789.572  16
  -7  -1   4 8783.25 739.110  24
  -7  -1   4 9810.91 865.419  13
  -7  -1   3 967.035 282.668  16
  -7  -1   3 1638.34 315.929  14
  -7  -1   2 32152.4 1288.57  20
  -7  -1   2 32832.9 1385.63  16
  -7  -1   2 32322.8 1252.69  14
  -7  -1   1 74131.5 1999.25  20
  -7  -1   1 76550.3 1988.76  16
  -7  -1   1 76959.5 1840.20  14
  -7  -1   0 8724.92 703.281  20
  -7  -1   0 8674.61 603.154  16
  -7  -1   0 6733.98 523.285  14
  -7  -1  -1 90142.8 2068.51  20
  -7  -1  -2 19294.9 849.609   9
  -7  -1  -3 15146.7 597.062   9
  -7  -2  12 22474.2 740.799  13
   7   2 -12 21608.8 649.136  36
  -7  -2  12 22862.6 818.912  35
  -7  -2  11 702.097 228.692  13
   7   2 -11 690.993 187.136  36
  -7  -2  11 753.290 247.296  35
  -7  -2  10 17614.5 1008.62  13
   7   2 -10 18381.5 890.396  36
  -7  -2  10 17740.6 986.530  35
  -7  -2   9 94673.2 2509.30  13
   7   2  -9 88456.5 2073.72  36
  -7  -2   9 89587.3 2279.35  35
  -7  -2   8 4258.36 458.412  16
  -7  -2   8 6154.35 707.357  13
   7   2  -8 5522.68 545.052  36
  -7  -2   8 5441.23 588.192  35
  -7  -2   7 53768.0 1693.12  16
  -7  -2   7 54437.2 2026.64  13
   7   2  -7 53915.5 1647.21  36
  -7  -2   6 28816.6 1290.37  16
  -7  -2   6 29106.9 1462.07  13
   7   2  -6 29919.7 1181.98  36
  -7  -2   5 42098.7 1580.40  16
  -7  -2   5 38726.4 1622.54  24
  -7  -2   5 42184.7 1710.99  13
  -7  -2   4 85761.4 2259.74  16
  -7  -2   4 82485.6 2221.41  24
  -7  -2   4 87587.8 2356.78  13
  -7  -2   3 169855. 3095.20  16
  -7  -2   3 161347. 2849.16  24
  -7  -2   2 26933.2 1084.83  20
  -7  -2   2 28037.7 1192.71  16
  -7  -2   1 9502.99 657.937  20
  -7  -2   1 9767.37 634.423  16
  -7  -2   0 47612.5 1395.18  20
  -7  -2  -1 32335.7 1044.92  20
  -7  -2  -1 31478.1 1040.78   9
  -7  -3  11 10257.5 588.819  13
   7   3 -11 9778.46 493.101  36
  -7  -3  10 14216.5 814.176  13
   7   3 -10 13589.3 680.821  36
  -7  -3   9 125483. 2613.74  13
   7   3  -9 129737. 2260.88  36
  -7  -3   8-61.9550 139.749  16
  -7  -3   8-60.0683 206.877  13
   7   3  -8 46.0397 123.369  36
  -7  -3   7 48604.9 1499.87  16
  -7  -3   7 50642.6 1744.75  13
   7   3  -7 48126.5 1412.91  36
  -7  -3   6 14713.9 859.647  16
  -7  -3   6 16628.3 990.198  13
   7   3  -6 16080.5 778.422  36
  -7  -3   5 9815.06 724.097  16
  -7  -3   5 8780.24 726.646  24
  -7  -3   5 8554.52 681.455  13
  -7  -3   4 2652.07 389.292  16
  -7  -3   4 2901.49 402.075  24
  -7  -3   3 6117.38 553.588  16
  -7  -3   3 5258.49 472.678  24
  -7  -3   2 13586.1 647.362  20
  -7  -3   2 13268.9 703.612  16
  -7  -3   1 123.710 105.503  20
  -7  -3   1 75.1210 97.8016  16
  -7  -3   0 813.531 171.654  20
  -7  -4  10 79141.1 1489.10  13
   7   4 -10 78131.3 1290.71  36
  -7  -4   9 25525.9 952.573  13
   7   4  -9 25170.8 827.012  36
  -7  -4   8 12148.1 597.487  16
  -7  -4   8 12076.1 690.048  13
   7   4  -8 12218.1 602.072  36
  -7  -4   7 38314.8 1162.80  16
  -7  -4   7 37279.7 1193.23  13
   7   4  -7 39093.5 1046.07  36
  -7  -4   6 21417.2 913.574  16
   7   4  -6 20866.6 699.946  36
  -7  -4   5 21428.6 914.754  16
  -7  -4   5 19445.9 914.166  24
  -7  -4   4 3924.82 391.230  16
  -7  -4   4 3091.66 343.437  24
  -7  -4   3 50298.7 1198.39  16
  -7  -4   2 555.799 116.981  16
  -7  -5   6 11454.0 507.108  16
   8 -10  -4 41743.5 995.874  34
  -8  10   4 40005.4 895.340  33
   8 -10  -4 41721.2 927.408  25
  -8  10   4 40038.7 877.094  22
   8 -10  -3 10907.6 579.682  34
  -8  10   3 10632.0 470.503  33
   8 -10  -3 11162.4 472.337  25
  -8  10   3 10075.4 428.721  22
   8 -10  -2 170.254 126.737  34
  -8  10   2 212.188 79.1493  33
  -8  10   2 200.636 113.799  18
   8 -10  -2 306.512 122.391  37
   8 -10  -1 47380.1 1243.39  34
  -8  10   1 47235.2 1174.69  18
   8 -10  -1 45360.3 1167.84  37
  -8  10   1 44318.4 966.211  12
   8 -10   0 32652.5 952.253  34
  -8  10   0 32480.0 918.450  18
   8 -10   0 32179.8 995.729  37
  -8  10   0 30656.6 841.144  12
   8 -10   1 15386.3 542.083  34
  -8  10  -1 16189.6 577.743  18
   8 -10   1 15567.6 659.120  37
  -8  10  -1 15697.9 594.786  12
  -8   9   6 13462.3 632.821  33
   8  -9  -6 12536.7 600.265  25
   8  -9  -5 63837.9 1398.67  34
  -8   9   5 62855.1 1449.33  33
   8  -9  -5 65507.3 1486.32  25
   8  -9  -4 123642. 2243.55  34
  -8   9   4 119622. 2024.46  33
   8  -9  -4 123421. 2088.61  25
  -8   9   3 773.047 160.808  12
   8  -9  -3 1201.59 281.162  34
  -8   9   3 1219.84 222.944  33
   8  -9  -3 1137.84 221.363  25
   8  -9  -3 947.896 224.952  37
  -8   9   3 1012.51 202.372  22
   8  -9  -2 22909.9 1052.79  34
   8  -9  -2 23007.7 806.967  25
   8  -9  -2 22467.7 998.876  37
  -8   9   2 22319.2 884.474  12
   8  -9  -1 43991.3 1431.56  34
   8  -9  -1 41894.0 1391.72  37
  -8   9   1 41710.0 1262.04  12
  -8   9   0 1952.02 291.681  12
   8  -9   0 1685.65 284.759  34
  -8   9   0 1912.76 279.419  18
   8  -9   0 1592.60 301.155  37
   8  -9   1 26016.9 928.478  34
  -8   9  -1 25490.1 856.639  18
   8  -9   1 26134.2 1038.97  37
  -8   9  -1 25871.9 950.104  12
  -8   9  -2 5532.51 327.968  18
  -8   9  -2 6140.70 388.699   8
   8  -9   2 5958.07 459.635  37
  -8   9  -2 6158.99 438.083  12
  -8   9  -3 1.22082 76.5234   8
   8  -9   3 194.181 103.491  37
  -8   9  -3-10.4637 89.8406  12
  -8   8   8 10480.6 556.137  33
   8  -8  -8 10269.3 494.932  25
  -8   8   7 2027.23 300.909  21
  -8   8   7 1727.10 300.476  33
   8  -8  -7 1929.12 276.573  25
  -8   8   6 17225.4 902.793  21
   8  -8  -6 16352.8 721.518  34
  -8   8   6 16840.1 873.604  33
   8  -8  -6 17564.7 862.236  25
  -8   8   5 5800.73 562.357  21
   8  -8  -5 6237.85 545.158  34
  -8   8   5 5755.94 527.802  33
   8  -8  -5 6463.61 552.134  25
   8  -8  -4 11938.1 813.326  34
  -8   8   4 12770.0 744.386  33
   8  -8  -4 12106.0 758.638  25
  -8   8   4 12065.4 683.442  12
  -8   8   4 12424.5 831.018  21
   8  -8  -3 8765.15 729.744  34
   8  -8  -3 8296.62 606.543  25
  -8   8   3 7235.27 589.256  12
   8  -8  -2 65036.9 1966.76  34
   8  -8  -2 62309.8 1511.63  25
  -8   8   2 61131.6 1731.12  12
   8  -8  -1 14533.1 918.621  34
  -8   8   1 14565.9 860.179  12
   8  -8   0 4833.16 534.405  34
  -8   8   0 4922.87 456.055  18
  -8   8   0 5132.83 524.861  12
   8  -8   1 53396.9 1511.63  34
  -8   8  -1 51708.1 1276.65  18
   8  -8   1 55006.9 1682.79  37
  -8   8  -1 55824.5 1577.73  12
   8  -8   2 80382.7 1520.95  34
  -8   8  -2 78556.3 1502.66   8
   8  -8   2 78721.1 1836.90  37
  -8   8  -2 84253.1 1749.60  12
  -8   8  -3 2458.96 245.204   8
   8  -8   3 2006.48 253.477  37
  -8   8  -3 2713.85 286.483  12
  -8   7   9 3755.03 356.315  21
  -8   7   9 3986.87 376.551  33
   8  -7  -9 3931.65 300.472  25
  -8   7   8 3644.91 429.523  21
  -8   7   8 3096.28 407.060  33
   8  -7  -8 3584.49 371.829  25
  -8   7   7 2762.60 431.183  21
  -8   7   7 2440.26 392.810  33
   8  -7  -7 2634.31 372.827  25
  -8   7   6 85110.0 2281.86  21
   8  -7  -6 83279.4 1890.71  34
  -8   7   6 81730.9 2068.47  33
   8  -7  -6 84942.7 2098.57  25
  -8   7   5 12537.3 902.805  21
   8  -7  -5 11303.0 794.528  34
  -8   7   5 10990.3 745.813  33
   8  -7  -5 11884.8 807.571  25
  -8   7   5 9092.79 636.364  12
  -8   7   4 350.061 167.000  12
  -8   7   4 27.0816 164.844  21
   8  -7  -4 55.7948 175.849  34
   8  -7  -4 289.125 184.707  25
  -8   7   4 7.64681 122.635  35
   8  -7  -3 38216.6 1583.84  34
   8  -7  -3 37780.4 1352.35  25
  -8   7   3 37942.7 1356.70  35
  -8   7   3 34748.3 1413.50  12
  -8   7   3 38026.4 1512.53  21
   8  -7  -2 50770.4 1840.27  34
   8  -7  -2 48815.2 1424.33  25
  -8   7   2 50045.4 1589.84  35
  -8   7   2 49161.7 1695.07  12
   8  -7  -1 5672.23 619.346  34
  -8   7   1 5613.22 554.990  35
  -8   7   1 6130.40 604.712  12
   8  -7   0 62723.9 1904.76  34
  -8   7   0 60945.2 1831.86  12
   8  -7   1 6277.85 572.996  34
  -8   7  -1 6882.43 499.555   8
  -8   7  -1 5611.67 534.216  12
   8  -7   2 7822.71 533.261  34
  -8   7  -2 7411.82 481.020   8
   8  -7   2 7435.00 618.071  37
  -8   7  -2 7530.56 558.144  12
  -8   7  -3 663.451 178.385  12
  -8   7  -3 465.431 129.504   8
   8  -7   3 374.450 130.662  37
  -8   7  -4 19278.7 519.404   8
  -8   6  10 1278.88 237.778  21
   8  -6 -10 746.739 111.994  25
  -8   6   9 19026.1 957.625  21
   8  -6  -9 17179.4 763.834  25
  -8   6   8 16361.7 990.614  21
   8  -6  -8 15650.1 846.694  25
   8  -6  -8 14792.4 819.016  36
  -8   6   7 40218.5 1641.06  21
   8  -6  -7 38802.2 1440.16  25
   8  -6  -7 37483.4 1364.65  36
  -8   6   6 39174.7 1645.10  21
   8  -6  -6 40415.3 1420.57  34
   8  -6  -6 38893.4 1497.58  25
   8  -6  -6 38785.1 1401.62  36
  -8   6   6 37597.6 1375.50  35
  -8   6   5 356.108 224.955  21
   8  -6  -5 216.763 206.198  34
   8  -6  -5 38.5586 145.971  25
   8  -6  -5 290.872 160.086  36
  -8   6   5 13.3317 158.082  35
  -8   6   4-49.3000 208.214  21
   8  -6  -4 173.008 221.567  34
   8  -6  -4 132.753 181.977  25
  -8   6   4 425.646 203.234  35
  -8   6   3 11540.0 832.539  21
   8  -6  -3 11250.8 889.880  34
   8  -6  -3 11409.0 771.256  25
  -8   6   3 11449.1 839.226  35
  -8   6   2 2534.33 434.277  12
   8  -6  -2 3164.84 520.624  34
  -8   6   2 2481.16 362.523  14
  -8   6   2 2228.51 397.351  35
  -8   6   1 121695. 2724.93  12
   8  -6  -1 112020. 2728.92  34
  -8   6   1 112560. 2355.00  14
  -8   6   1 115321. 2615.72  35
  -8   6   0 918.156 264.547  12
   8  -6   0 648.686 250.032  34
  -8   6   0 1474.57 317.450  14
  -8   6   0 1137.00 303.438  35
   8  -6   1 4044.00 486.980  34
  -8   6  -1 4373.40 445.902  14
  -8   6  -1 4992.51 518.335  12
   8  -6   2 51053.2 1414.17  34
  -8   6  -2 49481.3 1169.70   8
  -8   6  -2 52128.0 1407.57  14
  -8   6  -2 52374.4 1428.27  12
  -8   6  -3 9782.75 462.399   8
  -8   6  -3 10051.0 549.916  14
  -8   6  -3 9843.60 497.340  12
  -8   6  -4 3822.34 273.093  14
  -8   5  10 26330.9 1106.39  21
   8  -5 -10 24912.3 708.974  17
   8  -5 -10 24850.3 795.970  25
   8  -5 -10 25609.2 920.353  36
  -8   5   9 23998.1 1194.17  21
   8  -5  -9 21665.9 954.105  25
   8  -5  -9 23825.6 1023.40  36
  -8   5   9 22142.0 919.876  35
  -8   5   8 1046.00 354.322  21
   8  -5  -8 1640.26 313.570  25
   8  -5  -8 1138.79 293.983  36
  -8   5   8 1095.01 275.858  35
  -8   5   7 150346. 3246.60  21
   8  -5  -7 153260. 2983.98  25
   8  -5  -7 146176. 2787.51  36
  -8   5   7 147569. 2996.51  35
  -8   5   6 65772.9 2163.14  21
   8  -5  -6 68415.0 1916.03  34
   8  -5  -6 67774.3 2033.72  25
   8  -5  -6 69927.9 1905.00  36
  -8   5   6 67879.4 2116.01  35
  -8   5   5 774.764 274.818  21
   8  -5  -5 986.907 302.346  34
   8  -5  -5 792.504 260.597  25
   8  -5  -5 1320.94 265.299  36
  -8   5   5 997.345 323.322  35
  -8   5   4 71871.6 2086.48  21
   8  -5  -4 73497.2 2219.73  34
   8  -5  -4 73140.5 2059.87  25
  -8   5   4 74449.5 2240.70  35
  -8   5   3 5465.20 551.801  21
   8  -5  -3 5199.83 625.613  34
   8  -5  -3 5554.81 561.905  25
  -8   5   3 4902.52 590.561  35
  -8   5   2 21869.7 1162.47  14
  -8   5   2 20951.7 1182.03  35
  -8   5   1 2642.21 445.498  12
  -8   5   1 2587.22 407.034  14
  -8   5   1 2760.74 446.469  35
   8  -5   0 86468.4 2336.44  34
  -8   5   0 85423.0 2178.93  14
  -8   5   0 89481.6 2332.28  35
  -8   5   0 88438.6 2209.73  12
   8  -5   1 69599.9 1947.82  34
  -8   5  -1 70132.5 1898.95  14
  -8   5  -1 67386.8 1759.74  12
   8  -5   2 3434.55 401.806  34
  -8   5  -2 3631.23 413.533  14
  -8   5  -2 3837.58 374.322  12
  -8   5  -3 62051.7 1492.53  14
  -8   5  -4 18316.6 671.312  14
  -8   4  11 5739.79 492.292  21
   8  -4 -11 5046.00 283.904  17
   8  -4 -11 4829.23 364.025  36
  -8   4  10 27710.0 1234.17  21
   8  -4 -10 27638.8 943.955  25
   8  -4 -10 28009.0 1047.34  36
  -8   4  10 27771.9 1081.63  35
  -8   4   9 5123.14 614.869  21
   8  -4  -9 4927.96 493.149  25
   8  -4  -9 5909.01 557.363  36
  -8   4   9 5491.32 567.133  35
  -8   4   8 209.901 234.050  21
   8  -4  -8 418.260 202.882  25
   8  -4  -8 142.840 169.394  36
  -8   4   8 49.7194 182.024  35
  -8   4   7 14289.5 1016.33  21
   8  -4  -7 13082.7 897.552  25
   8  -4  -7 14529.0 891.461  36
  -8   4   7 14974.1 1051.20  35
  -8   4   6 122112. 2876.00  21
   8  -4  -6 124179. 2623.28  34
   8  -4  -6 126319. 2787.05  25
   8  -4  -6 126349. 2538.87  36
  -8   4   6 121305. 3031.17  35
  -8   4   5 4581.87 554.006  21
   8  -4  -5 4351.85 533.868  25
   8  -4  -5 4835.91 488.513  36
  -8   4   5 5100.50 632.086  35
  -8   4   4 25707.8 1323.25  16
   8  -4  -4 28512.9 1281.18  25
  -8   4   3 7273.57 716.292  16
   8  -4  -3 7399.68 629.054  25
  -8   4   3 7269.66 730.060  35
  -8   4   2 23947.6 1283.32  16
  -8   4   2 26034.8 1328.64  35
  -8   4   1 69275.3 2110.59  14
  -8   4   1 72334.0 2136.77  35
  -8   4   0 23332.2 1083.87  12
  -8   4   0 23516.9 1189.21  14
  -8   4   0 21975.7 1154.62  35
  -8   4  -1 4332.72 434.071   9
  -8   4  -1 5082.89 544.826  14
  -8   4  -2 25211.7 975.419   9
  -8   4  -2 25523.1 1101.06  14
  -8   4  -3 6034.16 483.121  14
  -8   4  -4 2560.62 264.176  14
  -8   3  11 10869.6 719.348  21
   8  -3 -11 12150.5 623.587  36
  -8   3  11 11779.3 677.167  35
  -8   3  10 41001.2 1537.81  21
   8  -3 -10 41832.7 1229.27  25
   8  -3 -10 41749.8 1331.03  36
  -8   3  10 41571.3 1541.30  35
  -8   3   9 36283.7 1547.68  21
   8  -3  -9 34942.2 1308.40  25
   8  -3  -9 37713.6 1387.77  36
  -8   3   9 35126.2 1555.85  35
  -8   3   8 12210.9 935.020  21
   8  -3  -8 12774.8 863.695  25
   8  -3  -8 14506.7 895.532  36
  -8   3   8 13554.0 1027.19  35
  -8   3   7 53922.2 1894.49  21
   8  -3  -7 57179.9 1868.64  25
   8  -3  -7 54202.1 1712.11  36
  -8   3   7 55539.0 2114.13  35
  -8   3   6 103373. 2509.03  21
  -8   3   6 101391. 2418.69  16
   8  -3  -6 100451. 2492.05  25
   8  -3  -6 106557. 2310.43  36
  -8   3   6 104786. 2886.28  35
  -8   3   5 141840. 2953.58  16
   8  -3  -5 138800. 2472.81  36
  -8   3   5 144122. 3340.44  35
  -8   3   4 16754.1 1054.14  16
  -8   3   4 15585.2 1080.51  35
  -8   3   3 2554.95 456.393  16
  -8   3   3 2720.96 467.033  35
  -8   3   2 9398.95 797.844  16
  -8   3   2 9313.42 809.554  14
  -8   3   2 9054.95 770.749  35
  -8   3   1 61428.5 1957.54  16
  -8   3   1 62555.3 2011.97  14
  -8   3   1 65912.1 1977.95  35
  -8   3   0 69772.0 1736.35   9
  -8   3   0 68512.7 2019.74  14
  -8   3   0 70784.2 1946.61  35
  -8   3   0 67978.8 1682.31  12
  -8   3  -1 2360.23 353.349   9
  -8   3  -1 3342.14 446.401  14
  -8   3  -2 76714.7 1714.23   9
  -8   3  -2 79378.3 1890.51  14
  -8   3  -3 9109.48 532.545   9
  -8   3  -3 8185.30 533.314  14
  -8   2  12 19139.0 769.422  21
   8  -2 -12 18089.0 585.252  36
  -8   2  12 19631.4 738.271  35
  -8   2  11 1.04346 161.074  21
   8  -2 -11 229.199 138.925  36
  -8   2  11 44.8347 160.656  35
  -8   2  10 7910.95 673.059  21
   8  -2 -10 8390.25 569.760  25
   8  -2 -10 8974.51 633.375  36
  -8   2  10 8162.28 739.967  35
  -8   2   9 4842.78 566.251  21
   8  -2  -9 4945.40 508.195  25
   8  -2  -9 5301.78 534.577  36
  -8   2   9 4557.39 617.016  35
   8  -2  -8 92584.1 2300.72  25
  -8   2   8 96674.7 2337.30  13
   8  -2  -8 96045.9 2256.25  36
  -8   2   8 98316.9 2789.59  35
  -8   2   7 99233.3 2386.09  21
  -8   2   7 102978. 2328.35  16
  -8   2   7 108952. 2631.17  13
   8  -2  -7 103253. 2328.09  36
  -8   2   7 101504. 2889.23  35
  -8   2   6 10104.4 771.027  16
  -8   2   6 8256.55 765.527  13
   8  -2  -6 7934.01 629.174  36
  -8   2   6 8649.58 850.823  35
  -8   2   5 80440.1 2234.17  16
  -8   2   5 84320.0 2444.58  13
  -8   2   5 82542.4 2495.45  35
  -8   2   4 41979.8 1633.85  16
  -8   2   4 41264.0 1692.75  35
  -8   2   3 3836.83 532.858  16
  -8   2   3 4564.83 560.365  35
  -8   2   2 74581.1 2143.10  16
  -8   2   2 73142.2 2192.86  14
  -8   2   2 71248.0 2035.90  35
  -8   2   1 9497.16 753.147  16
  -8   2   1 9546.26 671.096   9
  -8   2   1 10009.0 797.394  14
  -8   2   1 10506.8 745.562  35
  -8   2   0 36496.2 1368.93  16
  -8   2   0 37376.7 1308.18   9
  -8   2   0 39611.7 1486.90  14
  -8   2  -1 832.127 227.575   9
  -8   2  -1 1064.60 274.435  14
  -8   2  -2 16322.8 773.143   9
  -8   2  -2 17564.4 822.342  14
  -8   2  -3 4556.34 355.433   9
  -8   2  -3 4241.16 342.324  14
  -8   1  12 18980.6 717.177  21
   8  -1 -12 19122.0 613.741  36
  -8   1  12 21061.8 814.327  35
  -8   1  11 1671.73 285.493  21
   8  -1 -11 1667.28 250.807  36
  -8   1  11 2027.24 355.210  35
   8  -1 -10 260.521 144.500  25
  -8   1  10 699.786 214.659  13
   8  -1 -10 603.772 219.653  36
  -8   1  10 672.820 309.419  35
   8  -1  -9 1500.06 297.833  25
  -8   1   9 1947.42 354.328  13
   8  -1  -9 2597.03 371.805  36
  -8   1   9 2287.21 466.825  35
  -8   1   8 45663.4 1707.26  13
   8  -1  -8 42765.7 1480.09  36
  -8   1   8 44207.1 1854.05  35
  -8   1   7 51891.4 1652.66  16
  -8   1   7 54619.9 1952.11  13
   8  -1  -7 54709.9 1655.68  36
  -8   1   7 53474.0 2026.61  35
  -8   1   6 25544.6 1219.66  16
  -8   1   6 24524.3 1344.97  13
   8  -1  -6 24775.7 1062.92  36
  -8   1   6 24073.6 1332.62  35
  -8   1   5 3676.13 488.424  16
  -8   1   5 3532.01 539.082  13
  -8   1   5 3132.32 502.996  35
  -8   1   4 7424.28 701.544  16
  -8   1   4 6380.83 638.769  35
  -8   1   3 11121.4 844.657  16
  -8   1   3 10923.4 833.774  14
  -8   1   3 10874.2 774.019  35
  -8   1   2 5361.26 573.508  16
  -8   1   2 6334.93 630.733  14
  -8   1   2 5710.28 523.973  35
  -8   1   1 31818.0 1287.52  16
  -8   1   1 30026.3 1268.79  14
  -8   1   0 116.604 138.692  16
  -8   1   0 459.268 177.856   9
  -8   1   0 732.271 223.659  14
  -8   1  -1 11569.2 681.644   9
  -8   1  -1 10627.0 643.454  14
  -8   1  -2 4038.24 361.376   9
  -8   1  -2 3421.75 308.717  14
  -8   0  11 7856.79 483.187  21
  -8   0  11 8380.45 484.842  13
   8   0 -11 8627.21 518.268  36
  -8   0  11 8441.05 616.793  35
  -8   0  10 468.863 189.360  21
   8   0 -10 778.877 187.177  25
  -8   0  10 619.945 197.362  13
   8   0 -10 890.440 225.066  36
  -8   0  10 169.201 171.833  35
  -8   0   9 2354.23 401.238  13
   8   0  -9 2133.55 330.302  36
  -8   0   9 1816.58 399.247  35
  -8   0   8 21543.4 967.709  16
  -8   0   8 20450.2 1152.16  13
   8   0  -8 21963.8 1017.52  36
  -8   0   8 22542.4 1231.35  35
  -8   0   7 8178.15 655.393  16
  -8   0   7 7064.98 719.949  13
   8   0  -7 7755.85 602.879  36
  -8   0   7 7453.98 715.193  35
  -8   0   6 23152.4 1144.47  16
  -8   0   6 23424.7 1298.46  13
   8   0  -6 21945.3 946.364  36
  -8   0   6 22823.6 1179.13  35
  -8   0   5 3319.68 477.658  16
  -8   0   5 3263.37 522.180  13
  -8   0   5 2933.37 434.331  35
  -8   0   4 72673.1 2056.72  16
  -8   0   4 72563.7 2007.76  14
  -8   0   4 69004.5 1785.41  35
  -8   0   3 3065.11 461.756  16
  -8   0   3 2772.22 392.673  14
  -8   0   2 9070.32 687.712  16
  -8   0   2 8012.72 615.054  14
  -8   0   1 22335.7 978.176  16
  -8   0   1 20455.1 909.236  14
  -8   0   0 1264.18 224.982  16
  -8   0   0 1614.24 281.253   9
  -8   0   0 1640.33 248.242  14
  -8   0  -1 5222.99 417.004   9
  -8   0  -1 4807.40 323.289  14
  -8  -1  11 20565.7 751.017  13
   8   1 -11 21243.3 734.847  36
  -8  -1  11 21180.1 815.199  35
   8   1 -10 38236.7 1030.81  25
  -8  -1  10 37437.8 1253.92  13
   8   1 -10 38921.8 1144.01  36
  -8  -1  10 35501.7 1210.74  35
  -8  -1   9 75161.8 1983.60  13
   8   1  -9 76545.9 1718.34  36
  -8  -1   9 71798.0 1835.76  35
  -8  -1   8 527.698 198.141  16
  -8  -1   8 879.641 306.452  13
   8   1  -8 539.422 184.603  36
  -8  -1   8 528.261 232.079  35
  -8  -1   7 116.329 174.930  16
  -8  -1   7-30.8082 195.958  13
   8   1  -7 40.2071 105.569  36
  -8  -1   7 171.836 146.109  35
  -8  -1   6 13840.6 848.156  16
  -8  -1   6 15708.6 1010.90  13
  -8  -1   5 66031.4 1872.48  16
  -8  -1   5 63141.4 1603.74  14
  -8  -1   4 671.056 263.162  16
  -8  -1   4 846.589 190.412  14
  -8  -1   3 17138.7 917.674  16
  -8  -1   2 61903.3 1585.51  16
  -8  -1   1 81933.6 1525.31  16
  -8  -1   0 14916.8 659.252   9
   8   2 -10 33612.1 801.376  25
  -8  -2  10 36318.8 1101.97  13
   8   2 -10 35819.9 945.780  36
  -8  -2   9 26253.3 1055.01  13
   8   2  -9 26204.3 879.567  36
  -8  -2   8 1309.95 216.482  16
  -8  -2   8 1956.66 336.591  13
   8   2  -8 1812.50 247.196  36
  -8  -2   7 8526.44 582.244  16
  -8  -2   7 9579.92 704.616  13
   8   2  -7 8945.56 509.688  36
  -8  -2   6 48727.3 1446.13  16
  -8  -2   5 1635.33 297.118  16
  -8  -2   4 19370.0 901.687  16
  -8  -2   3 44523.1 1254.23  16
  -8  -2   2 3473.94 306.000  16
  -8  -2   1 7439.53 423.925   9
  -8  -3   9 8303.96 475.614  13
   8   3  -9 7938.04 367.385  36
  -8  -3   8 12397.4 515.919  16
   8   3  -8 11283.1 443.123  36
  -8  -3   7 5589.07 400.328  16
  -8  -3   6 38343.0 1079.26  16
  -8  -3   5 8725.46 518.179  16
  -8  -3   4 34890.3 947.818  16
  -8  -3   3 35699.8 789.983  16
   9  -9  -5 26297.4 714.972  34
   9  -9  -5 27348.3 739.242  25
   9  -9  -4 47421.9 1159.40  34
   9  -9  -4 47130.2 951.318  25
   9  -9  -3 3046.97 322.687  34
   9  -9  -3 2381.66 270.035  37
  -9   9   3 2714.22 248.309  12
   9  -9  -2 61901.7 1409.39  34
  -9   9   2 58852.9 1210.44  18
   9  -9  -2 58948.2 1339.82  37
  -9   9   2 59352.4 1209.52  12
  -9   9   1 213.844 118.063  12
   9  -9  -1 310.846 148.355  34
  -9   9   1 338.859 110.125  18
  -9   9   1-106.956 77.2853   8
   9  -9  -1 57.8549 108.404  37
   9  -9   0 3851.20 292.310  34
   9  -9   0 4053.55 342.399  37
  -9   9   0 3854.05 305.948  12
   9  -8  -7 7633.14 431.241  25
   9  -8  -6 25673.5 734.294  34
   9  -8  -6 28613.3 921.997  25
   9  -8  -5 15205.9 723.500  34
   9  -8  -5 15238.0 698.604  25
   9  -8  -5 14446.7 605.953  37
  -9   8   5 14133.9 568.197  12
   9  -8  -4 14838.0 789.233  34
   9  -8  -4 15019.2 681.602  25
  -9   8   4 14104.5 663.389  12
   9  -8  -3 20893.4 959.567  34
   9  -8  -3 20079.2 706.399  25
  -9   8   3 21270.8 869.748  12
   9  -8  -2 32474.6 1183.27  34
  -9   8   2 31354.0 1078.10  12
   9  -8  -1 1987.38 301.902  34
  -9   8   1 2209.40 237.738  18
  -9   8   1 2628.95 331.121  12
  -9   8   0 422.380 146.227  12
   9  -8   0 465.825 153.062  34
   9  -8   0 825.102 208.710  37
   9  -8   1 30245.9 747.967  34
   9  -8   1 32470.4 942.117  37
  -9   7   8 2236.15 287.319  21
   9  -7  -8 1837.40 234.826  25
  -9   7   7 18533.4 851.757  21
   9  -7  -7 18138.9 798.918  25
  -9   7   6 38.1969 95.2037  12
  -9   7   6 253.449 191.425  21
   9  -7  -6 258.406 143.135  34
   9  -7  -6-175.227 161.393  25
   9  -7  -5 14905.2 821.851  34
   9  -7  -5 14965.1 784.827  25
  -9   7   5 14976.1 705.495  35
  -9   7   5 14418.7 744.816  12
  -9   7   5 14065.3 796.615  21
  -9   7   4 1502.27 289.083  12
   9  -7  -4 1803.84 335.493  34
   9  -7  -4 1442.77 255.656  25
  -9   7   4 2194.19 299.192  35
   9  -7  -3 3969.24 488.206  34
   9  -7  -3 4162.36 374.173  25
  -9   7   3 4230.06 425.907  35
  -9   7   3 4161.33 472.311  12
   9  -7  -2 9408.22 710.358  34
  -9   7   2 8933.99 619.132  35
  -9   7   2 10084.4 686.587  12
  -9   7   1 305.682 187.783  12
   9  -7  -1 171.237 170.680  34
   9  -7   0 27009.2 1013.93  34
  -9   7   0 26330.0 971.781  12
   9  -7   1 13300.0 584.250  34
   9  -7   1 12204.9 625.925  37
  -9   7  -1 14201.9 624.293  12
  -9   6   9 59239.2 1368.29  21
   9  -6  -9 56039.3 1177.29  25
  -9   6   8 5839.28 506.032  21
   9  -6  -8 5765.49 463.910  25
  -9   6   7 20246.2 981.601  21
   9  -6  -7 21292.8 953.970  25
  -9   6   7 20769.2 852.122  35
  -9   6   6 71442.1 1865.35  21
   9  -6  -6 69716.0 1704.61  34
   9  -6  -6 71039.0 1809.10  25
  -9   6   6 69066.1 1715.86  35
  -9   6   5 12187.0 759.025  21
   9  -6  -5 12660.6 815.966  34
   9  -6  -5 13293.6 790.419  25
  -9   6   5 13555.4 813.793  35
   9  -6  -4 5937.53 596.341  34
   9  -6  -4 5763.31 502.485  25
  -9   6   4 6419.82 535.932  14
  -9   6   4 5819.99 554.652  35
  -9   6   4 5600.63 500.734  21
  -9   6   3 8524.81 684.903  12
   9  -6  -3 9902.34 763.708  34
   9  -6  -3 9825.21 597.886  25
  -9   6   3 8994.63 626.300  14
  -9   6   3 9608.64 707.956  35
  -9   6   2-18.8450 167.997  12
   9  -6  -2-40.8647 176.642  34
  -9   6   2 62.0465 108.595  14
  -9   6   2 140.098 160.735  35
  -9   6   1 493.617 211.901  12
   9  -6  -1 173.182 190.606  34
  -9   6   1 398.863 179.847  14
  -9   6   1 377.841 183.016  35
   9  -6   0 2476.15 343.209  34
  -9   6   0 2767.22 313.701  14
  -9   6   0 2727.28 340.215  12
   9  -6   1 8020.03 486.865  34
  -9   6  -1 8091.19 468.199  14
   9  -6   1 7349.07 485.498  37
  -9   6  -1 8266.96 466.719  12
  -9   6  -2-17.7511 56.5899  14
  -9   5  10 61097.9 1318.57  21
   9  -5 -10 57272.1 1010.30  25
  -9   5   9 16380.3 805.406  21
   9  -5  -9 16473.6 735.150  25
   9  -5  -9 16814.2 724.233  36
  -9   5   9 16106.7 677.347  35
  -9   5   8 4496.57 473.581  21
   9  -5  -8 4608.75 453.895  25
   9  -5  -8 4063.46 394.347  36
  -9   5   8 4197.70 428.185  35
  -9   5   7 35034.9 1318.97  21
   9  -5  -7 35617.0 1301.43  25
   9  -5  -7 36403.3 1173.64  36
  -9   5   7 35249.9 1320.96  35
  -9   5   6 39328.1 1380.84  21
   9  -5  -6 39272.3 1353.69  34
   9  -5  -6 41387.2 1439.34  25
   9  -5  -6 40149.6 1198.63  36
  -9   5   6 40661.1 1488.39  35
  -9   5   5 5583.59 506.752  21
   9  -5  -5 7190.18 643.906  34
   9  -5  -5 6582.94 583.189  25
  -9   5   5 6369.44 623.327  35
   9  -5  -4 312.379 224.077  34
   9  -5  -4-84.5933 161.955  25
  -9   5   4 100.754 168.542  35
   9  -5  -3 51322.5 1755.31  34
  -9   5   3 50744.9 1636.85  14
   9  -5  -3 50465.6 1371.62  25
  -9   5   3 47801.4 1644.63  35
  -9   5   2-80.0857 146.012  12
   9  -5  -2 332.539 189.280  34
  -9   5   2 424.243 200.197  14
  -9   5   2 378.417 196.482  35
   9  -5  -1 22373.2 1088.09  34
  -9   5   1 22565.7 1014.67  14
  -9   5   1 23013.9 1063.00  35
  -9   5   1 22531.4 994.962  12
   9  -5   0 64117.1 1659.50  34
  -9   5   0 64604.7 1599.17  14
  -9   5   0 63779.4 1468.27  12
   9  -5   1 399.702 151.277  34
  -9   5  -1 656.423 165.756  14
  -9   5  -2 3555.61 293.027  14
  -9   4  10 52477.0 1313.90  21
   9  -4 -10 50847.1 1094.40  25
   9  -4 -10 52824.4 1192.20  36
  -9   4  10 51613.1 1193.94  35
  -9   4   9 814.106 224.791  21
   9  -4  -9 752.995 186.200  25
   9  -4  -9 579.559 164.575  36
  -9   4   9 795.306 221.168  35
  -9   4   8 13903.5 809.361  21
   9  -4  -8 14831.9 818.427  25
   9  -4  -8 15354.2 776.429  36
  -9   4   8 14430.1 870.496  35
  -9   4   7 21989.0 1018.91  21
   9  -4  -7 22857.2 1077.00  25
   9  -4  -7 22176.6 930.556  36
  -9   4   7 22718.6 1147.41  35
  -9   4   6 3353.47 404.083  21
   9  -4  -6 3365.62 412.753  34
   9  -4  -6 3426.84 448.674  25
   9  -4  -6 3824.61 372.288  36
  -9   4   6 3745.32 509.568  35
   9  -4  -5 1449.13 352.423  34
   9  -4  -5 1483.34 299.759  25
  -9   4   5 1413.76 345.804  35
   9  -4  -4 7550.39 594.149  25
  -9   4   4 7620.49 693.542  35
  -9   4   3 20781.4 1094.85  14
   9  -4  -3 19923.9 861.322  25
  -9   4   3 22006.0 1126.35  35
  -9   4   2 563.222 230.319  14
  -9   4   2 441.971 200.668  35
  -9   4   1 24773.1 1090.03  14
  -9   4   1 24928.1 1075.52  35
  -9   4   1 24903.4 977.269  12
   9  -4   0 68923.9 1680.35  34
  -9   4   0 71625.2 1713.44  14
   9  -4   1 383.635 154.382  34
  -9   4  -1 294.790 147.352  14
  -9   4  -2 24551.2 744.996  14
  -9   3  10 15018.9 699.180  21
   9  -3 -10 15096.8 633.452  25
   9  -3 -10 15282.6 666.244  36
  -9   3  10 15443.2 756.980  35
  -9   3   9 868.520 232.261  21
   9  -3  -9 867.787 227.491  25
   9  -3  -9 873.238 210.974  36
  -9   3   9 797.945 254.663  35
  -9   3   8 79287.1 1793.12  21
   9  -3  -8 86426.3 1981.62  25
   9  -3  -8 80541.5 1758.04  36
  -9   3   8 82540.1 2158.94  35
   9  -3  -7 36955.7 1184.24  34
   9  -3  -7 37487.5 1375.69  25
   9  -3  -7 38358.9 1198.72  36
  -9   3   7 38348.6 1523.49  35
   9  -3  -6 4163.03 485.697  25
  -9   3   6 3062.96 478.150  35
  -9   3   5 31812.8 1326.01  16
   9  -3  -5 35312.7 1321.76  25
  -9   3   5 35895.6 1478.37  35
   9  -3  -4 223809. 3143.19  25
  -9   3   4 225793. 3577.73  35
  -9   3   3 39618.7 1476.51  16
  -9   3   3 43628.8 1562.60  14
   9  -3  -3 41938.3 1224.57  25
  -9   3   3 42677.9 1496.78  35
  -9   3   2 15209.4 891.972  14
  -9   3   2 14347.5 828.386  35
  -9   3   1 83152.4 1941.11  14
  -9   3   0 24570.7 973.310  14
   9  -3   1 145.200 78.7691  34
  -9   3  -1-2.00418 95.6427  14
  -9   2  10 8293.14 464.744  21
   9  -2 -10 8256.86 477.665  25
   9  -2 -10 8471.11 498.907  36
  -9   2  10 9194.98 604.874  35
   9  -2  -9 734.944 212.793  25
   9  -2  -9 572.711 176.926  36
  -9   2   9 428.316 194.015  35
   9  -2  -8 171257. 2745.78  25
   9  -2  -8 170447. 2475.29  36
  -9   2   8 175225. 3085.25  35
  -9   2   7 2412.21 348.916  16
   9  -2  -7 3123.60 403.608  25
   9  -2  -7 3003.92 332.446  36
  -9   2   7 2870.15 449.549  35
  -9   2   6 2109.04 362.080  16
   9  -2  -6 1667.66 303.382  25
  -9   2   6 1273.42 317.947  35
  -9   2   5 9268.05 704.776  16
  -9   2   5 8581.10 681.756  35
  -9   2   4 5902.80 586.886  16
  -9   2   4 6200.87 598.950  14
   9  -2  -4 6218.05 511.892  25
  -9   2   4 6394.44 578.115  35
  -9   2   3 9335.57 717.996  16
  -9   2   3 9660.12 715.601  14
  -9   2   3 10067.2 666.188  35
  -9   2   2 19293.5 962.120  16
  -9   2   2 20875.3 861.817  35
  -9   2   1 23883.3 972.733  14
  -9   2   0 4006.00 301.402   9
  -9   2   0 4125.17 364.290  14
  -9   2  -1 6724.79 373.622  14
   9  -1 -10 2119.90 238.148  25
   9  -1 -10 1918.47 237.099  36
  -9   1  10 1808.01 269.310  35
   9  -1  -9 21522.5 862.518  25
   9  -1  -9 20870.5 797.927  36
  -9   1   9 21537.4 965.624  35
   9  -1  -8 8326.75 593.188  25
   9  -1  -8 8000.53 508.458  36
  -9   1   8 7978.74 630.536  35
  -9   1   7 10171.8 640.333  16
   9  -1  -7 11087.0 568.669  36
  -9   1   7 10720.2 735.765  35
  -9   1   6 4973.92 494.335  16
  -9   1   6 5872.11 533.088  35
  -9   1   5 2975.84 411.969  16
  -9   1   5 3009.01 411.754  14
  -9   1   5 2424.68 336.461  35
  -9   1   4 24880.0 1093.06  16
  -9   1   4 24147.0 1043.24  14
  -9   1   4 22777.0 901.404  35
  -9   1   3 287.498 198.800  16
  -9   1   3 59.4297 133.590  14
  -9   1   2 35410.6 1174.88  16
  -9   1   2 36570.7 947.834   9
  -9   1   2 37526.5 1142.48  14
  -9   1   1 12401.6 526.513   9
  -9   1   1 13044.4 598.061  14
  -9   1   0 6082.74 316.952   9
  -9   1   0 6106.47 325.522  14
   9   0 -10 659.340 134.511  25
   9   0 -10 379.689 111.000  36
  -9   0  10 557.259 148.889  35
   9   0  -9 66269.9 1391.06  25
   9   0  -9 64849.1 1236.19  36
  -9   0   9 64228.5 1393.33  35
  -9   0   8 2635.99 279.331  16
   9   0  -8 2788.67 267.857  36
  -9   0   8 2739.23 317.914  35
  -9   0   7 532.791 181.469  16
  -9   0   7 390.130 144.787  35
  -9   0   6 10536.0 654.849  16
  -9   0   6 9775.50 580.469  14
  -9   0   6 9573.87 524.639  35
  -9   0   5 13385.0 753.301  16
  -9   0   5 13141.3 658.926  14
  -9   0   4 987.101 225.506  16
  -9   0   4 972.052 191.236  14
  -9   0   3 2614.91 319.897  16
  -9   0   3 2470.62 239.248   9
  -9   0   3 2568.09 260.440  14
  -9   0   2 19312.7 722.545  16
  -9   0   2 20835.1 638.722   9
  -9   0   2 19702.1 572.005  14
   9   1  -9 81922.9 1306.94  25
  -9  -1   8 14900.8 543.386  16
  -9  -1   7 25833.8 833.433  16
  -9  -1   6 28788.4 942.800  16
  -9  -1   5 351.807 160.424  16
  -9  -1   4 218.909 137.236  16
  -9  -1   3 19107.8 638.612  16
  10  -7  -6 28976.3 772.770  25
 -10   7   6 23836.9 628.530  12
 -10   7   5 381.567 118.147  12
  10  -7  -5 552.242 144.088  34
  10  -7  -5 726.494 136.299  25
 -10   7   5 558.242 117.083  35
  10  -7  -4 2415.41 292.763  34
 -10   7   4 1666.93 235.864  12
 -10   7   3 1398.86 207.058  12
  10  -7  -3 1379.41 228.110  34
  10  -7  -2 5352.85 393.973  34
 -10   7   2 5019.98 359.543  12
  10  -6  -7 5845.12 386.471  25
 -10   6   7 5375.48 330.126  35
  10  -6  -6 51391.6 1116.03  34
  10  -6  -6 53307.7 1190.16  25
 -10   6   6 51803.4 1055.36  14
 -10   6   6 52158.2 1174.91  35
  10  -6  -5 4414.93 397.713  34
 -10   6   5 3735.49 308.031  14
  10  -6  -5 4108.16 325.015  25
 -10   6   5 4559.83 384.195  35
 -10   6   5 4498.49 384.680  12
  10  -6  -4 2658.61 331.836  34
 -10   6   4 2332.89 253.222  14
 -10   6   4 2863.10 319.382  35
 -10   6   4 2503.46 302.474  12
  10  -6  -3 24482.2 934.875  34
 -10   6   3 23209.3 750.987  14
 -10   6   3 23891.0 866.711  35
 -10   6   3 22850.2 841.865  12
  10  -6  -2 12948.8 648.503  34
 -10   6   2 11418.8 496.903  14
 -10   6   2 12203.3 575.743  12
  10  -6  -1 41360.3 994.826  34
 -10   6   1 39264.3 804.327  14
 -10   6   1 40573.5 876.401  12
 -10   5   8 899.056 153.763  12
  10  -5  -8 1392.41 195.544  25
  10  -5  -7 29035.5 920.569  25
 -10   5   7 28183.8 921.934  35
  10  -5  -6 40149.0 1080.06  34
  10  -5  -6 40358.8 1099.74  25
 -10   5   6 41981.5 1169.01  14
 -10   5   6 41567.4 1199.55  35
 -10   5   5 6734.33 499.460  12
  10  -5  -5 6762.14 514.327  34
  10  -5  -5 6483.19 426.946  25
 -10   5   5 7204.63 506.384  14
 -10   5   5 7264.02 526.486  35
 -10   5   4 66381.2 1518.54  12
  10  -5  -4 65032.4 1595.04  34
 -10   5   4 64441.5 1467.30  14
 -10   5   4 66311.9 1539.92  35
  10  -5  -3 6945.33 523.385  34
 -10   5   3 6439.11 454.179  14
 -10   5   3 6456.98 477.760  35
 -10   5   3 7096.80 478.457  12
 -10   5   2 1529.77 206.383  12
  10  -5  -2 1537.00 248.182  34
 -10   5   2 1363.06 208.245  14
  10  -5  -1 41493.8 1001.76  34
 -10   5   1 43264.4 981.800  14
  10  -4  -8 26328.9 845.438  25
 -10   4   8 27001.9 886.448  35
  10  -4  -7 3097.67 315.350  25
 -10   4   7 3196.88 352.047  35
  10  -4  -6 74596.4 1509.82  34
  10  -4  -6 76812.3 1542.70  25
 -10   4   6 78718.1 1709.50  35
  10  -4  -5 547.970 172.240  34
  10  -4  -5 697.966 159.964  25
 -10   4   5 674.347 196.180  14
 -10   4   5 540.451 182.677  35
 -10   4   4 40613.0 1156.80  12
  10  -4  -4 41135.9 1262.30  34
 -10   4   4 41413.4 1221.14  14
 -10   4   4 40165.6 1193.98  35
  10  -4  -3 19684.7 849.752  34
 -10   4   3 19553.8 804.932  14
 -10   4   3 19036.3 781.245  35
 -10   4   3 19207.9 727.884  12
  10  -4  -2 6444.39 458.127  34
 -10   4   2 6701.31 439.087  14
 -10   4   2 5719.17 328.324  12
  10  -4  -1 899.415 157.537  34
 -10   4   1 1025.72 169.914  14
  10  -3  -8 5663.67 400.540  25
 -10   3   8 5177.53 402.136  35
  10  -3  -7 3365.72 329.614  25
 -10   3   7 3508.38 355.042  35
  10  -3  -6 10893.3 574.954  34
 -10   3   6 12218.0 671.314  14
  10  -3  -6 10977.8 569.827  25
 -10   3   6 11641.3 644.538  35
  10  -3  -5 1015.59 226.738  34
  10  -3  -5 895.378 159.272  25
 -10   3   5 1073.09 224.197  14
 -10   3   5 818.580 187.726  35
 -10   3   4 9372.83 514.548  12
  10  -3  -4 9587.71 593.089  34
 -10   3   4 9759.14 581.179  14
 -10   3   4 9185.39 530.254  35
  10  -3  -3 19781.2 802.628  34
 -10   3   3 20904.3 797.630  14
 -10   3   3 18596.3 670.609  35
 -10   3   3 17890.6 582.575  12
  10  -3  -2 32052.3 916.740  34
 -10   3   2 31489.3 882.197  14
  10  -2  -8 1529.14 211.103  25
 -10   2   8 1410.97 200.591  35
 -10   2   7 31320.7 957.419  14
  10  -2  -7 31754.3 912.345  25
 -10   2   7 29211.1 896.863  35
  10  -2  -6 27921.2 845.655  34
 -10   2   6 30943.0 967.459  14
  10  -2  -6 30106.8 871.132  25
 -10   2   6 29547.8 888.556  35
 -10   2   5 24097.5 840.622  14
  10  -2  -5 23197.3 686.925  25
 -10   2   5 23673.2 746.272  35
 -10   2   4 251.028 92.5494  12
 -10   2   4 305.665 111.179  14
 -10   2   4 259.965 91.5490  35
 -10   2   3 16098.0 601.967  14
 -10   1   7 2129.79 201.014  14
  10  -1  -7 2488.14 233.769  25
  10  -1  -6 2851.14 237.312  34
 -10   1   6 2939.16 241.557  14
  10  -1  -6 3101.31 246.428  25
 -10   1   5 9728.85 404.723  14
   0   0   0    0.00    0.00   0
;
_shelx_hkl_checksum              95211
loop_
_space_group_symop_operation_xyz
'x, y, z'
'-x, -y, -z'
loop_
_atom_site_label
_atom_site_type_symbol
_atom_site_fract_x
_atom_site_fract_y
_atom_site_fract_z
_atom_site_U_iso_or_equiv
_atom_site_adp_type
_atom_site_occupancy
_atom_site_site_symmetry_order
_atom_site_calc_flag
_atom_site_refinement_flags_posn
_atom_site_refinement_flags_adp
_atom_site_refinement_flags_occupancy
C1 C -0.12889(18) -0.09447(14) 0.69656(13) 0.0198(3) Uani 1 1 d . . .
C2 C -0.3149(2) -0.19993(17) 0.59728(14) 0.0273(3) Uani 1 1 d . . .
H2 H -0.3571 -0.1903 0.5068 0.033 Uiso 1 1 calc R U .
C3 C -0.4394(2) -0.31904(18) 0.62915(16) 0.0323(3) Uani 1 1 d . . .
H3 H -0.5653 -0.3899 0.5605 0.039 Uiso 1 1 calc R U .
C4 C -0.3800(2) -0.33421(16) 0.76031(16) 0.0293(3) Uani 1 1 d . . .
H4 H -0.4649 -0.4155 0.7819 0.035 Uiso 1 1 calc R U .
C5 C -0.1967(2) -0.23093(16) 0.86022(15) 0.0265(3) Uani 1 1 d . . .
H5 H -0.1556 -0.2412 0.9505 0.032 Uiso 1 1 calc R U .
C6 C -0.07258(18) -0.11194(15) 0.82839(13) 0.0215(3) Uani 1 1 d . . .
H6 H 0.0529 -0.0412 0.8978 0.026 Uiso 1 1 calc R U .
C7 C 0.28916(18) 0.12124(15) 0.77453(13) 0.0209(3) Uani 1 1 d . . .
C8 C 0.3611(2) 0.01474(16) 0.75904(15) 0.0278(3) Uani 1 1 d . . .
H8 H 0.2830 -0.0824 0.6857 0.033 Uiso 1 1 calc R U .
C9 C 0.5444(2) 0.04859(18) 0.84905(17) 0.0337(3) Uani 1 1 d . . .
H9 H 0.5903 -0.0254 0.8375 0.040 Uiso 1 1 calc R U .
C10 C 0.6595(2) 0.19032(19) 0.95534(16) 0.0331(3) Uani 1 1 d . . .
H10 H 0.7847 0.2136 1.0170 0.040 Uiso 1 1 calc R U .
C11 C 0.5930(2) 0.29854(19) 0.97223(15) 0.0320(3) Uani 1 1 d . . .
H11 H 0.6729 0.3966 1.0446 0.038 Uiso 1 1 calc R U .
C12 C 0.40892(19) 0.26333(16) 0.88297(14) 0.0250(3) Uani 1 1 d . . .
H12 H 0.3637 0.3375 0.8960 0.030 Uiso 1 1 calc R U .
C13 C 0.00314(18) 0.24806(15) 0.67306(13) 0.0203(3) Uani 1 1 d . . .
C14 C 0.11180(19) 0.38318(16) 0.64541(14) 0.0253(3) Uani 1 1 d . . .
H14 H 0.2017 0.3809 0.6155 0.030 Uiso 1 1 calc R U .
C15 C 0.0912(2) 0.52089(16) 0.66072(15) 0.0302(3) Uani 1 1 d . . .
H15 H 0.1682 0.6122 0.6429 0.036 Uiso 1 1 calc R U .
C16 C -0.0411(2) 0.52537(17) 0.70181(15) 0.0320(3) Uani 1 1 d . . .
H16 H -0.0558 0.6194 0.7115 0.038 Uiso 1 1 calc R U .
C17 C -0.1516(2) 0.3933(2) 0.72865(18) 0.0392(4) Uani 1 1 d . . .
H17 H -0.2430 0.3960 0.7565 0.047 Uiso 1 1 calc R U .
C18 C -0.1291(2) 0.25591(18) 0.71486(17) 0.0336(3) Uani 1 1 d . . .
H18 H -0.2052 0.1657 0.7343 0.040 Uiso 1 1 calc R U .
O1 O 0.0000 0.0000 0.5000 0.0255(3) Uani 1 2 d S . P
Si1 Si 0.03907(5) 0.06718(4) 0.65595(3) 0.01775(11) Uani 1 1 d . . .
loop_
_atom_site_aniso_label
_atom_site_aniso_U_11
_atom_site_aniso_U_22
_atom_site_aniso_U_33
_atom_site_aniso_U_23
_atom_site_aniso_U_13
_atom_site_aniso_U_12
C1 0.0231(6) 0.0160(6) 0.0236(6) 0.0048(5) 0.0127(5) 0.0104(5)
C2 0.0274(7) 0.0259(7) 0.0232(7) 0.0055(5) 0.0109(6) 0.0086(6)
C3 0.0254(7) 0.0264(7) 0.0332(8) 0.0032(6) 0.0124(6) 0.0034(6)
C4 0.0310(7) 0.0213(7) 0.0391(8) 0.0104(6) 0.0232(6) 0.0084(6)
C5 0.0333(7) 0.0258(7) 0.0294(7) 0.0122(6) 0.0197(6) 0.0158(6)
C6 0.0234(6) 0.0187(6) 0.0245(6) 0.0058(5) 0.0125(5) 0.0103(5)
C7 0.0238(6) 0.0209(6) 0.0243(6) 0.0108(5) 0.0152(5) 0.0113(5)
C8 0.0292(7) 0.0217(7) 0.0380(8) 0.0098(6) 0.0189(6) 0.0133(6)
C9 0.0343(8) 0.0342(8) 0.0493(9) 0.0198(7) 0.0250(7) 0.0238(7)
C10 0.0262(7) 0.0431(9) 0.0356(8) 0.0177(7) 0.0132(6) 0.0205(7)
C11 0.0291(7) 0.0353(8) 0.0275(7) 0.0074(6) 0.0090(6) 0.0156(6)
C12 0.0271(7) 0.0267(7) 0.0241(7) 0.0075(5) 0.0117(6) 0.0151(6)
C13 0.0226(6) 0.0182(6) 0.0195(6) 0.0048(5) 0.0084(5) 0.0104(5)
C14 0.0275(7) 0.0206(6) 0.0287(7) 0.0078(5) 0.0132(6) 0.0114(5)
C15 0.0358(8) 0.0190(7) 0.0310(8) 0.0078(6) 0.0115(6) 0.0117(6)
C16 0.0428(8) 0.0251(7) 0.0294(7) 0.0057(6) 0.0102(6) 0.0233(7)
C17 0.0492(9) 0.0396(9) 0.0508(10) 0.0161(7) 0.0316(8) 0.0319(8)
C18 0.0416(8) 0.0291(8) 0.0479(9) 0.0173(7) 0.0308(7) 0.0216(7)
O1 0.0332(7) 0.0246(7) 0.0213(7) 0.0061(5) 0.0155(6) 0.0130(6)
Si1 0.02137(18) 0.01498(17) 0.01934(19) 0.00548(13) 0.01128(14) 0.00872(14)
loop_
_atom_type_symbol
_atom_type_description
_atom_type_scat_dispersion_real
_atom_type_scat_dispersion_imag
_atom_type_scat_source
C C 0.0181 0.0091 'International Tables Vol C Tables 4.2.6.8 and 6.1.1.4'
H H 0.0000 0.0000 'International Tables Vol C Tables 4.2.6.8 and 6.1.1.4'
O O 0.0492 0.0322 'International Tables Vol C Tables 4.2.6.8 and 6.1.1.4'
Si Si 0.2541 0.3302 'International Tables Vol C Tables 4.2.6.8 and 6.1.1.4'
loop_
_geom_angle_atom_site_label_1
_geom_angle_atom_site_label_2
_geom_angle_atom_site_label_3
_geom_angle
_geom_angle_site_symmetry_3
C6 C1 C2 117.84(12) .
C6 C1 Si1 120.71(10) .
C2 C1 Si1 121.44(10) .
C3 C2 C1 120.90(13) .
C3 C2 H2 119.5 .
C1 C2 H2 119.5 .
C4 C3 C2 120.13(13) .
C4 C3 H3 119.9 .
C2 C3 H3 119.9 .
C3 C4 C5 119.93(13) .
C3 C4 H4 120.0 .
C5 C4 H4 120.0 .
C4 C5 C6 119.91(13) .
C4 C5 H5 120.0 .
C6 C5 H5 120.0 .
C5 C6 C1 121.27(12) .
C5 C6 H6 119.4 .
C1 C6 H6 119.4 .
C12 C7 C8 117.58(12) .
C12 C7 Si1 122.53(10) .
C8 C7 Si1 119.86(10) .
C9 C8 C7 121.27(13) .
C9 C8 H8 119.4 .
C7 C8 H8 119.4 .
C10 C9 C8 119.76(13) .
C10 C9 H9 120.1 .
C8 C9 H9 120.1 .
C9 C10 C11 120.23(13) .
C9 C10 H10 119.9 .
C11 C10 H10 119.9 .
C10 C11 C12 119.80(14) .
C10 C11 H11 120.1 .
C12 C11 H11 120.1 .
C11 C12 C7 121.35(13) .
C11 C12 H12 119.3 .
C7 C12 H12 119.3 .
C14 C13 C18 117.44(12) .
C14 C13 Si1 120.17(10) .
C18 C13 Si1 122.39(10) .
C15 C14 C13 121.29(13) .
C15 C14 H14 119.4 .
C13 C14 H14 119.4 .
C16 C15 C14 120.11(13) .
C16 C15 H15 119.9 .
C14 C15 H15 119.9 .
C17 C16 C15 119.89(13) .
C17 C16 H16 120.1 .
C15 C16 H16 120.1 .
C16 C17 C18 119.93(14) .
C16 C17 H17 120.0 .
C18 C17 H17 120.0 .
C17 C18 C13 121.32(14) .
C17 C18 H18 119.3 .
C13 C18 H18 119.3 .
Si1 O1 Si1 180.0 2_556
O1 Si1 C13 109.69(4) .
O1 Si1 C7 108.53(4) .
C13 Si1 C7 109.80(6) .
O1 Si1 C1 108.72(4) .
C13 Si1 C1 110.30(6) .
C7 Si1 C1 109.77(6) .
loop_
_geom_bond_atom_site_label_1
_geom_bond_atom_site_label_2
_geom_bond_distance
_geom_bond_site_symmetry_2
C1 C6 1.3953(18) .
C1 C2 1.3978(19) .
C1 Si1 1.8692(13) .
C2 C3 1.394(2) .
C2 H2 0.9500 .
C3 C4 1.381(2) .
C3 H3 0.9500 .
C4 C5 1.383(2) .
C4 H4 0.9500 .
C5 C6 1.3910(18) .
C5 H5 0.9500 .
C6 H6 0.9500 .
C7 C12 1.3964(19) .
C7 C8 1.4023(18) .
C7 Si1 1.8654(13) .
C8 C9 1.391(2) .
C8 H8 0.9500 .
C9 C10 1.382(2) .
C9 H9 0.9500 .
C10 C11 1.385(2) .
C10 H10 0.9500 .
C11 C12 1.390(2) .
C11 H11 0.9500 .
C12 H12 0.9500 .
C13 C14 1.3955(18) .
C13 C18 1.3962(19) .
C13 Si1 1.8627(13) .
C14 C15 1.3877(19) .
C14 H14 0.9500 .
C15 C16 1.381(2) .
C15 H15 0.9500 .
C16 C17 1.377(2) .
C16 H16 0.9500 .
C17 C18 1.393(2) .
C17 H17 0.9500 .
C18 H18 0.9500 .
O1 Si1 1.6198(3) .
O1 Si1 1.6199(3) 2_556
