#------------------------------------------------------------------------------
#$Date: 2015-09-24 08:31:16 +0300 (Thu, 24 Sep 2015) $
#$Revision: 158273 $
#$URL: svn://www.crystallography.net/cod/cif/7/22/22/7222288.cif $
#------------------------------------------------------------------------------
#
# This file is available in the Crystallography Open Database (COD),
# http://www.crystallography.net/
#
# All data on this site have been placed in the public domain by the
# contributors.
#
data_7222288
loop_
_publ_author_name
'Korsching, Kai R.'
'Sch\"afer, Hannes'
'Sch\"onborn, Josefine'
'Nimthong-Rold\'an, Arunpatcha'
'Zeller, Matthias'
'Azov, Vladimir A.'
_publ_section_title
;
 Enhancement of Electron-donating Character in Alkylated
 Monopyrrolo-tetrathiafultvalene Derivatives
;
_journal_name_full               'RSC Adv.'
_journal_paper_doi               10.1039/C5RA19012F
_journal_year                    2015
_chemical_formula_sum            'C17 H15 N O S4'
_chemical_formula_weight         377.54
_chemical_melting_point          487
_chemical_name_systematic
2-[4,5-Dimethyl-1,3-dithiol-2-ylidene]-5-(4-methoxyphenyl)-5H-1,3-dithiolo[4,5-c]pyrrole
_space_group_crystal_system      triclinic
_space_group_IT_number           2
_space_group_name_Hall           '-P 1'
_space_group_name_H-M_alt        'P -1'
_symmetry_space_group_name_Hall  '-P 1'
_symmetry_space_group_name_H-M   'P -1'
_atom_sites_solution_hydrogens   geom
_atom_sites_solution_primary     direct
_atom_sites_solution_secondary   difmap
_audit_creation_method           SHELXL-2014/7
_audit_update_record
;
2015-07-24 deposited with the CCDC.
2015-09-23 downloaded from the CCDC.
;
_cell_angle_alpha                86.427(3)
_cell_angle_beta                 81.337(3)
_cell_angle_gamma                81.142(3)
_cell_formula_units_Z            2
_cell_length_a                   7.8445(19)
_cell_length_b                   8.762(2)
_cell_length_c                   12.265(3)
_cell_measurement_reflns_used    6463
_cell_measurement_temperature    100(2)
_cell_measurement_theta_max      31.8350
_cell_measurement_theta_min      2.3545
_cell_volume                     822.8(3)
_computing_cell_refinement       'SAINT V8.30C (Bruker, 2013)'
_computing_data_collection       'Apex2 v2013.4-1 (Bruker, 2013)'
_computing_data_reduction        'SAINT V8.30C (Bruker, 2013)'
_computing_structure_refinement
;  
SHELXL-2014/7 (Sheldrick, 2014), 
SHELXLE Rev714 (H\"ubschle et al., 2011)
;
_computing_structure_solution    'SHELXS-97 (Sheldrick, 2008)'
_diffrn_ambient_temperature      100(2)
_diffrn_measured_fraction_theta_full 0.999
_diffrn_measured_fraction_theta_max 0.900
_diffrn_measurement_device_type  'Bruker AXS APEXII CCD diffractometer'
_diffrn_measurement_method       'omega and phi scans'
_diffrn_radiation_monochromator  graphite
_diffrn_radiation_type           MoK\a
_diffrn_radiation_wavelength     0.71073
_diffrn_reflns_av_R_equivalents  0.0257
_diffrn_reflns_av_unetI/netI     0.0193
_diffrn_reflns_laue_measured_fraction_full 0.999
_diffrn_reflns_laue_measured_fraction_max 0.900
_diffrn_reflns_limit_h_max       11
_diffrn_reflns_limit_h_min       -11
_diffrn_reflns_limit_k_max       13
_diffrn_reflns_limit_k_min       -12
_diffrn_reflns_limit_l_max       18
_diffrn_reflns_limit_l_min       -18
_diffrn_reflns_number            20343
_diffrn_reflns_point_group_measured_fraction_full 0.999
_diffrn_reflns_point_group_measured_fraction_max 0.900
_diffrn_reflns_theta_full        25.242
_diffrn_reflns_theta_max         32.247
_diffrn_reflns_theta_min         2.655
_diffrn_source                   'fine focus sealed tube'
_exptl_absorpt_coefficient_mu    0.580
_exptl_absorpt_correction_T_max  0.7464
_exptl_absorpt_correction_T_min  0.6539
_exptl_absorpt_correction_type   multi-scan
_exptl_absorpt_process_details   'Apex2 v2013.4-1 (Bruker, 2013)'
_exptl_crystal_colour            orange
_exptl_crystal_density_diffrn    1.524
_exptl_crystal_description       block
_exptl_crystal_F_000             392
_exptl_crystal_recrystallization_method
'Re-crystallisation from solvent: dichloromethane'
_exptl_crystal_size_max          0.52
_exptl_crystal_size_mid          0.46
_exptl_crystal_size_min          0.34
_refine_diff_density_max         0.513
_refine_diff_density_min         -0.286
_refine_diff_density_rms         0.065
_refine_ls_extinction_method     none
_refine_ls_goodness_of_fit_ref   1.038
_refine_ls_hydrogen_treatment    constr
_refine_ls_matrix_type           full
_refine_ls_number_parameters     211
_refine_ls_number_reflns         5245
_refine_ls_number_restraints     0
_refine_ls_restrained_S_all      1.038
_refine_ls_R_factor_all          0.0320
_refine_ls_R_factor_gt           0.0288
_refine_ls_shift/su_max          0.001
_refine_ls_shift/su_mean         0.000
_refine_ls_structure_factor_coef Fsqd
_refine_ls_weighting_details
'w=1/[\s^2^(Fo^2^)+(0.0504P)^2^+0.2693P] where P=(Fo^2^+2Fc^2^)/3'
_refine_ls_weighting_scheme      calc
_refine_ls_wR_factor_gt          0.0821
_refine_ls_wR_factor_ref         0.0850
_reflns_Friedel_coverage         0.000
_reflns_number_gt                4731
_reflns_number_total             5245
_reflns_threshold_expression     'I > 2\s(I)'
_cod_data_source_file            c5ra19012f2.cif
_cod_data_source_block           Apexc15mz070_0m
_cod_database_code               7222288
_shelx_shelxl_version_number     2014/7
_shelx_space_group_comment
;
The symmetry employed for this shelxl refinement is uniquely defined
by the following loop, which should always be used as a source of
symmetry information in preference to the above space-group names.
They are only intended as comments.
;
_shelx_res_file
;

    Apexc15mz070_0m.res created by SHELXL-2014/7


TITL Apexc15mz070_0m in P-1
CELL  0.71073    7.8445    8.7617   12.2653   86.4273   81.3365   81.1415
ZERR        2    0.0019    0.0021    0.0029    0.0033    0.0032    0.0034
LATT   1
SFAC  C  H  N  O  S
UNIT 34 30 2 2 8
LIST 6 ! automatically inserted. Change 6 to 4 for CHECKCIF!!
TEMP -173
L.S. 5
FMAP 2
PLAN 20
ACTA
BOND $H
OMIT 1 -2 1
OMIT 0 1 0
CONF
WGHT    0.050400    0.269300
FVAR       0.67430
C1    1   -0.350251    0.757346    0.332699    11.00000    0.01823    0.01558 =
         0.01374    0.00072   -0.00343   -0.00445
C2    1   -0.200452    0.816523    0.301474    11.00000    0.01775    0.01622 =
         0.01434    0.00053   -0.00363   -0.00439
C3    1   -0.760692    0.633593    0.540305    11.00000    0.01960    0.02386 =
         0.01888   -0.00021    0.00124   -0.00510
AFIX 137
H3A   2   -0.826894    0.732784    0.564593    11.00000   -1.50000
H3B   2   -0.701686    0.582061    0.600508    11.00000   -1.50000
H3C   2   -0.840370    0.568031    0.519740    11.00000   -1.50000
AFIX   0
C4    1   -0.627824    0.660974    0.442534    11.00000    0.01634    0.01659 =
         0.01688    0.00029   -0.00243   -0.00418
C5    1   -0.623107    0.618657    0.339087    11.00000    0.01605    0.01631 =
         0.01729    0.00033   -0.00316   -0.00379
C6    1   -0.747422    0.531726    0.295902    11.00000    0.02012    0.02295 =
         0.02346   -0.00309   -0.00537   -0.00684
AFIX 137
H6A   2   -0.810708    0.598837    0.243742    11.00000   -1.50000
H6B   2   -0.830535    0.498874    0.357460    11.00000   -1.50000
H6C   2   -0.682309    0.440626    0.258268    11.00000   -1.50000
AFIX   0
C7    1    0.193151    1.047814    0.299543    11.00000    0.01745    0.01962 =
         0.01409   -0.00089   -0.00186   -0.00547
AFIX  43
H7    2    0.223904    1.088740    0.362607    11.00000   -1.20000
AFIX   0
C8    1    0.059195    0.964340    0.297911    11.00000    0.01639    0.01758 =
         0.01320    0.00015   -0.00194   -0.00405
C9    1    0.059472    0.925579    0.187491    11.00000    0.01559    0.01508 =
         0.01465   -0.00150   -0.00214   -0.00349
C10   1    0.193645    0.986934    0.122945    11.00000    0.01705    0.01615 =
         0.01431   -0.00181   -0.00208   -0.00347
AFIX  43
H10   2    0.224668    0.979678    0.045330    11.00000   -1.20000
AFIX   0
C11   1    0.419766    1.141239    0.159782    11.00000    0.01431    0.01411 =
         0.01596   -0.00119   -0.00104   -0.00278
C12   1    0.544896    1.136934    0.229224    11.00000    0.01694    0.01524 =
         0.01747    0.00187   -0.00392   -0.00270
AFIX  43
H12   2    0.534370    1.078317    0.297088    11.00000   -1.20000
AFIX   0
C13   1    0.685474    1.217622    0.200359    11.00000    0.01578    0.01647 =
         0.01827   -0.00008   -0.00410   -0.00297
AFIX  43
H13   2    0.770453    1.214422    0.248377    11.00000   -1.20000
AFIX   0
C14   1    0.701125    1.303084    0.100814    11.00000    0.01509    0.01542 =
         0.01621   -0.00218    0.00054   -0.00312
C15   1    0.576063    1.306048    0.030738    11.00000    0.01924    0.02214 =
         0.01367    0.00016   -0.00139   -0.00576
AFIX  43
H15   2    0.587339    1.363404   -0.037637    11.00000   -1.20000
AFIX   0
C16   1    0.435610    1.226231    0.059813    11.00000    0.01719    0.02264 =
         0.01408   -0.00028   -0.00314   -0.00502
AFIX  43
H16   2    0.350527    1.229400    0.011872    11.00000   -1.20000
AFIX   0
C17   1    0.961905    1.387405    0.135571    11.00000    0.01638    0.02227 =
         0.02640    0.00111   -0.00417   -0.00666
AFIX 137
H17A  2    1.015463    1.281281    0.151371    11.00000   -1.50000
H17B  2    0.906000    1.434872    0.204723    11.00000   -1.50000
H17C  2    1.051857    1.447374    0.099566    11.00000   -1.50000
AFIX   0
N1    3    0.274706    1.061043    0.192250    11.00000    0.01455    0.01619 =
         0.01443   -0.00113   -0.00156   -0.00414
O1    4    0.834230    1.385495    0.064237    11.00000    0.01853    0.02656 =
         0.01859    0.00068   -0.00152   -0.01037
S1    5   -0.462057    0.763588    0.467652    11.00000    0.02133    0.02107 =
         0.01360   -0.00122   -0.00183   -0.00886
S2    5   -0.452073    0.670224    0.240712    11.00000    0.02091    0.02289 =
         0.01331   -0.00084   -0.00292   -0.00887
S3    5   -0.100349    0.901610    0.397408    11.00000    0.02199    0.02829 =
         0.01254   -0.00068   -0.00139   -0.01259
S4    5   -0.096022    0.814046    0.163400    11.00000    0.01923    0.01938 =
         0.01394   -0.00186   -0.00200   -0.00766
HKLF 4

REM  Apexc15mz070_0m in P-1
REM R1 =  0.0288 for    4731 Fo > 4sig(Fo)  and  0.0320 for all    5245 data
REM    211 parameters refined using      0 restraints

END

WGHT      0.0501      0.2712

REM Highest difference peak  0.513,  deepest hole -0.286,  1-sigma level  0.065
Q1    1   0.1371  0.9495  0.1572  11.00000  0.05    0.51
Q2    1   0.1283  1.0063  0.3031  11.00000  0.05    0.47
Q3    1  -0.2738  0.7833  0.3156  11.00000  0.05    0.46
Q4    1   0.6993  1.2533  0.1444  11.00000  0.05    0.44
Q5    1   0.4321  1.1791  0.1087  11.00000  0.05    0.43
Q6    1   0.6013  1.1937  0.2180  11.00000  0.05    0.43
Q7    1   0.4959  1.2729  0.0528  11.00000  0.05    0.42
Q8    1  -0.6293  0.6384  0.3927  11.00000  0.05    0.40
Q9    1  -0.0023  0.8613  0.1657  11.00000  0.05    0.40
Q10   1   0.6403  1.3038  0.0608  11.00000  0.05    0.40
Q11   1   0.4806  1.1367  0.1988  11.00000  0.05    0.39
Q12   1   0.3490  1.1001  0.1785  11.00000  0.05    0.36
Q13   1  -0.5451  0.7077  0.4578  11.00000  0.05    0.35
Q14   1   0.2445  1.0130  0.1565  11.00000  0.05    0.35
Q15   1   0.2506  1.0451  0.2454  11.00000  0.05    0.35
Q16   1  -0.5313  0.6379  0.2938  11.00000  0.05    0.34
Q17   1   0.0528  0.9557  0.2449  11.00000  0.05    0.33
Q18   1  -0.0231  0.9340  0.3487  11.00000  0.05    0.33
Q19   1  -0.6971  0.6461  0.4878  11.00000  0.05    0.33
Q20   1  -0.6860  0.5762  0.3203  11.00000  0.05    0.32
;
_shelx_res_checksum              46670
_shelx_hkl_file
;
  -1   0   0 363.207 9.41600   1
   1   0   0 342.640 9.40276   3
  -2   0   0 440.742 11.0552   5
  -2   0   0 421.235 11.2301   1
  -2   0   0 433.125 11.2577   6
   2   0   0 398.286 11.2095   4
   2   0   0 421.484 11.0452   2
   2   0   0 389.096 11.2014   3
  -3   0   0 674.448 16.9071   5
  -3   0   0 637.040 17.1995   6
  -3   0   0 618.265 17.1747   1
   3   0   0 628.189 17.1534   3
   3   0   0 646.117 16.8914   2
   3   0   0 624.794 17.1598   4
  -4   0   0 23.7508 0.77201   5
  -4   0   0 21.3252 1.09331   6
  -4   0   0 21.9045 1.08597   1
   4   0   0 21.6169 1.06879   4
   4   0   0 23.1861 0.76123   2
   4   0   0 21.3834 1.05811   3
  -5   0   0 144.422 4.57586   6
  -5   0   0 152.026 4.07119   5
  -5   0   0 142.889 4.55460   1
   5   0   0 149.855 4.58624   4
   5   0   0 143.189 4.53810   3
   5   0   0 153.585 4.06546   2
  -6   0   0 341.356 9.84581   6
  -6   0   0 346.774 9.84937   1
   6   0   0 346.815 9.82694   3
   6   0   0 329.706 9.78554   4
  -7   0   0 3.65530 0.70276   6
  -7   0   0 3.10730 0.67920   1
   7   0   0 3.15369 0.68210   3
   7   0   0 2.30412 0.61232   4
  -8   0   0 164.135 5.57585   1
  -8   0   0 163.814 5.57817   6
   8   0   0 169.082 5.58303   4
   8   0   0 169.902 5.56842   3
  -9   0   0 115.752 4.36703   6
  -9   0   0 111.705 4.32025   1
   9   0   0 111.027 4.30798   3
   9   0   0 119.420 4.40208   4
 -10   0   0 2.52946 0.94521   1
 -10   0   0 1.67104 0.87498   6
  10   0   0 1.52143 0.87352   4
  10   0   0 2.24227 0.88815   3
 -11   0   0 169.640 6.23095   1
  11   0   0 174.562 6.29744   4
  10  -1   0 35.4575 2.32151   4
  10  -1   0 34.3200 2.25570   3
 -10   1   0 34.1454 2.27306   6
 -10   1   0 33.8878 2.27230   1
   9  -1   0 0.44527 0.71974   4
   9  -1   0 1.57133 0.74699   3
  -9   1   0 0.93185 0.74302   1
  -9   1   0 1.16675 0.76342   6
   8  -1   0 629.150 17.8254   4
   8  -1   0 642.214 17.8207   3
  -8   1   0 612.334 17.7928   6
  -8   1   0 634.910 17.8451   1
   7  -1   0 34.4734 1.89903   4
   7  -1   0 36.5627 1.88458   3
  -7   1   0 38.1671 1.93226   1
  -7   1   0 36.2807 1.87732   6
   6  -1   0 823.629 23.1504   4
   6  -1   0 859.134 23.1703   3
  -6   1   0 849.747 23.1961   1
  -6   1   0 858.249 23.2008   6
   5  -1   0 20.6628 1.18133   3
   5  -1   0 26.0693 1.28105   4
  -5   1   0 22.2347 1.23684   6
  -5   1   0 22.0085 1.23852   1
   4  -1   0 398.423 10.9298   3
   4  -1   0 371.459 10.9228   4
  -4   1   0 399.280 10.9815   1
  -4   1   0 408.122 10.9741   6
   3  -1   0 675.050 18.3088   3
   3  -1   0 673.671 18.3373   4
   3  -1   0 709.575 17.9546   2
  -3   1   0 722.197 17.9415   5
  -3   1   0 675.649 18.3324   6
  -3   1   0 628.325 18.3168   1
   2  -1   0 259.998 6.63477   2
   2  -1   0 244.484 6.85072   3
   2  -1   0 241.824 6.88060   4
  -2   1   0 235.484 6.86904   1
  -2   1   0 252.335 6.87713   6
  -2   1   0 262.777 6.62497   5
   1  -1   0 1416.25 37.4559   3
   1  -1   0 1448.11 37.1941   2
   1  -1   0 1410.40 37.5549   4
  -1   1   0 1499.07 37.6386   1
  -1   1   0 1286.39 37.1198   6
  -1   1   0 1347.34 37.1247   5
   0   1   0 235.002 6.31056   5
   1   1   0 572.776 16.6867   5
   1   1   0 677.688 16.6019   3
   1   1   0 650.741 16.6001   1
   1   1   0 677.634 16.6875   2
   1   1   0 534.611 16.5777   4
   2   1   0 7.71255 0.48304   6
   2   1   0 6.52272 0.44332   3
   2   1   0 6.71598 0.40661   2
   2   1   0 6.57911 0.46105   1
   2   1   0 6.98611 0.46714   4
   3   1   0 2396.76 60.1414   6
   3   1   0 2088.65 59.0510   3
   3   1   0 2273.73 59.6524   2
   3   1   0 2193.19 59.5438   1
  -4  -1   0 83.4044 2.78338   1
  -4  -1   0 88.9385 2.83961   6
   4   1   0 86.8485 2.78211   3
   4   1   0 90.1042 2.54195   5
   4   1   0 85.2985 2.79218   4
   4   1   0 88.6854 2.55819   2
  -5  -1   0 1119.51 28.4475   5
  -5  -1   0 1059.22 28.8049   1
  -5  -1   0 1059.48 28.8300   6
   5   1   0 1051.18 28.7659   3
   5   1   0 1054.06 28.7926   4
   5   1   0 1083.35 28.4085   2
  -6  -1   0 138.159 4.53863   6
  -6  -1   0 135.361 4.52336   1
   6   1   0 141.061 4.50868   3
   6   1   0 152.437 4.59165   4
  -7  -1   0 56.0424 2.42061   1
  -7  -1   0 57.6553 2.44557   6
   7   1   0 58.3196 2.43213   3
   7   1   0 62.6838 2.50975   4
  -8  -1   0 255.011 7.87033   6
  -8  -1   0 241.381 7.82467   1
   8   1   0 265.812 7.89222   4
   8   1   0 257.093 7.84513   3
  -9  -1   0 17.1361 1.53476   1
  -9  -1   0 19.6858 1.60468   6
   9   1   0 20.1897 1.58717   3
   9   1   0 16.0390 1.50663   4
 -10  -1   0 144.347 5.32026   1
 -10  -1   0 146.410 5.34752   6
  10   1   0 145.951 5.30988   3
  10   1   0 147.180 5.35240   4
 -11  -1   0 1.24918 0.85516   1
 -11  -1   0 1.99050 0.92888   6
  11   1   0 2.43721 0.96658   4
  11   1   0 3.14399 0.96723   3
  10  -2   0 0.27019 0.76721   3
  10  -2   0 -0.3082 0.82635   4
 -10   2   0 -1.0990 0.70800   1
 -10   2   0 0.68861 0.83629   6
   9  -2   0 280.749 8.83191   3
   9  -2   0 290.347 8.89118   4
  -9   2   0 279.628 8.83032   6
  -9   2   0 265.068 8.80225   1
   8  -2   0 16.9824 1.43980   4
   8  -2   0 17.9127 1.51260   3
  -8   2   0 16.6973 1.51215   6
  -8   2   0 18.3423 1.55719   1
   7  -2   0 462.631 13.1930   3
   7  -2   0 443.270 13.1877   4
  -7   2   0 467.114 13.2605   1
  -7   2   0 465.109 13.2230   6
   6  -2   0 11.3513 1.06209   4
   6  -2   0 10.9336 1.06674   3
  -6   2   0 11.5629 1.06227   6
  -6   2   0 9.80127 1.03314   1
   5  -2   0 0.13943 0.29962   3
   5  -2   0 -0.2806 0.32997   4
  -5   2   0 -0.0327 0.35586   1
  -5   2   0 1.93260 0.49548   6
   4  -2   0 123.712 3.85046   3
  -4   2   0 125.738 3.88657   6
  -4   2   0 120.917 3.89905   1
   3  -2   0 195.503 5.12389   2
   3  -2   0 190.928 5.45790   3
   3  -2   0 184.588 5.51559   4
  -3   2   0 176.109 5.48057   1
  -3   2   0 187.255 5.47441   6
  -3   2   0 203.226 5.10446   5
   2  -2   0 46.5851 1.63104   4
   2  -2   0 45.9098 1.55268   3
   2  -2   0 49.0267 1.39837   2
  -2   2   0 43.5564 1.60310   1
  -2   2   0 48.3909 1.57749   6
  -2   2   0 47.4611 1.37351   5
   1  -2   0 9797.63 251.400   4
   1  -2   0 9920.98 250.727   3
   1  -2   0 9999.99 250.514   2
  -1   2   0 8267.05 251.047   1
   0  -2   0 1277.30 34.5413   4
   0  -2   0 1282.13 34.2412   3
   0   2   0 1321.40 34.4162   1
   0   2   0 1204.95 34.2484   5
   0   2   0 1337.25 34.3295   2
  -1  -2   0 12.2525 0.54698   4
  -1  -2   0 14.3571 0.47569   3
   1   2   0 13.0126 0.56323   5
   1   2   0 11.6063 0.46872   6
   1   2   0 12.8727 0.59206   2
   1   2   0 16.0164 0.59605   1
   2   2   0 3128.93 77.2748   3
   2   2   0 2779.59 77.1895   5
   2   2   0 2599.44 77.2561   4
   2   2   0 3047.51 77.6510   2
   2   2   0 2925.11 77.5707   1
   3   2   0 36.4034 1.29450   1
   3   2   0 34.6770 1.22492   3
   3   2   0 33.9530 1.21838   2
   3   2   0 32.2550 1.24864   4
   3   2   0 34.7963 1.25127   6
   3   2   0 33.1395 1.17710   5
   4   2   0 7.95457 0.51385   5
   4   2   0 8.40301 0.61198   3
   4   2   0 8.01919 0.58929   4
   4   2   0 8.88484 0.64763   6
   4   2   0 7.88529 0.62818   1
   4   2   0 7.95716 0.54257   2
  -5  -2   0 289.475 8.26175   6
   5   2   0 296.387 8.20927   3
   5   2   0 302.481 8.00367   2
   5   2   0 266.109 8.17859   4
  -6  -2   0 13.9166 1.03110   1
  -6  -2   0 15.6114 1.07408   6
   6   2   0 15.2364 1.05455   4
   6   2   0 15.7813 1.03306   3
  -7  -2   0 190.695 6.07729   6
  -7  -2   0 190.138 6.06161   1
   7   2   0 195.287 6.03917   3
   7   2   0 203.643 6.11652   4
  -8  -2   0 51.5475 2.40859   1
  -8  -2   0 50.4564 2.39190   6
   8   2   0 53.1531 2.38470   3
   8   2   0 57.9911 2.48210   4
  -9  -2   0 39.8688 2.16470   6
  -9  -2   0 40.3720 2.16862   1
   9   2   0 37.2560 2.10403   4
   9   2   0 38.0162 2.09354   3
 -10  -2   0 14.3840 1.55810   1
 -10  -2   0 11.1661 1.39910   6
  10   2   0 11.8366 1.36675   3
  10   2   0 15.2965 1.61802   4
 -11  -2   0 85.1728 3.82444   6
 -11  -2   0 86.9510 3.87017   1
  11   2   0 90.2002 3.86480   3
  11   2   0 90.1116 3.89458   4
  10  -3   0 2.28436 0.96385   3
  10  -3   0 3.57879 1.11091   4
 -10   3   0 3.16793 1.08927   6
 -10   3   0 3.98210 1.10633   1
   9  -3   0 262.556 8.15094   4
   9  -3   0 235.268 7.91679   3
  -9   3   0 241.093 8.03219   1
  -9   3   0 240.503 7.95081   6
   8  -3   0 0.96758 0.70995   4
   8  -3   0 0.94262 0.67033   3
  -8   3   0 0.32812 0.59764   6
  -8   3   0 0.12910 0.69516   1
   7  -3   0 65.6522 2.78751   3
   7  -3   0 66.4918 2.83791   4
  -7   3   0 64.0595 2.80720   1
  -7   3   0 64.3457 2.78282   6
   6  -3   0 11.1589 1.16360   4
   6  -3   0 9.64504 1.01188   3
  -6   3   0 9.32499 0.99056   6
  -6   3   0 11.0324 1.16751   1
   5  -3   0 5.34721 0.72298   4
   5  -3   0 6.26112 0.74902   3
  -5   3   0 7.54952 0.87926   1
  -5   3   0 7.82245 0.78655   6
   4  -3   0 418.183 10.7682   2
   4  -3   0 388.371 11.2255   3
   4  -3   0 403.383 11.3686   4
  -4   3   0 415.032 10.7213   5
  -4   3   0 393.956 11.3374   1
  -4   3   0 395.740 11.2443   6
   3  -3   0 179.486 5.35180   4
   3  -3   0 186.030 4.93071   2
   3  -3   0 180.129 5.21292   3
  -3   3   0 171.619 5.19714   6
  -3   3   0 169.302 5.28294   1
  -3   3   0 182.707 4.88928   5
   2  -3   0 9.75160 0.69002   4
   2  -3   0 9.50290 0.49898   2
   2  -3   0 8.23010 0.57293   3
  -2   3   0 9.34147 0.67102   1
  -2   3   0 9.44195 0.58557   6
  -2   3   0 8.50358 0.45674   5
   1  -3   0 543.128 13.7896   3
   1  -3   0 515.465 13.9402   4
   1  -3   0 535.482 13.8015   2
  -1   3   0 487.369 13.7583   5
  -1   3   0 501.519 13.7796   6
  -1   3   0 505.776 13.9247   1
   0  -3   0 161.349 4.63074   4
   0  -3   0 163.885 4.58836   2
   0  -3   0 166.655 4.44657   3
   0   3   0 165.324 4.48107   6
   0   3   0 163.793 4.63516   1
   0   3   0 157.648 4.55789   5
  -1  -3   0 44.4300 1.47467   4
  -1  -3   0 45.3328 1.31131   3
   1   3   0 44.0895 1.50881   2
   1   3   0 43.3824 1.31618   6
   1   3   0 42.9684 1.45398   5
   1   3   0 43.8701 1.46970   1
  -2  -3   0 120.821 3.37050   3
  -2  -3   0 124.650 3.52688   4
   2   3   0 117.232 3.50947   1
   2   3   0 118.796 3.50613   5
   3   3   0 528.934 13.8237   5
   3   3   0 527.256 13.8712   1
   3   3   0 517.640 13.8717   2
   3   3   0 538.751 13.7414   3
   3   3   0 492.662 13.8309   4
   3   3   0 462.678 13.7388   6
   4   3   0 41.4313 1.50717   3
   4   3   0 41.1468 1.55176   2
   4   3   0 43.1090 1.60079   4
   4   3   0 41.7960 1.50170   5
   4   3   0 41.6318 1.55515   6
   4   3   0 42.3190 1.62442   1
   5   3   0 836.073 22.1707   2
   5   3   0 840.351 22.2835   6
   5   3   0 817.234 22.2960   4
   5   3   0 834.935 22.3323   1
   5   3   0 812.739 22.2018   3
   5   3   0 805.714 22.1031   5
  -6  -3   0 155.871 4.91299   6
   6   3   0 153.246 4.88476   4
   6   3   0 162.827 4.84384   3
   6   3   0 156.551 4.63005   5
  -7  -3   0 355.241 10.1457   1
  -7  -3   0 346.555 10.0966   6
   7   3   0 351.713 10.0082   3
   7   3   0 337.541 10.0495   4
  -8  -3   0 88.2683 3.45199   1
  -8  -3   0 88.8524 3.41226   6
   8   3   0 95.3633 3.41480   3
   8   3   0 92.7174 3.46505   4
  -9  -3   0 28.2710 1.83988   6
  -9  -3   0 30.8885 1.90318   1
   9   3   0 31.7989 1.84929   3
   9   3   0 31.4421 1.88747   4
 -10  -3   0 207.403 6.78462   6
 -10  -3   0 192.473 6.72874   1
  10   3   0 203.662 6.70271   3
  10   3   0 202.754 6.76226   4
 -11  -3   0 21.1850 1.88445   1
 -11  -3   0 21.5968 1.87354   6
  11   3   0 21.4132 1.88658   4
  11   3   0 23.2130 1.95696   3
   9  -4   0 33.3762 2.31713   4
   9  -4   0 34.9458 2.26031   3
  -9   4   0 35.0647 2.37779   1
  -9   4   0 30.5275 2.21332   6
   8  -4   0 7.34053 1.14080   4
   8  -4   0 5.20586 1.00480   3
  -8   4   0 7.28433 1.14242   6
  -8   4   0 7.24469 1.22118   1
   7  -4   0 8.47976 1.14656   4
   7  -4   0 8.20529 1.10967   3
  -7   4   0 6.23137 1.01254   1
  -7   4   0 6.78720 0.99434   6
   6  -4   0 -0.0470 0.50809   4
   6  -4   0 -0.2928 0.43777   3
  -6   4   0 0.49287 0.58212   1
  -6   4   0 0.39414 0.51877   6
   5  -4   0 0.24674 0.48934   4
   5  -4   0 0.30602 0.39955   3
  -5   4   0 0.51290 0.50375   1
  -5   4   0 -0.1225 0.40561   6
   4  -4   0 16.6677 1.08716   3
   4  -4   0 18.8692 1.23893   4
   4  -4   0 18.9686 0.77719   2
  -4   4   0 18.8845 0.73529   5
  -4   4   0 17.2194 1.18273   1
  -4   4   0 19.8051 1.11617   6
   3  -4   0 127.244 4.19753   4
   3  -4   0 129.681 4.02803   3
   3  -4   0 136.323 3.81998   2
  -3   4   0 136.616 3.76515   5
  -3   4   0 131.650 4.04377   6
  -3   4   0 128.764 4.17197   1
   2  -4   0 79.6348 2.46870   2
   2  -4   0 78.6852 2.70617   4
   2  -4   0 81.1930 2.54139   3
  -2   4   0 76.5973 2.68704   1
  -2   4   0 83.2638 2.44325   5
  -2   4   0 79.8007 2.54395   6
   1  -4   0 200.575 5.87252   4
   1  -4   0 198.138 5.70796   2
   1  -4   0 211.439 5.66367   3
  -1   4   0 206.918 5.69836   5
  -1   4   0 198.934 5.87064   1
   0  -4   0 92.8555 2.80559   2
   0  -4   0 94.8460 2.61183   3
   0  -4   0 90.3589 2.84986   4
   0   4   0 89.1046 2.85019   1
   0   4   0 90.4068 2.65650   6
   0   4   0 88.8446 2.75639   5
  -1  -4   0 139.454 3.96955   3
  -1  -4   0 146.761 4.24355   4
   1   4   0 141.150 4.18871   5
   1   4   0 152.033 4.00950   6
   1   4   0 141.401 4.22139   1
  -2  -4   0 4.95551 0.33981   3
  -2  -4   0 4.68018 0.47309   4
   2   4   0 3.44512 0.40914   5
   2   4   0 4.67036 0.48266   1
   2   4   0 4.12181 0.34722   6
   2   4   0 4.47708 0.51700   2
  -3  -4   0 319.206 8.28493   3
  -3  -4   0 300.060 8.46208   4
   3   4   0 296.375 8.44467   5
   3   4   0 306.249 8.48637   1
   3   4   0 293.821 8.51045   2
   4   4   0 485.266 13.7777   1
   4   4   0 529.372 13.7696   4
   4   4   0 497.198 13.7103   5
   4   4   0 507.903 13.5855   3
   4   4   0 509.576 13.7930   2
   4   4   0 483.064 13.6338   6
   5   4   0 4.90690 0.59730   4
   5   4   0 5.55547 0.63738   2
   5   4   0 5.67069 0.59708   6
   5   4   0 4.89181 0.61042   1
   5   4   0 5.01174 0.53663   3
   5   4   0 5.70439 0.58309   5
  -6  -4   0 296.730 8.44350   6
   6   4   0 286.516 8.45728   4
   6   4   0 297.853 8.35067   3
   6   4   0 289.305 8.49828   1
   6   4   0 289.220 8.27471   5
  -7  -4   0 22.3863 1.27740   6
  -7  -4   0 20.4495 1.09101   2
   7   4   0 21.6390 1.29007   3
   7   4   0 21.6423 1.35495   4
   7   4   0 19.5253 1.10410   5
  -8  -4   0 46.7452 2.21196   6
  -8  -4   0 50.7217 2.32696   1
   8   4   0 48.3068 2.18709   3
   8   4   0 49.0977 2.28475   4
  -9  -4   0 40.0283 2.17742   6
  -9  -4   0 36.4311 2.14764   1
   9   4   0 42.3199 2.22128   4
   9   4   0 41.8625 2.14654   3
 -10  -4   0 5.92969 1.04438   6
 -10  -4   0 7.16072 1.22265   1
  10   4   0 7.11727 1.19738   4
  10   4   0 7.40496 1.13316   3
 -11  -4   0 0.88900 0.75315   6
 -11  -4   0 -0.3711 0.70966   1
  11   4   0 -0.0640 0.78246   4
  11   4   0 1.33070 0.78097   3
   9  -5   0 31.7097 2.32376   4
   9  -5   0 31.4605 2.24933   3
  -9   5   0 28.2767 2.14405   6
  -9   5   0 31.7394 2.42975   1
   8  -5   0 3.33192 1.01724   4
   8  -5   0 2.34844 0.83914   3
  -8   5   0 1.91759 0.81586   6
  -8   5   0 3.38151 1.06010   1
   7  -5   0 9.18686 1.13668   3
   7  -5   0 12.9713 1.46685   4
  -7   5   0 10.4356 1.21226   6
  -7   5   0 14.1092 1.56377   1
   6  -5   0 23.6797 1.56317   3
   6  -5   0 27.1738 1.74537   4
  -6   5   0 28.6581 1.65026   6
  -6   5   0 25.4361 1.76283   1
   5  -5   0 2.13347 0.58238   3
   5  -5   0 3.21027 0.77734   4
  -5   5   0 1.74457 0.71299   1
  -5   5   0 1.95112 0.59476   6
   4  -5   0 55.9986 2.18571   3
   4  -5   0 53.2208 2.36718   4
  -4   5   0 56.6754 2.19719   6
  -4   5   0 56.3489 2.35842   1
   3  -5   0 46.5546 1.84212   3
   3  -5   0 47.5851 2.07190   4
   3  -5   0 50.7150 1.72684   2
  -3   5   0 47.9913 2.04265   1
  -3   5   0 47.5779 1.85077   6
  -3   5   0 48.5948 1.64861   5
   2  -5   0 330.000 8.88570   3
   2  -5   0 325.325 8.86136   2
   2  -5   0 309.348 9.12734   4
  -2   5   0 321.496 8.89268   6
  -2   5   0 309.674 9.10989   1
  -2   5   0 316.169 8.79926   5
   1  -5   0 219.092 5.80247   3
   1  -5   0 196.523 6.04889   4
   1  -5   0 203.945 5.90697   2
  -1   5   0 202.756 5.86673   5
  -1   5   0 207.833 6.08926   1
   0  -5   0 58.9090 2.11116   4
   0  -5   0 63.6605 1.83901   3
   0  -5   0 56.7072 2.04520   2
   0   5   0 57.7168 2.11489   1
   0   5   0 59.6936 2.02826   5
   0   5   0 58.4158 1.88179   6
  -1  -5   0 4.40557 0.52526   2
  -1  -5   0 3.80480 0.50168   4
  -1  -5   0 4.94997 0.35016   3
   1   5   0 4.07900 0.50430   1
   1   5   0 5.04799 0.37704   6
   1   5   0 5.13648 0.55534   5
  -2  -5   0 50.5377 1.91029   4
  -2  -5   0 53.3470 1.64114   3
   2   5   0 54.1103 1.93271   5
   2   5   0 54.2032 1.66522   6
   2   5   0 51.9859 1.91883   1
  -3  -5   0 0.25806 0.17001   3
  -3  -5   0 0.07563 0.26998   4
   3   5   0 -0.0412 0.27533   2
   3   5   0 0.14447 0.25157   5
  -4  -5   0 29.5965 1.17979   3
  -4  -5   0 33.0882 1.41881   4
   4   5   0 31.2192 1.39688   5
   4   5   0 29.7104 1.39598   1
   5   5   0 119.639 3.91460   1
   5   5   0 124.997 3.68497   3
   5   5   0 125.303 3.86127   5
   5   5   0 113.352 3.71262   6
  -6  -5   0 60.7543 2.30333   2
   6   5   0 62.6669 2.31791   5
   6   5   0 62.6165 2.38682   4
   6   5   0 62.8333 2.23176   3
   6   5   0 58.9077 2.42232   1
  -7  -5   0 127.393 4.03060   2
  -7  -5   0 129.678 4.15591   6
   7   5   0 123.741 4.24786   1
   7   5   0 121.024 4.00491   5
   7   5   0 116.371 4.14141   4
   7   5   0 127.360 4.04410   3
  -8  -5   0 0.15591 0.33442   6
   8   5   0 0.19778 0.48146   4
   8   5   0 0.60666 0.50765   3
  -9  -5   0 149.403 5.05982   6
  -9  -5   0 151.539 5.26080   1
   9   5   0 149.015 5.02326   3
   9   5   0 147.806 5.12788   4
 -10  -5   0 29.8165 2.68033   6
 -10  -5   0 28.9613 1.99004   1
  10   5   0 30.2691 2.07405   3
  10   5   0 31.0805 2.03231   4
 -11  -5   0 13.9546 1.63663   1
  11   5   0 13.6344 1.76374   4
   9  -6   0 1.82930 0.92908   3
  -9   6   0 0.18148 0.98121   6
   8  -6   0 29.3674 2.22982   4
   8  -6   0 27.2655 1.97950   3
  -8   6   0 25.2711 1.96174   6
  -8   6   0 27.7916 2.15460   1
   7  -6   0 1.39288 0.76534   3
   7  -6   0 1.37288 0.78727   4
  -7   6   0 1.56972 0.79798   6
  -7   6   0 3.18229 0.88080   1
   6  -6   0 148.736 5.05003   3
   6  -6   0 154.381 5.37407   4
  -6   6   0 145.035 5.22916   1
  -6   6   0 150.556 5.06114   6
   5  -6   0 113.211 3.98003   3
   5  -6   0 121.645 4.33493   4
  -5   6   0 109.589 4.17856   1
  -5   6   0 115.371 3.97345   6
   4  -6   0 31.1096 1.77700   4
   4  -6   0 31.0589 1.58175   3
  -4   6   0 31.6749 1.77682   1
  -4   6   0 31.8423 1.59513   6
   3  -6   0 36.1493 1.86241   4
   3  -6   0 40.4518 1.59914   2
   3  -6   0 40.7738 1.68927   3
  -3   6   0 40.3128 1.51604   5
  -3   6   0 37.0037 1.89058   1
  -3   6   0 40.4277 1.71354   6
   2  -6   0 30.9239 1.32704   3
   2  -6   0 33.1379 1.39706   2
   2  -6   0 28.0338 1.55330   4
  -2   6   0 31.1594 1.35771   6
  -2   6   0 32.0194 1.34278   5
  -2   6   0 30.8491 1.59663   1
   1  -6   0 11.9689 0.69283   3
   1  -6   0 11.5564 0.92613   4
   1  -6   0 12.1059 0.81676   2
  -1   6   0 10.9657 0.92057   1
  -1   6   0 11.0807 0.76185   5
   0  -6   0 0.04818 0.17388   3
   0  -6   0 0.27127 0.32414   2
   0  -6   0 -0.0879 0.29377   4
   0   6   0 0.43527 0.31511   5
   0   6   0 0.29836 0.22106   6
   0   6   0 1.37133 0.40996   1
  -1  -6   0 35.0490 1.58616   4
  -1  -6   0 37.9740 1.24103   3
  -1  -6   0 37.3276 1.60140   2
   1   6   0 36.8228 1.56780   5
   1   6   0 36.3496 1.59793   1
   1   6   0 40.0923 1.31330   6
  -2  -6   0 17.4130 0.69053   3
  -2  -6   0 15.5614 0.98452   4
   2   6   0 14.1701 0.93309   1
   2   6   0 14.6174 0.69005   6
   2   6   0 15.1173 0.97526   5
  -3  -6   0 -0.2563 0.32296   2
  -3  -6   0 1.16714 0.40745   4
   3   6   0 0.57884 0.38986   5
   3   6   0 1.24002 0.40731   1
   3   6   0 0.70556 0.23412   6
  -4  -6   0 45.0841 1.92128   2
  -4  -6   0 45.7703 1.59967   3
  -4  -6   0 44.0666 1.88042   4
   4   6   0 47.6571 1.92601   1
   4   6   0 47.2436 1.64987   6
   4   6   0 44.6311 1.89881   5
  -5  -6   0 0.71358 0.42653   4
  -5  -6   0 0.40810 0.40682   2
  -5  -6   0 0.96240 0.31604   3
   5   6   0 1.16374 0.45187   1
   5   6   0 0.71051 0.42768   5
   5   6   0 0.30645 0.27897   6
  -6  -6   0 41.4657 1.89138   4
  -6  -6   0 40.9170 1.87671   2
   6   6   0 37.6833 1.91003   1
   6   6   0 42.6382 1.86953   5
  -7  -6   0 0.27641 0.44151   2
  -7  -6   0 0.62988 0.49590   4
   7   6   0 1.47887 0.57327   1
   7   6   0 0.80029 0.45751   5
  -8  -6   0 3.32603 0.72316   2
   8   6   0 5.91120 0.94962   1
   8   6   0 4.91066 0.79466   5
  -9  -6   0 17.8995 1.56520   1
   9   6   0 17.9534 1.44744   4
 -10  -6   0 13.6307 1.51075   1
  10   6   0 15.3587 1.47614   4
   8  -7   0 -0.1130 0.76082   3
   8  -7   0 -0.2191 0.88541   4
  -8   7   0 0.67433 0.78923   6
  -8   7   0 0.11109 0.88778   1
   7  -7   0 16.4362 1.52194   3
   7  -7   0 14.9264 1.72036   4
  -7   7   0 16.2210 1.78168   1
  -7   7   0 17.4450 1.56919   6
   6  -7   0 12.2339 1.46325   4
   6  -7   0 13.2436 1.31553   3
  -6   7   0 13.6900 1.37648   6
  -6   7   0 16.2765 1.68167   1
   5  -7   0 28.6545 1.90739   4
   5  -7   0 29.0506 1.69126   3
  -5   7   0 29.0933 1.95325   1
  -5   7   0 28.6575 1.70570   6
   4  -7   0 10.8872 1.03546   3
   4  -7   0 9.44090 1.15315   4
  -4   7   0 10.5234 1.05720   6
  -4   7   0 10.6240 1.23552   1
   3  -7   0 -0.0511 0.35872   2
   3  -7   0 0.53867 0.40430   3
   3  -7   0 0.52459 0.52304   4
  -3   7   0 0.04279 0.38967   6
  -3   7   0 2.38435 0.46988   5
  -3   7   0 0.41673 0.55005   1
   2  -7   0 17.0297 1.01065   3
   2  -7   0 17.7347 1.08471   2
   2  -7   0 18.7028 1.33998   4
  -2   7   0 14.6054 0.99266   6
  -2   7   0 15.4412 1.00724   5
  -2   7   0 16.6267 1.27018   1
   1  -7   0 3.02533 0.43711   3
   1  -7   0 2.73677 0.52780   2
   1  -7   0 2.80382 0.58785   4
  -1   7   0 3.09419 0.50038   5
  -1   7   0 2.38980 0.58892   1
  -1   7   0 3.66010 0.49570   6
   0  -7   0 382.504 11.1487   4
   0  -7   0 415.226 10.6750   3
   0  -7   0 395.401 11.0526   2
   0   7   0 388.404 10.7133   6
   0   7   0 387.391 11.1586   1
   0   7   0 379.139 10.9803   5
  -1  -7   0 3.65863 0.62877   2
  -1  -7   0 3.53320 0.59725   4
   1   7   0 4.17246 0.58700   5
   1   7   0 4.46870 0.68803   1
  -2  -7   0 100.302 3.47893   4
  -2  -7   0 102.420 3.52078   2
   2   7   0 102.641 3.46122   5
   2   7   0 104.344 3.48874   1
  -3  -7   0 7.79629 0.88004   2
  -3  -7   0 6.02365 0.75244   4
   3   7   0 6.49000 0.78843   5
  -4  -7   0 29.1217 1.52506   4
  -4  -7   0 28.7823 1.52884   2
   4   7   0 27.9352 1.49354   5
   4   7   0 29.3875 1.54626   1
  -5  -7   0 61.6028 2.46804   4
  -5  -7   0 59.2972 2.46551   2
   5   7   0 61.3044 2.47274   1
   5   7   0 58.4941 2.43071   5
  -6  -7   0 2.50473 0.68359   2
  -6  -7   0 3.04051 0.69838   4
   6   7   0 2.06671 0.61964   1
   6   7   0 4.38891 0.76518   5
  -7  -7   0 0.34854 0.48842   2
  -7  -7   0 0.16392 0.51556   4
   7   7   0 0.57308 0.48055   5
   7   7   0 0.43762 0.54644   1
  -8  -7   0 6.06403 0.90933   2
  -8  -7   0 8.25766 1.07329   4
   8   7   0 9.99148 1.18951   1
   8   7   0 7.19192 0.96783   5
  -9  -7   0 -0.0741 0.61147   4
  -8   8   0 40.2783 3.82895   6
   7  -8   0 20.5345 2.10120   4
   7  -8   0 22.3863 1.89676   3
  -7   8   0 21.8975 1.82818   6
  -7   8   0 23.8295 2.14423   1
   6  -8   0 148.468 5.17860   3
   6  -8   0 140.959 5.49273   4
  -6   8   0 147.807 5.14923   6
  -6   8   0 150.267 5.55396   1
   5  -8   0 -0.3226 0.71622   4
   5  -8   0 0.58864 0.59878   3
  -5   8   0 -1.4394 0.58581   1
  -5   8   0 -0.2411 0.52701   6
   4  -8   0 38.4708 2.28360   4
  -4   8   0 37.6924 2.22884   1
  -4   8   0 36.9679 1.97983   6
   3  -8   0 211.484 6.83139   4
  -3   8   0 207.436 6.77296   1
   2  -8   0 0.01297 0.37925   2
   2  -8   0 -0.9689 0.49633   4
  -2   8   0 0.01698 0.50095   1
  -2   8   0 0.12156 0.37969   5
   1  -8   0 146.977 4.68053   2
   1  -8   0 144.647 4.90937   4
  -1   8   0 139.706 4.84928   1
  -1   8   0 151.295 4.64445   5
   0  -8   0 7.51064 0.84664   2
   0  -8   0 7.33491 0.94463   4
   0   8   0 10.3289 1.07856   1
   0   8   0 8.35937 0.90031   5
  -1  -8   0 20.1141 1.31942   2
  -1  -8   0 17.7441 1.30513   4
   1   8   0 20.2998 1.27678   5
   1   8   0 20.8044 1.33066   1
  -2  -8   0 22.8425 1.43365   4
  -2  -8   0 24.9774 1.51152   2
   2   8   0 26.5447 1.48646   1
   2   8   0 23.1835 1.42859   5
  -3  -8   0 250.628 7.58734   2
  -3  -8   0 251.873 7.52577   4
   3   8   0 247.742 7.51826   5
   3   8   0 246.074 7.50894   1
  -4  -8   0 18.2634 1.38166   2
  -4  -8   0 19.8415 1.33696   4
   4   8   0 20.6633 1.34450   5
   4   8   0 20.7725 1.39437   1
  -5  -8   0 311.348 9.25159   2
  -5  -8   0 307.306 9.13929   4
   5   8   0 306.197 9.18041   5
   5   8   0 309.919 9.21273   1
  -6  -8   0 13.1211 1.20085   4
  -6  -8   0 10.5901 1.15971   2
   6   8   0 14.4764 1.27163   5
   6   8   0 13.8179 1.28097   1
  -7  -8   0 42.3480 2.16993   4
  -7  -8   0 45.0344 2.22075   2
   7   8   0 45.2942 2.25704   5
   7   8   0 45.1406 2.32217   1
  -8  -8   0 18.6926 1.58900   2
  -8  -8   0 23.9240 1.66552   4
   8   8   0 24.2222 1.79117   1
   8   8   0 24.3307 1.65584   5
  -9  -8   0 1.44937 0.96503   4
   9   8   0 0.32165 0.72006   1
   6  -9   0 0.22795 0.84855   4
  -6   9   0 1.02731 0.91460   1
   5  -9   0 8.08296 1.38455   4
  -5   9   0 9.30448 1.43060   1
   4  -9   0 6.22728 1.14551   4
  -4   9   0 7.63719 1.21790   1
   3  -9   0 27.6633 1.98120   4
  -3   9   0 28.0643 1.94536   1
   2  -9   0 20.5342 1.67006   4
   2  -9   0 20.3929 1.36488   2
  -2   9   0 23.0155 1.40519   5
  -2   9   0 20.0476 1.59271   1
   1  -9   0 375.281 10.9409   2
   1  -9   0 377.194 11.2141   4
  -1   9   0 370.313 11.1733   1
  -1   9   0 390.393 10.9183   5
   0  -9   0 48.6149 2.21925   2
   0  -9   0 50.9899 2.39049   4
   0   9   0 49.4311 2.32307   1
   0   9   0 46.0846 2.14782   5
  -1  -9   0 71.1467 2.97542   4
  -1  -9   0 77.1092 2.99069   2
   1   9   0 72.5902 2.96238   1
   1   9   0 72.1683 2.87099   5
  -2  -9   0 612.061 17.3230   2
  -2  -9   0 620.891 17.3421   4
   2   9   0 622.620 17.2859   5
   2   9   0 609.648 17.2872   1
  -3  -9   0 10.9386 1.17283   2
  -3  -9   0 9.80539 1.11035   4
   3   9   0 9.86004 1.09783   5
   3   9   0 10.4562 1.10668   1
  -4  -9   0 41.7490 2.20581   2
  -4  -9   0 47.4272 2.21846   4
   4   9   0 41.8921 2.11874   5
   4   9   0 46.9432 2.21323   1
  -5  -9   0 21.7102 1.56487   4
  -5  -9   0 20.0549 1.57692   2
   5   9   0 17.8574 1.49482   5
   5   9   0 22.6674 1.55241   1
  -6  -9   0 0.91646 0.60482   2
  -6  -9   0 0.10436 0.54498   4
   6   9   0 -0.5444 0.47958   5
   6   9   0 -0.4999 0.52798   1
  -7  -9   0 61.1957 2.84610   2
  -7  -9   0 60.0622 2.76482   4
   7   9   0 60.3097 2.82672   5
   7   9   0 65.7044 2.91681   1
  -8  -9   0 99.5406 3.99862   2
  -8  -9   0 103.105 4.10889   4
   8   9   0 106.079 4.06636   5
   8   9   0 100.694 4.11702   1
   5 -10   0 2.65749 1.14109   4
  -5  10   0 2.81431 1.12502   1
   4 -10   0 164.854 6.04665   4
  -4  10   0 159.308 5.91429   1
   3 -10   0 17.8658 1.77986   4
  -3  10   0 17.8060 1.75625   1
   2 -10   0 93.3268 3.86354   2
   2 -10   0 89.8519 3.79616   4
  -2  10   0 85.7944 3.69579   1
   1 -10   0 139.659 4.82420   2
   1 -10   0 135.887 5.08755   4
  -1  10   0 151.150 4.85746   5
  -1  10   0 138.859 5.05002   1
   0 -10   0 1.55366 0.78863   4
   0 -10   0 1.18906 0.62335   2
   0  10   0 1.35012 0.67984   1
   0  10   0 1.66069 0.65016   5
  -1 -10   0 188.023 6.25209   4
  -1 -10   0 190.453 6.18935   2
   1  10   0 180.260 6.15096   1
   1  10   0 198.138 6.18365   5
  -2 -10   0 44.1183 2.33076   2
  -2 -10   0 45.3637 2.34420   4
   2  10   0 48.6271 2.33210   1
   2  10   0 43.5648 2.28472   5
  -3 -10   0 17.3956 1.47683   4
  -3 -10   0 18.3610 1.57984   2
   3  10   0 18.2893 1.51977   5
  -4 -10   0 4.70263 0.98529   2
  -4 -10   0 6.05381 0.99894   4
   4  10   0 5.01945 0.91203   1
   4  10   0 3.44606 0.86464   5
  -5 -10   0 271.786 8.50911   2
  -5 -10   0 266.114 8.29659   4
   5  10   0 266.760 8.35594   1
   5  10   0 264.347 8.39418   5
  -6 -10   0 -0.0256 0.65328   2
  -6 -10   0 0.02949 0.63528   4
   6  10   0 0.36221 0.64472   1
   6  10   0 -0.0462 0.58151   5
  -7 -10   0 89.1892 3.83869   2
  -7 -10   0 94.0743 3.80519   4
   7  10   0 91.6907 3.81377   5
   7  10   0 93.1719 3.85675   1
  -8 -10   0 0.32461 0.74822   2
   8  10   0 0.29482 0.76378   5
   3 -11   0 0.46091 0.90335   4
  -3  11   0 1.64364 0.93318   1
   2 -11   0 0.75877 0.87788   4
  -2  11   0 1.37916 0.90909   1
   1 -11   0 73.9894 3.21538   2
   1 -11   0 77.5632 3.54640   4
  -1  11   0 81.1573 3.52730   1
  -1  11   0 80.7175 3.22999   5
   0 -11   0 13.5893 1.54734   4
   0 -11   0 10.4158 1.23006   2
   0  11   0 12.2444 1.41452   1
   0  11   0 11.4738 1.28073   5
  -1 -11   0 620.718 17.5156   4
  -1 -11   0 605.499 17.3999   2
   1  11   0 577.960 17.3460   1
   1  11   0 628.682 17.3554   5
  -2 -11   0 211.698 6.83373   4
  -2 -11   0 198.205 6.75327   2
   2  11   0 202.469 6.71327   5
   2  11   0 204.813 6.75396   1
  -3 -11   0 0.48932 0.67240   2
  -3 -11   0 -0.3678 0.65449   4
   3  11   0 -0.0875 0.65108   1
   3  11   0 -0.6236 0.60791   5
  -4 -11   0 229.913 7.39004   4
  -4 -11   0 230.013 7.53853   2
   4  11   0 224.370 7.42097   5
   4  11   0 224.536 7.36993   1
  -5 -11   0 1.56772 0.81379   4
  -5 -11   0 0.85842 0.75525   2
   5  11   0 1.22854 0.83503   5
   5  11   0 0.65135 0.69275   1
  -6 -11   0 89.0187 4.07702   4
  -6 -11   0 94.2026 4.00664   2
   6  11   0 94.9367 3.95004   1
   6  11   0 97.9346 4.02440   5
   1 -12   0 -0.5592 0.81653   4
  -1  12   0 0.39637 0.80575   1
   0 -12   0 2.45620 1.07079   4
   0 -12   0 3.20537 0.91587   2
   0  12   0 3.67501 0.96476   5
   0  12   0 4.87836 1.02787   1
  -1 -12   0 41.9038 2.50374   4
  -1 -12   0 38.9725 2.37401   2
   1  12   0 35.8635 2.29681   1
   1  12   0 40.3003 2.37057   5
  -2 -12   0 14.4920 1.60422   4
  -2 -12   0 12.7239 1.52160   2
   2  12   0 13.3340 1.52021   1
   2  12   0 12.5100 1.43396   5
  -3 -12   0 63.0046 3.23348   2
  -3 -12   0 64.0248 3.14007   4
   3  12   0 67.9484 3.19673   5
  -4 -12   0 116.995 4.76429   2
  -4 -12   0 118.093 4.63187   4
   4  12   0 115.373 4.72307   5
   4  12   0 126.615 4.71822   1
   5  12   0 1.33080 1.12516   1
   5  12  -1 -0.4720 0.66945   1
  -5 -12   1 -0.3009 0.74769   4
   4  12  -1 80.3089 3.63768   1
   4  12  -1 73.4688 3.93670   5
  -4 -12   1 86.5056 3.68079   4
  -4 -12   1 79.7912 4.03554   2
   3  12  -1 14.2049 1.60114   5
  -3 -12   1 16.8474 1.72887   4
  -3 -12   1 16.0019 1.78299   2
   2  12  -1 0.65318 0.78096   1
   2  12  -1 2.08259 0.90776   5
  -2 -12   1 0.53526 0.81327   2
  -2 -12   1 2.47438 0.88660   4
   1  12  -1 34.2003 2.19746   5
   1  12  -1 30.8260 2.16639   1
  -1 -12   1 31.9893 2.21036   2
  -1 -12   1 37.0002 2.44069   4
   0  12  -1 166.939 5.59810   5
   0  12  -1 148.274 5.65928   1
   0 -12   1 151.852 5.80828   4
   0 -12   1 160.097 5.64892   2
  -1  12  -1 3.79590 1.04143   1
  -1  12  -1 6.16205 1.10778   5
   1 -12   1 4.97216 1.22481   4
   1 -12   1 5.33503 1.05675   2
   7  11  -1 32.9243 2.33282   1
  -7 -11   1 34.3543 2.32411   4
   6  11  -1 28.6703 2.12142   5
   6  11  -1 36.6273 2.30215   1
  -6 -11   1 35.3526 2.20356   4
  -6 -11   1 34.3924 2.31146   2
   5  11  -1 2.30973 0.92802   5
   5  11  -1 2.27390 0.82990   1
  -5 -11   1 1.50395 0.86771   2
  -5 -11   1 2.51428 0.83312   4
   4  11  -1 0.72647 0.70874   1
   4  11  -1 0.31509 0.69852   5
  -4 -11   1 1.25340 0.81452   2
  -4 -11   1 -0.3146 0.67546   4
   3  11  -1 23.1541 1.82828   5
  -3 -11   1 26.6827 1.96446   2
  -3 -11   1 26.7641 1.91286   4
   2  11  -1 1.39998 0.78256   1
   2  11  -1 0.66792 0.75665   5
  -2 -11   1 0.62634 0.74358   4
  -2 -11   1 0.79320 0.71882   2
   1  11  -1 21.2608 1.72946   1
   1  11  -1 23.2678 1.79246   5
  -1 -11   1 20.7074 1.78010   4
  -1 -11   1 22.1738 1.79870   2
   0  11  -1 2.42444 0.83903   1
   0  11  -1 1.42194 0.72672   5
   0 -11   1 1.16651 0.87847   4
   0 -11   1 1.65408 0.75032   2
  -1  11  -1 18.6196 1.77096   1
  -1  11  -1 15.9808 1.53389   5
   1 -11   1 17.5236 1.76523   4
   1 -11   1 16.5992 1.52995   2
  -2  11  -1 164.922 6.07976   1
   2 -11   1 175.385 6.21634   4
  -3  11  -1 2.26903 0.98895   1
   3 -11   1 0.98188 0.91951   4
   8  10  -1 49.7367 2.79374   1
   8  10  -1 51.3563 2.73704   5
  -8 -10   1 50.8018 2.73930   2
  -8 -10   1 50.1416 2.74231   4
   7  10  -1 1.98435 0.83324   5
   7  10  -1 4.98227 1.07426   1
  -7 -10   1 2.51400 0.90899   2
  -7 -10   1 1.69970 0.84736   4
   6  10  -1 17.9055 1.65687   1
   6  10  -1 21.3911 1.69377   5
  -6 -10   1 18.2399 1.65507   4
  -6 -10   1 18.7678 1.67220   2
   5  10  -1 2.23659 0.83773   5
   5  10  -1 2.79571 0.83540   1
  -5 -10   1 2.54685 0.89428   2
  -5 -10   1 3.53555 0.89473   4
   4  10  -1 98.2411 3.79725   5
   4  10  -1 93.7329 3.75083   1
  -4 -10   1 93.1355 3.81415   2
  -4 -10   1 96.9061 3.77201   4
   3  10  -1 0.91782 0.66596   5
   3  10  -1 1.99879 0.71240   1
  -3 -10   1 0.99929 0.65029   2
  -3 -10   1 0.78277 0.64931   4
   2  10  -1 131.094 4.76785   1
   2  10  -1 134.763 4.73724   5
  -2 -10   1 137.947 4.85102   4
  -2 -10   1 134.868 4.81506   2
   1  10  -1 6.98235 0.96024   5
   1  10  -1 9.59436 1.15879   1
  -1 -10   1 8.40872 1.07905   2
  -1 -10   1 8.17688 1.14927   4
   0  10  -1 79.1520 3.07790   5
   0  10  -1 73.2255 3.19330   1
   0 -10   1 76.0358 3.27368   4
   0 -10   1 70.0107 3.06078   2
  -1  10  -1 17.2522 1.41627   5
  -1  10  -1 17.8690 1.60103   1
   1 -10   1 17.2914 1.42141   2
   1 -10   1 16.2764 1.52599   4
  -2  10  -1 29.4386 1.67437   5
  -2  10  -1 26.8732 1.95511   1
   2 -10   1 26.3136 1.66631   2
   2 -10   1 26.2283 2.00191   4
  -3  10  -1 6.68671 1.21320   1
   3 -10   1 6.08539 1.19589   4
  -4  10  -1 8.77837 1.40048   1
   4 -10   1 9.09988 1.46160   4
  -5  10  -1 2.28527 1.09249   1
   5 -10   1 2.15782 0.97944   4
   9   9  -1 50.3812 2.84616   1
  -9  -9   1 52.0084 3.01196   4
   8   9  -1 27.7642 2.03620   1
   8   9  -1 26.0604 1.88151   5
  -8  -9   1 24.1232 1.89109   4
  -8  -9   1 24.4376 1.87334   2
   7   9  -1 2.36602 0.78655   5
   7   9  -1 3.68740 0.94190   1
  -7  -9   1 3.17770 0.87311   2
  -7  -9   1 3.54424 0.88674   4
   6   9  -1 1.30426 0.67150   5
   6   9  -1 1.25746 0.67263   1
  -6  -9   1 0.02138 0.59476   4
  -6  -9   1 0.09458 0.60143   2
   5   9  -1 3.63608 0.83732   5
   5   9  -1 4.17737 0.84668   1
  -5  -9   1 5.83200 0.96969   4
  -5  -9   1 4.06488 0.85176   2
   4   9  -1 9.32255 1.10041   1
   4   9  -1 10.7861 1.18597   5
  -4  -9   1 9.93547 1.16120   2
  -4  -9   1 9.72362 1.17354   4
   3   9  -1 58.2061 2.61907   1
   3   9  -1 63.1811 2.65298   5
  -3  -9   1 56.9688 2.59967   2
  -3  -9   1 61.1677 2.66400   4
   2   9  -1 71.7153 2.87627   5
   2   9  -1 71.0657 2.89658   1
  -2  -9   1 68.2257 2.91104   2
  -2  -9   1 67.5520 2.88412   4
   1   9  -1 12.8396 1.27140   1
   1   9  -1 9.72248 1.03774   5
  -1  -9   1 13.6699 1.31405   4
  -1  -9   1 12.7829 1.23298   2
   0   9  -1 6.79570 0.96861   1
   0   9  -1 6.53915 0.88890   5
   0  -9   1 6.66431 0.91184   2
   0  -9   1 8.07615 1.10818   4
  -1   9  -1 85.5237 3.41339   1
  -1   9  -1 83.2524 3.13122   5
   1  -9   1 78.4700 3.10732   2
   1  -9   1 86.9407 3.45335   4
  -2   9  -1 27.7562 1.85670   1
  -2   9  -1 29.0539 1.59058   5
   2  -9   1 25.8594 1.79071   4
   2  -9   1 27.9029 1.63034   2
  -3   9  -1 4.64799 1.00648   1
   3  -9   1 3.49435 0.96006   4
  -4   9  -1 0.99646 0.85070   1
   4  -9   1 0.30649 0.74667   4
  -5   9  -1 38.5636 2.50222   1
   5  -9   1 38.8333 2.48457   4
  -6   9  -1 34.7978 2.52975   1
   6  -9   1 34.9948 2.50846   4
   9   8  -1 32.8896 2.23154   1
  -9  -8   1 30.7289 2.13967   4
   8   8  -1 0.56311 0.69556   1
   8   8  -1 0.70530 0.62697   5
  -8  -8   1 0.10892 0.60916   2
  -8  -8   1 -0.0958 0.62361   4
   7   8  -1 0.54839 0.56852   5
   7   8  -1 2.12686 0.76868   1
  -7  -8   1 2.31569 0.74467   4
  -7  -8   1 2.04027 0.65939   2
   6   8  -1 26.0186 1.62563   5
   6   8  -1 26.9527 1.69212   1
  -6  -8   1 22.5436 1.60164   2
  -6  -8   1 22.5860 1.57692   4
   5   8  -1 24.4124 1.54607   5
   5   8  -1 24.0173 1.56937   1
  -5  -8   1 23.7632 1.53949   4
  -5  -8   1 22.9623 1.55190   2
   4   8  -1 48.3081 2.26657   1
   4   8  -1 47.5868 2.22034   5
  -4  -8   1 56.0846 2.37865   2
  -4  -8   1 49.5453 2.25708   4
   3   8  -1 39.6811 1.91539   5
  -3  -8   1 41.5932 2.04422   2
  -3  -8   1 41.7735 2.02177   4
   2   8  -1 3.55693 0.67447   1
   2   8  -1 3.20319 0.68990   5
  -2  -8   1 2.88813 0.70417   4
  -2  -8   1 3.29226 0.70369   2
   1   8  -1 8.90563 0.99565   1
   1   8  -1 7.50701 0.83237   5
  -1  -8   1 8.71977 0.96955   2
  -1  -8   1 8.06178 0.95501   4
   0   8  -1 1.48179 0.60374   1
   0   8  -1 0.14994 0.40142   5
   0  -8   1 1.19320 0.52967   2
   0  -8   1 1.14294 0.60916   4
  -1   8  -1 6.25117 0.91918   1
  -1   8  -1 7.02208 0.80458   5
   1  -8   1 7.07284 0.85664   2
   1  -8   1 7.75896 0.96260   4
  -2   8  -1 9.91469 0.94553   5
  -2   8  -1 10.1091 1.12548   1
   2  -8   1 9.80987 0.95296   2
   2  -8   1 8.42679 1.05631   4
  -3   8  -1 19.3506 1.59647   1
  -3   8  -1 19.7066 1.24269   5
   3  -8   1 18.4167 1.27779   2
   3  -8   1 20.8918 1.64105   4
  -4   8  -1 39.2982 2.26103   1
   4  -8   1 34.5787 2.13070   4
  -5   8  -1 56.4401 2.90085   1
   5  -8   1 57.5799 2.93777   4
  -6   8  -1 0.84643 0.90113   1
   6  -8   1 -0.0784 0.77695   4
  -7   8  -1 17.0719 1.84191   1
   7  -8   1 15.6328 1.77057   4
 -10  -7   1 190.003 6.67707   1
 -10  -7   1 190.327 6.62898   4
  -9  -7   1 49.0543 2.57638   4
   8   7  -1 141.145 4.74906   5
   8   7  -1 141.575 5.04779   1
  -8  -7   1 137.349 4.75301   2
  -8  -7   1 140.593 4.93668   4
   7   7  -1 1.71684 0.66334   1
   7   7  -1 2.56960 0.65785   5
  -7  -7   1 2.23971 0.71558   4
  -7  -7   1 1.80960 0.63380   2
   6   7  -1 87.7085 3.18866   5
   6   7  -1 80.2780 3.24563   1
  -6  -7   1 84.5530 3.18747   2
  -6  -7   1 86.3484 3.24668   4
   5   7  -1 7.34445 0.89768   5
   5   7  -1 9.37327 1.03555   1
  -5  -7   1 8.12529 0.94576   4
  -5  -7   1 7.43424 0.89635   2
   4   7  -1 83.3650 3.08860   1
   4   7  -1 81.9418 3.03149   5
  -4  -7   1 84.0116 3.09046   2
  -4  -7   1 83.7715 3.07880   4
   3   7  -1 36.5756 1.69340   5
  -3  -7   1 34.3321 1.72715   2
  -3  -7   1 35.5751 1.72141   4
   2   7  -1 180.263 5.60151   1
   2   7  -1 180.109 5.56373   5
  -2  -7   1 182.599 5.63510   4
  -2  -7   1 181.365 5.61091   2
   1   7  -1 168.481 5.20187   5
   1   7  -1 170.713 5.30984   1
  -1  -7   1 168.414 5.26511   2
  -1  -7   1 169.833 5.32204   4
   0   7  -1 5.84774 0.75795   1
   0   7  -1 3.94240 0.61073   5
   0  -7   1 4.46391 0.71883   4
   0  -7   1 4.03961 0.63673   2
  -1   7  -1 11.1908 1.02314   1
  -1   7  -1 8.87474 0.82033   5
   1  -7   1 8.76031 0.84910   2
   1  -7   1 9.20558 0.92381   4
  -2   7  -1 0.27764 0.28939   6
  -2   7  -1 -0.2348 0.44729   1
  -2   7  -1 -0.0171 0.34943   5
   2  -7   1 -0.4243 0.40737   4
   2  -7   1 -0.4694 0.31812   2
   2  -7   1 0.05900 0.32509   3
  -3   7  -1 140.575 4.26267   5
  -3   7  -1 133.468 4.70938   1
  -3   7  -1 136.816 4.31496   6
   3  -7   1 138.348 4.77206   4
   3  -7   1 136.663 4.30067   3
   3  -7   1 138.307 4.34637   2
  -4   7  -1 4.59704 0.88988   1
  -4   7  -1 5.61512 0.75456   6
   4  -7   1 5.43471 0.74011   3
   4  -7   1 4.70417 0.90488   4
  -5   7  -1 30.4761 1.99010   1
  -5   7  -1 30.9435 1.71657   6
   5  -7   1 29.8040 1.68317   3
   5  -7   1 30.3929 2.02633   4
  -6   7  -1 0.10211 0.68515   1
  -6   7  -1 0.63788 0.59903   6
   6  -7   1 -0.1229 0.64184   4
   6  -7   1 -0.1186 0.58340   3
  -7   7  -1 1.46622 0.75497   6
  -7   7  -1 0.23658 0.81880   1
   7  -7   1 0.06060 0.82130   4
   7  -7   1 1.22398 0.73647   3
  -8   7  -1 3.42969 1.16355   1
  -8   7  -1 3.38834 0.98432   6
   8  -7   1 1.70325 1.04151   4
   8  -7   1 4.01402 1.04524   3
  10   6  -1 6.39332 1.14434   4
 -10  -6   1 7.68934 1.29711   1
   9   6  -1 190.305 6.32465   4
  -9  -6   1 191.375 6.48789   1
   8   6  -1 37.9343 2.15528   1
   7   6  -1 141.503 4.91461   1
   7   6  -1 144.419 4.64855   5
  -7  -6   1 140.428 4.81787   4
  -7  -6   1 145.230 4.66148   2
   6   6  -1 52.9666 2.34078   1
   6   6  -1 52.6175 2.17396   5
  -6  -6   1 51.1739 2.18760   2
  -6  -6   1 53.9502 2.30239   4
   5   6  -1 513.331 14.5566   1
   5   6  -1 526.097 14.4571   5
  -5  -6   1 520.364 14.5112   4
  -5  -6   1 514.371 14.4696   2
   4   6  -1 -0.5206 0.30369   5
   4   6  -1 -0.3762 0.30393   1
  -4  -6   1 -0.0013 0.37471   4
  -4  -6   1 -0.0748 0.33268   2
   3   6  -1 442.187 11.6030   6
   3   6  -1 423.920 11.9962   1
   3   6  -1 418.309 11.9444   5
  -3  -6   1 432.100 11.6561   3
  -3  -6   1 430.212 12.0134   2
  -3  -6   1 416.619 11.9829   4
   2   6  -1 0.08246 0.28880   1
   2   6  -1 0.44049 0.33047   5
   2   6  -1 0.15988 0.11686   6
  -2  -6   1 -0.2114 0.29949   4
  -2  -6   1 0.22479 0.30888   2
  -2  -6   1 0.08177 0.12113   3
   1   6  -1 60.9322 2.33965   1
   1   6  -1 68.0830 1.90044   6
   1   6  -1 59.2619 2.24989   5
  -1  -6   1 62.1193 2.37049   4
  -1  -6   1 66.7427 1.85680   3
   0   6  -1 122.396 3.99878   1
   0   6  -1 117.022 3.83656   5
   0   6  -1 119.996 3.55023   6
   0  -6   1 135.928 3.53412   3
   0  -6   1 126.530 3.92341   2
   0  -6   1 120.013 3.99207   4
  -1   6  -1 25.1075 1.20973   5
  -1   6  -1 23.5650 1.33847   1
  -1   6  -1 25.1684 1.05373   6
   1  -6   1 25.1498 1.36347   4
   1  -6   1 27.8315 1.05546   3
   1  -6   1 25.6834 1.24593   2
  -2   6  -1 0.50460 0.45330   1
  -2   6  -1 0.39592 0.31968   5
   2  -6   1 0.94298 0.32373   3
   2  -6   1 0.89989 0.38422   2
   2  -6   1 0.61664 0.46303   4
  -3   6  -1 0.25327 0.36933   6
  -3   6  -1 0.11802 0.32369   5
  -3   6  -1 0.75975 0.49628   1
   3  -6   1 0.15458 0.35178   2
   3  -6   1 0.06713 0.37319   3
   3  -6   1 0.67198 0.48907   4
  -4   6  -1 36.1936 1.92981   1
  -4   6  -1 36.1610 1.66769   6
   4  -6   1 36.7474 1.67767   3
   4  -6   1 31.6724 1.90527   4
  -5   6  -1 6.62525 0.87660   6
  -5   6  -1 5.10726 0.88070   1
   5  -6   1 6.24145 0.83112   3
   5  -6   1 4.58110 0.94055   4
  -6   6  -1 45.5377 2.23166   6
  -6   6  -1 45.8824 2.45400   1
   6  -6   1 49.3131 2.30978   3
   6  -6   1 49.9174 2.57737   4
  -7   6  -1 7.10279 1.08735   6
  -7   6  -1 6.42595 1.16530   1
   7  -6   1 4.13132 0.91540   3
   7  -6   1 7.53711 1.25743   4
  -8   6  -1 10.5340 1.45788   1
  -8   6  -1 9.12182 1.27356   6
   8  -6   1 11.5702 1.37737   3
   8  -6   1 15.8430 1.81095   4
  -9   6  -1 0.54583 0.87495   6
   9  -6   1 0.94016 0.87611   3
  11   5  -1 198.331 7.83369   4
 -11  -5   1 202.623 8.21887   1
  10   5  -1 35.9732 2.23136   4
 -10  -5   1 34.5308 2.26064   1
   9   5  -1 159.400 6.13840   3
   9   5  -1 160.750 5.49056   4
  -9  -5   1 155.206 5.54922   1
   8   5  -1 128.589 4.51970   4
   8   5  -1 130.336 4.30234   3
  -8  -5   1 127.721 4.32744   6
   7   5  -1 10.1392 0.93567   5
   7   5  -1 11.2296 1.13870   4
   7   5  -1 9.47448 1.05975   1
   7   5  -1 12.9771 0.99420   3
  -7  -5   1 10.0173 0.83694   2
  -7  -5   1 10.6058 0.90803   6
   6   5  -1 182.776 5.53936   5
   6   5  -1 187.380 5.44742   3
   6   5  -1 180.056 5.68901   4
   6   5  -1 182.952 5.78589   1
  -6  -5   1 185.877 5.53799   6
  -6  -5   1 182.192 5.56019   2
   5   5  -1 5.15723 0.53176   3
   5   5  -1 4.55342 0.62985   5
   5   5  -1 5.94927 0.76350   1
  -5  -5   1 5.59237 0.60666   6
  -5  -5   1 4.55416 0.60674   2
   4   5  -1 809.454 22.1742   1
   4   5  -1 812.303 22.0783   5
   4   5  -1 837.214 21.7905   3
   4   5  -1 845.450 21.8399   6
  -4  -5   1 800.673 22.1330   4
  -4  -5   1 789.484 22.0964   2
   3   5  -1 9.81819 0.53229   6
   3   5  -1 8.96580 0.76507   1
   3   5  -1 9.13349 0.71420   5
  -3  -5   1 11.6954 0.82308   4
  -3  -5   1 9.48752 0.78217   2
  -3  -5   1 10.0586 0.51148   3
   2   5  -1 411.829 11.5727   1
   2   5  -1 418.201 11.5337   5
   2   5  -1 416.758 11.1401   6
  -2  -5   1 417.207 11.5928   4
  -2  -5   1 405.308 11.5607   2
  -2  -5   1 433.836 11.1377   3
   1   5  -1 341.547 9.64659   5
   1   5  -1 341.864 9.70703   1
   1   5  -1 350.321 9.27125   6
  -1  -5   1 350.617 9.69550   2
  -1  -5   1 333.103 9.71299   4
  -1  -5   1 361.990 9.24269   3
   0   5  -1 229.145 6.61853   5
   0   5  -1 232.199 6.35028   6
   0   5  -1 224.433 6.71824   1
   0  -5   1 231.136 6.65811   2
   0  -5   1 250.360 6.32773   3
   0  -5   1 225.354 6.72136   4
  -1   5  -1 170.425 4.76691   6
  -1   5  -1 168.306 4.91162   5
  -1   5  -1 164.173 5.09882   1
   1  -5   1 158.064 5.06993   4
   1  -5   1 170.533 4.96726   2
   1  -5   1 179.345 4.77464   3
  -2   5  -1 124.315 3.94069   1
  -2   5  -1 123.450 3.62765   5
  -2   5  -1 105.735 3.56365   6
   2  -5   1 123.005 3.93825   4
   2  -5   1 123.607 3.62127   3
   2  -5   1 122.493 3.68133   2
  -3   5  -1 419.721 11.6766   6
  -3   5  -1 409.835 11.9365   1
  -3   5  -1 441.386 11.5399   5
   3  -5   1 425.807 11.6891   3
   3  -5   1 400.405 11.9500   4
   3  -5   1 434.668 11.6085   2
  -4   5  -1 2.36466 0.50959   6
  -4   5  -1 3.37160 0.40763   5
  -4   5  -1 1.67826 0.53449   1
   4  -5   1 2.57560 0.52395   3
   4  -5   1 2.87902 0.71501   4
   4  -5   1 3.75418 0.45995   2
  -5   5  -1 109.354 3.96264   1
  -5   5  -1 110.859 3.78870   6
   5  -5   1 115.989 4.11115   4
   5  -5   1 111.974 3.80764   3
  -6   5  -1 8.60907 1.10701   1
  -6   5  -1 9.17017 1.02302   6
   6  -5   1 9.45631 1.20752   4
   6  -5   1 8.78750 1.00241   3
  -7   5  -1 14.6290 1.38283   6
  -7   5  -1 16.5981 1.65980   1
   7  -5   1 14.7836 1.42700   3
   7  -5   1 16.6952 1.59688   4
  -8   5  -1 55.9302 2.75086   6
  -8   5  -1 59.9681 2.99060   1
   8  -5   1 50.7273 2.68991   3
   8  -5   1 60.1847 2.98928   4
  -9   5  -1 -0.0377 0.78277   1
  -9   5  -1 -0.4372 0.71116   6
   9  -5   1 0.18014 0.76657   3
   9  -5   1 0.03703 0.80308   4
  11   4  -1 3.65509 1.09555   4
  11   4  -1 5.82219 1.11162   3
 -11  -4   1 5.45970 1.22052   1
 -11  -4   1 4.74226 1.06507   6
  10   4  -1 392.404 11.5868   4
  10   4  -1 383.387 11.3569   3
 -10  -4   1 365.352 11.3117   6
 -10  -4   1 376.953 11.6056   1
   9   4  -1 94.0345 3.53265   3
   9   4  -1 91.3867 3.67388   4
  -9  -4   1 90.6425 3.53317   6
  -9  -4   1 87.0120 3.65997   1
   8   4  -1 44.6874 2.01781   3
   8   4  -1 37.7868 2.04902   4
  -8  -4   1 40.8934 1.95685   6
  -8  -4   1 36.4674 2.05741   1
   7   4  -1 207.499 6.50575   4
   7   4  -1 207.733 6.54987   1
   7   4  -1 213.111 6.33415   3
   7   4  -1 214.155 6.14547   5
  -7  -4   1 205.942 6.34544   6
  -7  -4   1 207.675 6.13683   2
   6   4  -1 358.098 10.1882   5
   6   4  -1 356.351 10.4368   4
   6   4  -1 354.936 10.4978   1
   6   4  -1 374.373 10.2741   3
  -6  -4   1 376.841 10.3485   6
  -6  -4   1 370.080 10.2249   2
   5   4  -1 64.4791 2.36018   4
   5   4  -1 64.0769 2.18068   3
   5   4  -1 63.2307 2.21803   5
   5   4  -1 63.3235 2.40986   1
  -5  -4   1 66.5189 2.25396   6
  -5  -4   1 61.2684 2.21298   2
   4   4  -1 51.5921 1.99933   1
   4   4  -1 52.2915 1.75536   3
   4   4  -1 53.2848 1.97765   4
   4   4  -1 51.7598 1.88697   5
  -4  -4   1 50.8471 1.89898   2
   3   4  -1 635.086 16.7131   3
   3   4  -1 648.739 16.7639   6
   3   4  -1 608.454 16.9386   5
   3   4  -1 610.854 17.0165   1
  -3  -4   1 643.845 17.0416   4
  -3  -4   1 611.832 16.9697   2
   2   4  -1 49.3239 1.45706   6
   2   4  -1 46.1936 1.73533   1
   2   4  -1 46.2497 1.69242   5
  -2  -4   1 50.0164 1.44470   3
  -2  -4   1 47.5454 1.75089   4
   1   4  -1 1288.93 34.7267   5
   1   4  -1 1294.82 34.7759   1
   1   4  -1 1420.12 34.6640   6
  -1  -4   1 1229.63 34.7658   4
  -1  -4   1 1295.11 34.5517   3
  -1  -4   1 1309.31 34.7680   2
   0   4  -1 16.9365 0.66419   6
   0   4  -1 17.4579 0.82913   5
   0   4  -1 17.4894 0.89922   1
   0  -4   1 17.2848 0.88495   4
   0  -4   1 17.9132 0.87204   2
   0  -4   1 19.4725 0.64414   3
  -1   4  -1 36.5649 1.46903   1
  -1   4  -1 37.0999 1.33510   5
  -1   4  -1 32.2411 1.21685   6
   1  -4   1 38.1315 1.38273   2
   1  -4   1 38.9782 1.25252   3
   1  -4   1 38.0864 1.48361   4
  -2   4  -1 3328.27 87.8823   6
  -2   4  -1 3491.58 87.8881   5
  -2   4  -1 3019.13 87.2734   1
   2  -4   1 3460.51 87.8537   2
   2  -4   1 3432.60 87.8742   3
   2  -4   1 3024.97 87.6000   4
  -3   4  -1 34.5656 1.44550   6
  -3   4  -1 34.8307 1.57221   1
  -3   4  -1 36.4769 1.28076   5
   3  -4   1 35.4252 1.45097   3
   3  -4   1 35.4980 1.60936   4
   3  -4   1 37.6079 1.34100   2
  -4   4  -1 54.6823 2.06786   6
  -4   4  -1 55.6438 1.72325   5
  -4   4  -1 51.9243 2.18898   1
   4  -4   1 52.4216 2.04169   3
   4  -4   1 53.3101 2.23778   4
   4  -4   1 53.1855 1.76789   2
  -5   4  -1 169.332 5.37255   1
  -5   4  -1 165.026 5.20452   6
   5  -4   1 167.685 5.37933   4
   5  -4   1 164.107 5.19999   3
  -6   4  -1 0.80513 0.51563   6
  -6   4  -1 0.95217 0.61814   1
   6  -4   1 0.13291 0.46431   3
   6  -4   1 0.29919 0.49037   4
  -7   4  -1 1.36089 0.62404   6
  -7   4  -1 1.29143 0.71041   1
   7  -4   1 2.43261 0.70759   3
   7  -4   1 1.19327 0.69693   4
  -8   4  -1 157.033 5.51951   6
  -8   4  -1 163.336 5.67127   1
   8  -4   1 154.397 5.63997   4
   8  -4   1 164.290 5.55605   3
  -9   4  -1 41.1443 2.55201   1
  -9   4  -1 40.4407 2.44254   6
   9  -4   1 42.5641 2.46535   3
   9  -4   1 42.2580 2.54285   4
 -10   4  -1 109.815 4.98175   1
  10  -4   1 92.6080 5.49637   3
  10  -4   1 82.9418 5.16712   4
  11   3  -1 64.4973 3.15828   4
  11   3  -1 59.3330 2.96864   3
 -11  -3   1 56.7557 2.89740   6
 -11  -3   1 52.5571 3.02932   1
  10   3  -1 19.9482 1.67562   3
  10   3  -1 23.7818 1.88359   4
 -10  -3   1 19.8584 1.85526   1
 -10  -3   1 19.0972 1.66613   6
   9   3  -1 241.703 7.64711   4
   9   3  -1 242.746 7.49934   3
  -9  -3   1 240.339 7.54195   6
  -9  -3   1 231.690 7.65320   1
   8   3  -1 127.339 4.31124   3
   8   3  -1 126.091 4.41983   4
  -8  -3   1 117.015 4.26363   6
  -8  -3   1 128.878 4.46451   1
   7   3  -1 86.1131 3.20115   4
   7   3  -1 86.3210 3.10646   3
  -7  -3   1 84.4855 3.11690   6
  -7  -3   1 88.8607 3.28805   1
   6   3  -1 541.228 15.1544   1
   6   3  -1 552.287 15.0063   3
   6   3  -1 525.322 15.1013   4
  -6  -3   1 567.478 14.7981   2
  -6  -3   1 529.318 15.0178   6
   5   3  -1 169.278 5.03604   3
   5   3  -1 167.522 5.20283   1
   5   3  -1 172.809 5.18113   4
   5   3  -1 166.461 4.91296   5
  -5  -3   1 172.420 4.94619   2
  -5  -3   1 172.909 5.09008   6
   4   3  -1 1352.46 35.7965   1
   4   3  -1 1321.13 35.7595   4
   4   3  -1 1342.71 35.5943   3
   4   3  -1 1294.00 35.5793   5
  -4  -3   1 1397.98 35.6796   6
  -4  -3   1 1329.34 35.6150   2
   3   3  -1 15.1442 0.78086   5
   3   3  -1 16.1576 0.86778   4
   3   3  -1 16.5779 0.72522   3
   3   3  -1 15.7869 0.87877   1
  -3  -3   1 14.8225 0.79615   2
   2   3  -1 2448.49 68.0126   1
   2   3  -1 2478.95 68.1428   5
   2   3  -1 2667.92 68.1423   6
   2   3  -1 2669.65 68.0119   3
  -2  -3   1 2481.03 68.3442   4
  -2  -3   1 2635.77 68.7665   2
   1   3  -1 22.4614 0.90821   5
   1   3  -1 23.5957 0.71011   6
   1   3  -1 23.1901 0.96813   1
  -1  -3   1 22.9264 0.94925   2
  -1  -3   1 25.1686 0.70596   3
  -1  -3   1 22.9136 0.95787   4
   0   3  -1 87.0129 2.69323   5
   0   3  -1 90.6565 2.52254   6
   0   3  -1 90.5580 2.76911   1
   0  -3   1 87.2760 2.76500   4
   0  -3   1 98.6340 2.51686   3
   0  -3   1 88.4383 2.72416   2
  -1   3  -1 568.060 15.6833   1
  -1   3  -1 575.236 15.5390   5
   1  -3   1 584.343 15.6930   4
   1  -3   1 575.230 15.5667   2
   1  -3   1 598.184 15.4838   3
  -2   3  -1 2903.52 80.9023   1
  -2   3  -1 3077.96 80.1690   5
  -2   3  -1 2990.27 80.7373   6
   2  -3   1 3109.64 80.8491   3
   2  -3   1 2908.11 80.4861   4
   2  -3   1 3150.65 80.7909   2
  -3   3  -1 628.384 16.7585   6
  -3   3  -1 634.294 16.4861   5
  -3   3  -1 573.604 16.8152   1
   3  -3   1 638.325 16.9107   4
   3  -3   1 624.124 16.5192   2
   3  -3   1 608.974 16.7207   3
  -4   3  -1 66.3796 1.86276   5
  -4   3  -1 60.9057 2.23952   6
  -4   3  -1 58.2329 2.27883   1
   4  -3   1 61.2468 1.88219   2
   4  -3   1 59.7043 2.19257   3
   4  -3   1 58.0736 2.29167   4
  -5   3  -1 406.633 11.3989   6
  -5   3  -1 397.495 11.4484   1
   5  -3   1 398.038 11.4651   4
   5  -3   1 405.910 11.3606   3
  -6   3  -1 8.22237 0.96274   1
  -6   3  -1 9.23363 0.98634   6
   6  -3   1 8.38917 0.99676   4
   6  -3   1 6.47682 0.84638   3
  -7   3  -1 304.986 9.03974   1
  -7   3  -1 290.354 8.92132   6
   7  -3   1 290.443 8.90984   3
   7  -3   1 299.885 9.00104   4
  -8   3  -1 0.60473 0.60625   6
  -8   3  -1 -0.7207 0.58172   1
   8  -3   1 0.57573 0.67165   4
   8  -3   1 -0.4936 0.55674   3
  -9   3  -1 127.783 4.77615   6
  -9   3  -1 118.948 4.73257   1
   9  -3   1 128.263 4.74314   3
   9  -3   1 122.727 4.72163   4
 -10   3  -1 0.20189 0.80759   1
 -10   3  -1 -0.1856 0.84024   6
  10  -3   1 0.40504 0.78423   3
  10  -3   1 -0.3761 0.75496   4
  11   2  -1 74.5649 3.37914   3
  11   2  -1 66.4784 3.38486   4
 -11  -2   1 62.3626 3.33181   1
 -11  -2   1 74.4041 3.42646   6
  10   2  -1 395.741 11.6705   3
  10   2  -1 399.946 11.7590   4
 -10  -2   1 371.093 11.7006   1
 -10  -2   1 377.719 11.6099   6
   9   2  -1 0.78147 0.64483   3
   9   2  -1 0.51901 0.66332   4
  -9  -2   1 0.91591 0.61653   6
  -9  -2   1 0.35331 0.60492   1
   8   2  -1 329.269 9.78538   4
   8   2  -1 330.803 9.71576   3
  -8  -2   1 317.495 9.80596   1
  -8  -2   1 329.811 9.75486   6
   7   2  -1 44.5386 1.97885   3
   7   2  -1 42.8811 2.04942   4
  -7  -2   1 38.4829 1.99700   1
  -7  -2   1 43.5371 2.00175   6
   6   2  -1 106.316 3.81791   4
   6   2  -1 117.747 3.82564   3
   6   2  -1 114.909 3.44018   5
  -6  -2   1 125.271 3.96203   1
  -6  -2   1 118.826 3.85505   6
  -6  -2   1 118.628 3.45856   2
   5   2  -1 776.985 22.2883   5
   5   2  -1 813.610 22.6719   1
   5   2  -1 849.047 22.6792   4
   5   2  -1 847.834 22.5899   3
  -5  -2   1 869.447 22.3447   2
  -5  -2   1 863.542 22.6432   6
   4   2  -1 885.644 23.8481   4
   4   2  -1 879.252 23.8655   1
   4   2  -1 867.375 23.7442   3
  -4  -2   1 890.700 23.6196   2
  -4  -2   1 911.730 23.8083   6
   3   2  -1 107.460 3.24271   1
   3   2  -1 107.451 3.13211   3
   3   2  -1 104.569 3.22649   4
   3   2  -1 99.7168 3.07550   5
  -3  -2   1 107.099 3.10549   2
  -3  -2   1 111.707 3.17724   6
   2   2  -1 58.3880 1.96503   1
   2   2  -1 61.9925 1.97348   4
   2   2  -1 58.6186 1.89967   5
   2   2  -1 61.3955 1.84614   3
  -2  -2   1 64.7533 1.93440   2
   1   2  -1 481.989 13.3358   5
   1   2  -1 496.773 13.3734   1
   1   2  -1 509.141 13.1828   6
   1   2  -1 514.254 13.1953   3
  -1  -2   1 499.021 13.3611   2
  -1  -2   1 492.948 13.3773   4
   0   2  -1 0.09407 0.17478   5
   0   2  -1 0.15831 0.18416   1
   0  -2   1 0.25773 0.18078   2
   0  -2   1 0.32092 0.09128   3
   0  -2   1 0.00216 0.16584   4
  -1   2  -1 3151.16 83.9980   6
  -2   2  -1 -0.1254 0.18752   6
  -2   2  -1 0.47095 0.17273   5
  -2   2  -1 -0.0684 0.20796   1
   2  -2   1 0.39688 0.21955   3
   2  -2   1 0.51655 0.18834   2
   2  -2   1 0.30452 0.26321   4
  -3   2  -1 156.141 4.10253   5
  -3   2  -1 147.129 4.41461   1
  -3   2  -1 145.472 4.36506   6
   3  -2   1 149.330 4.43892   4
   3  -2   1 144.577 4.33296   3
   3  -2   1 147.796 4.11501   2
  -4   2  -1 235.205 6.93252   1
  -4   2  -1 218.494 6.86789   6
  -4   2  -1 255.015 6.48475   5
   4  -2   1 256.059 6.53018   2
   4  -2   1 231.187 6.87147   3
  -5   2  -1 29.4273 1.46368   1
  -5   2  -1 30.1037 1.47071   6
   5  -2   1 29.5792 1.43026   3
   5  -2   1 27.5352 1.41313   4
  -6   2  -1 166.973 5.30575   1
  -6   2  -1 175.330 5.33366   6
   6  -2   1 167.288 5.26411   3
   6  -2   1 154.510 5.23836   4
  -7   2  -1 26.9668 1.70361   6
  -7   2  -1 26.3904 1.65211   1
   7  -2   1 25.5413 1.62295   4
   7  -2   1 24.2873 1.58525   3
  -8   2  -1 170.748 5.80487   1
  -8   2  -1 172.059 5.81849   6
   8  -2   1 174.507 5.81247   4
   8  -2   1 173.679 5.79316   3
  -9   2  -1 2.04796 0.92300   6
  -9   2  -1 2.50513 0.89139   1
   9  -2   1 1.88725 0.81780   3
   9  -2   1 2.56078 0.85626   4
 -10   2  -1 32.1040 2.28564   1
 -10   2  -1 33.5922 2.23147   6
  10  -2   1 35.1651 2.32046   4
  10  -2   1 34.1620 2.25873   3
  11   1  -1 75.9482 3.99102   3
  11   1  -1 84.5524 3.78130   4
 -11  -1   1 80.7365 3.82096   1
 -11  -1   1 78.9915 3.96511   6
  10   1  -1 15.4656 1.62443   4
  10   1  -1 14.9616 1.58188   3
 -10  -1   1 13.1127 1.55187   1
 -10  -1   1 12.5416 1.44506   6
   9   1  -1 68.6676 2.96900   4
   9   1  -1 59.2642 2.78095   3
  -9  -1   1 57.3135 2.83547   1
  -9  -1   1 59.1087 2.79300   6
   8   1  -1 24.4152 1.59728   3
   8   1  -1 22.7687 1.61326   4
  -8  -1   1 21.3149 1.60418   1
  -8  -1   1 23.8078 1.60413   6
   7   1  -1 1140.34 30.9367   3
   7   1  -1 1163.02 31.0053   4
  -7  -1   1 1134.44 31.0236   1
  -7  -1   1 1122.49 30.9641   6
   6   1  -1 1.65822 0.47517   3
   6   1  -1 1.25615 0.52198   4
  -6  -1   1 0.69373 0.48762   1
  -6  -1   1 1.62438 0.50521   6
   5   1  -1 816.925 22.3086   3
   5   1  -1 824.854 21.8892   5
  -5  -1   1 852.128 21.9013   2
  -5  -1   1 816.504 22.3316   6
  -5  -1   1 811.746 22.3761   1
   4   1  -1 29.1592 1.27215   4
   4   1  -1 30.1279 0.98521   5
   4   1  -1 28.8862 1.22842   3
  -4  -1   1 29.9020 0.99375   2
  -4  -1   1 27.3714 1.21930   6
  -4  -1   1 27.0280 1.23907   1
   3   1  -1 525.331 13.7834   1
   3   1  -1 502.195 13.7003   3
   3   1  -1 476.004 13.7351   4
   3   1  -1 508.809 13.5306   5
  -3  -1   1 507.250 13.7314   6
  -3  -1   1 529.467 13.5514   2
   2   1  -1 961.418 26.5820   1
   2   1  -1 1023.48 26.5319   3
   2   1  -1 967.499 26.5812   4
  -2  -1   1 1018.17 26.6120   2
  -2  -1   1 1035.03 26.5503   6
   1   1  -1 53.4596 1.62395   4
   1   1  -1 53.3161 1.57585   5
   1   1  -1 53.5690 1.61938   1
   1   1  -1 55.6429 1.54087   3
  -1  -1   1 54.0523 1.58698   2
  -1  -1   1 54.1447 1.54278   6
   0   1  -1 1018.10 26.9178   1
   0  -1   1 1007.23 26.3847   3
   0  -1   1 999.642 26.4007   6
   0  -1   1 969.429 26.6635   2
  -1   1  -1 1444.70 38.4767   1
  -1   1  -1 1473.49 38.3556   5
   1  -1   1 1424.22 38.1131   3
   1  -1   1 1291.63 37.9180   4
   1  -1   1 1496.26 38.4954   6
   1  -1   1 1476.49 38.4060   2
  -2   1  -1 1156.14 31.7625   1
  -2   1  -1 1230.88 31.9504   5
   2  -1   1 1268.69 32.0380   2
   2  -1   1 1214.90 31.7483   3
   2  -1   1 1117.02 31.7680   4
  -3   1  -1 252.815 7.01726   6
  -3   1  -1 229.368 6.94979   1
  -3   1  -1 246.633 6.69348   5
   3  -1   1 242.988 6.95135   3
   3  -1   1 264.024 6.73367   2
   3  -1   1 258.330 6.99887   4
  -4   1  -1 926.502 24.6193   6
  -4   1  -1 912.645 24.5741   1
  -4   1  -1 913.082 24.1505   5
   4  -1   1 883.648 24.5524   4
   4  -1   1 871.283 24.5295   3
   4  -1   1 975.035 24.1998   2
  -5   1  -1 3.33148 0.25066   5
  -5   1  -1 1.40702 0.44258   1
  -5   1  -1 2.10714 0.49037   6
   5  -1   1 2.22246 0.24055   2
   5  -1   1 2.71491 0.51883   4
   5  -1   1 1.97058 0.44940   3
  -6   1  -1 133.020 4.30821   1
  -6   1  -1 131.470 4.33154   6
   6  -1   1 128.079 4.26973   3
   6  -1   1 130.792 4.26836   4
  -7   1  -1 285.730 8.62675   1
  -7   1  -1 276.179 8.62083   6
   7  -1   1 297.760 8.63672   4
   7  -1   1 292.988 8.63052   3
  -8   1  -1 14.4683 1.43152   1
  -8   1  -1 12.7453 1.27727   6
   8  -1   1 13.3782 1.32908   4
   8  -1   1 13.7295 1.36177   3
  -9   1  -1 69.9076 3.18653   6
  -9   1  -1 73.6062 3.22134   1
   9  -1   1 71.8148 3.18988   3
   9  -1   1 77.1379 3.25963   4
 -10   1  -1 0.42898 0.78224   6
 -10   1  -1 0.20652 0.76474   1
  10  -1   1 2.20212 0.86178   3
  10  -1   1 2.43294 0.94608   4
 -11   1  -1 67.0646 3.36872   1
  11  -1   1 68.5065 3.43932   4
  11   0  -1 69.7454 4.65257   4
 -11   0   1 70.8996 4.51695   1
  10   0  -1 0.65930 0.72912   3
  10   0  -1 -0.0844 0.77288   4
 -10   0   1 0.56626 0.73805   6
 -10   0   1 -0.2972 0.65076   1
   9   0  -1 8.89501 1.16799   3
   9   0  -1 12.4013 1.42191   4
  -9   0   1 11.7532 1.37476   6
  -9   0   1 11.1773 1.36747   1
   8   0  -1 53.4812 2.54101   3
   8   0  -1 58.6060 2.61834   4
  -8   0   1 56.8351 2.59778   6
  -8   0   1 57.0011 2.66623   1
   7   0  -1 23.3079 1.48143   4
   7   0  -1 19.8544 1.37757   3
  -7   0   1 20.8251 1.43902   1
  -7   0   1 18.0552 1.31442   6
   6   0  -1 491.168 13.8098   3
   6   0  -1 491.905 13.8595   4
  -6   0   1 496.374 13.8661   1
  -6   0   1 491.999 13.8487   6
   5   0  -1 1.52471 0.39611   3
   5   0  -1 5.15719 0.61894   4
  -5   0   1 2.67141 0.52904   1
  -5   0   1 3.85602 0.22911   2
  -5   0   1 3.09242 0.23716   5
  -5   0   1 3.15561 0.54173   6
   4   0  -1 0.28565 0.29544   4
   4   0  -1 0.42613 0.29440   3
  -4   0   1 0.46174 0.31626   1
   3   0  -1 635.899 16.4100   4
   3   0  -1 570.891 16.3249   3
   3   0  -1 595.898 16.0266   5
  -3   0   1 610.018 16.0288   2
  -3   0   1 643.983 16.4101   1
  -3   0   1 587.232 16.3523   6
   2   0  -1 80.2452 2.61794   4
   2   0  -1 89.6764 2.40682   5
   2   0  -1 89.8434 2.61976   3
  -2   0   1 84.8400 2.61334   6
  -2   0   1 93.1363 2.41229   2
  -2   0   1 93.4292 2.66257   1
   1   0  -1 0.09287 0.08676   3
   1   0  -1 0.23358 0.05497   5
   1   0  -1 0.28630 0.09360   4
   1   0  -1 0.43820 0.11121   1
  -1   0   1 0.03299 0.07303   6
  -1   0  -1 645.770 16.9197   1
  -1   0  -1 614.752 16.9279   5
   1   0   1 657.378 17.1192   2
  -2   0  -1 19.3991 0.63865   5
  -2   0  -1 17.2079 0.70045   1
   2   0   1 18.0904 0.73064   4
   2   0   1 17.8719 0.77940   6
   2   0   1 18.3780 0.75842   3
   2   0   1 19.8412 0.67872   2
  -3   0  -1 1482.95 36.7856   5
  -3   0  -1 1409.61 36.8340   1
   3   0   1 1423.99 37.0375   2
   3   0   1 1457.89 36.8970   6
   3   0   1 1298.87 36.8158   3
   3   0   1 1259.00 36.7878   4
  -4   0  -1 12.0144 0.76720   1
  -4   0  -1 13.5271 0.56022   5
   4   0   1 12.2935 0.78057   3
   4   0   1 12.6303 0.76400   4
  -5   0  -1 111.412 3.59509   1
  -5   0  -1 109.931 3.64988   6
  -5   0  -1 118.596 3.20702   5
   5   0   1 110.187 3.58892   3
   5   0   1 113.005 3.19431   2
   5   0   1 107.816 3.55591   4
  -6   0  -1 528.349 14.6131   1
  -6   0  -1 524.749 14.6807   6
   6   0   1 519.739 14.5969   3
   6   0   1 522.782 14.5883   4
  -7   0  -1 235.337 7.33568   6
  -7   0  -1 237.551 7.29710   1
   7   0   1 251.974 7.33051   4
   7   0   1 235.255 7.27118   3
  -8   0  -1 744.238 20.8759   6
  -8   0  -1 727.763 20.7632   1
   8   0   1 768.785 20.8392   3
   8   0   1 744.781 20.7875   4
  -9   0  -1 27.6532 1.95928   6
  -9   0  -1 31.3861 1.92172   1
   9   0   1 30.3750 1.91682   4
   9   0   1 31.2972 1.95963   3
 -10   0  -1 25.5734 1.91453   1
 -10   0  -1 25.2579 1.96997   6
  10   0   1 28.2619 1.99479   3
  10   0   1 26.4350 1.94270   4
 -11   0  -1 1.44609 1.52557   6
 -11   0  -1 -0.7070 0.75484   1
  11   0   1 0.65014 1.00190   3
  11   0   1 0.80485 0.88649   4
  10  -1  -1 0.22419 0.79527   4
  10  -1  -1 0.39914 0.69758   3
 -10   1   1 0.77963 0.81303   6
 -10   1   1 0.28554 0.76731   1
   9  -1  -1 4.99077 0.98382   3
   9  -1  -1 6.42492 1.14312   4
  -9   1   1 9.03736 1.23217   6
  -9   1   1 5.05970 1.06547   1
   8  -1  -1 175.813 5.89819   3
   8  -1  -1 179.609 5.93503   4
  -8   1   1 175.310 5.93066   1
  -8   1   1 177.003 5.90003   6
   7  -1  -1 101.819 3.81271   4
   7  -1  -1 105.825 3.81957   3
  -7   1   1 109.411 3.86027   6
  -7   1   1 107.650 3.88546   1
   6  -1  -1 8.17680 0.91307   4
   6  -1  -1 8.40392 0.91362   3
  -6   1   1 10.1121 1.01216   1
  -6   1   1 10.0995 0.94853   6
   5  -1  -1 6.67946 0.72871   3
   5  -1  -1 5.40326 0.67250   4
  -5   1   1 6.20477 0.75109   1
  -5   1   1 4.77731 0.62811   6
   4  -1  -1 37.6439 1.61563   4
   4  -1  -1 41.1305 1.63617   3
  -4   1   1 42.4350 1.64857   6
  -4   1   1 44.3691 1.71685   1
   3  -1  -1 181.150 4.99704   3
   3  -1  -1 166.710 4.99178   4
  -3   1   1 173.157 4.98901   6
  -3   1   1 168.566 5.00421   1
   2  -1  -1 39.9340 1.38233   4
   2  -1  -1 41.3700 1.36796   3
  -2   1   1 38.6766 1.39065   1
   1  -1  -1 119.740 3.21032   4
   1  -1  -1 117.412 3.18211   3
  -1   1   1 109.556 3.17900   6
  -1   1   1 106.817 3.18948   1
  -1   1   1 114.094 3.05885   2
   0  -1  -1 737.008 19.6570   4
   0  -1  -1 692.340 19.5610   3
   0   1   1 757.133 19.5705   2
   0   1   1 725.286 19.4853   1
   0   1   1 738.955 19.5455   5
   1   1   1 66.9465 1.73638   1
   1   1   1 55.9396 1.77864   6
   1   1   1 64.2390 1.81867   2
   2   1   1 47.9318 1.48503   1
   2   1   1 46.0766 1.47792   4
   2   1   1 49.1348 1.55206   6
   2   1   1 48.1384 1.50594   2
   2   1   1 48.0277 1.47563   5
   2   1   1 47.5623 1.51652   3
  -3  -1  -1 10.6347 0.57575   1
   3   1   1 10.3541 0.62482   3
   3   1   1 11.0398 0.65630   6
   3   1   1 11.0822 0.56109   2
   3   1   1 12.1855 0.62042   4
  -4  -1  -1 60.5892 1.81992   5
  -4  -1  -1 57.4272 1.94248   1
   4   1   1 55.2542 1.96303   3
   4   1   1 53.8660 1.92865   4
   4   1   1 59.0270 2.02859   6
   4   1   1 54.9528 1.78678   2
  -5  -1  -1 68.2310 2.36570   1
  -5  -1  -1 68.3949 2.11664   5
   5   1   1 64.5233 2.35066   3
   5   1   1 69.8205 2.36466   4
   5   1   1 65.6048 2.07780   2
   5   1   1 64.7102 2.38355   6
  -6  -1  -1 650.784 17.7823   6
  -6  -1  -1 682.004 17.2701   5
  -6  -1  -1 627.469 17.6329   1
   6   1   1 641.288 17.2184   2
   6   1   1 639.938 17.6683   3
   6   1   1 611.242 17.6293   4
  -7  -1  -1 125.281 4.24989   1
  -7  -1  -1 131.386 4.37964   6
   7   1   1 126.182 4.24841   4
   7   1   1 125.108 4.25532   3
  -8  -1  -1 45.0925 2.22789   6
  -8  -1  -1 43.8619 2.13523   1
   8   1   1 43.0928 2.13542   3
   8   1   1 42.1041 2.11672   4
  -9  -1  -1 73.1858 3.14622   1
  -9  -1  -1 74.5235 3.25086   6
   9   1   1 80.4587 3.20954   4
   9   1   1 74.0544 3.16645   3
 -10  -1  -1 7.02316 1.15401   6
 -10  -1  -1 8.61761 1.24759   1
  10   1   1 9.21401 1.24251   4
  10   1   1 8.28725 1.22123   3
 -11  -1  -1 192.809 7.00026   6
 -11  -1  -1 200.475 6.94668   1
  11   1   1 199.407 6.95584   3
  11   1   1 215.381 7.03849   4
  10  -2  -1 0.46601 0.75846   3
  10  -2  -1 0.23989 0.70017   4
 -10   2   1 0.13616 0.74458   6
 -10   2   1 -1.1233 0.69314   1
   9  -2  -1 57.9610 2.87505   3
   9  -2  -1 56.4761 2.90862   4
  -9   2   1 58.6783 2.88662   6
  -9   2   1 56.1958 2.92878   1
   8  -2  -1 19.1697 1.59166   4
   8  -2  -1 15.8196 1.45540   3
  -8   2   1 16.0113 1.57091   6
  -8   2   1 15.4624 1.51123   1
   7  -2  -1 2.96107 0.77167   4
   7  -2  -1 2.01252 0.62519   3
  -7   2   1 2.21641 0.69878   6
  -7   2   1 2.09454 0.67641   1
   6  -2  -1 0.02171 0.38747   3
   6  -2  -1 0.15548 0.40315   4
  -6   2   1 0.23072 0.49520   1
  -6   2   1 -0.4975 0.34674   6
   5  -2  -1 7.49112 0.84477   4
   5  -2  -1 7.86309 0.82111   3
  -5   2   1 8.46765 0.83331   6
  -5   2   1 8.51621 0.82484   1
   4  -2  -1 4.74560 0.58769   4
   4  -2  -1 3.54143 0.52186   3
  -4   2   1 4.21459 0.56663   1
  -4   2   1 4.30619 0.58080   6
   3  -2  -1 7.30666 0.62294   3
   3  -2  -1 7.43619 0.62977   4
  -3   2   1 8.06686 0.64618   6
  -3   2   1 8.34490 0.69350   1
   2  -2  -1 15.1266 0.81338   4
   2  -2  -1 16.5876 0.78521   3
   2  -2  -1 18.1211 0.59300   2
  -2   2   1 15.9147 0.80739   1
  -2   2   1 17.8280 0.81032   6
  -2   2   1 17.1285 0.57414   5
   1  -2  -1 6030.35 166.677   4
   1  -2  -1 6532.23 166.421   3
  -1   2   1 5987.67 165.581   5
  -1   2   1 6492.53 166.529   1
  -1   2   1 6325.61 166.268   6
   0  -2  -1 0.44300 0.15899   4
   0  -2  -1 0.32325 0.14454   3
   0   2   1 0.96208 0.20067   6
   0   2   1 0.56647 0.17205   2
   0   2   1 0.61360 0.15427   5
   0   2   1 0.48668 0.16256   1
  -1  -2  -1 68.7567 2.00128   3
  -1  -2  -1 71.7758 2.01339   4
   1   2   1 72.4329 2.01486   1
   1   2   1 72.1942 2.10483   2
   1   2   1 60.7880 2.00312   6
   1   2   1 72.2600 2.06647   5
   2   2   1 -0.2811 0.14471   2
   2   2   1 -0.0871 0.16045   5
   2   2   1 0.17704 0.16917   3
   2   2   1 -0.2777 0.12428   4
   2   2   1 0.10322 0.15934   6
   2   2   1 0.12575 0.15391   1
   3   2   1 68.3178 2.07396   4
   3   2   1 65.7765 2.08581   3
   3   2   1 68.8595 2.09406   1
   3   2   1 64.3041 2.08385   2
   3   2   1 68.9450 2.06425   5
   3   2   1 63.5619 2.11167   6
   4   2   1 0.55116 0.30486   6
   4   2   1 1.34617 0.27740   5
   4   2   1 0.11856 0.26752   1
   4   2   1 0.39320 0.24177   2
   4   2   1 0.34976 0.26281   4
   4   2   1 1.08498 0.32525   3
  -5  -2  -1 363.116 9.92434   1
   5   2   1 358.054 9.96885   6
   5   2   1 362.487 9.74172   2
   5   2   1 335.061 9.86993   4
   5   2   1 350.817 9.89829   3
  -6  -2  -1 132.256 4.30856   1
  -6  -2  -1 141.454 4.09909   5
   6   2   1 136.959 4.32928   3
   6   2   1 137.852 4.05599   2
   6   2   1 134.458 4.31043   4
  -7  -2  -1 715.706 19.8668   6
  -7  -2  -1 702.398 19.7646   1
   7   2   1 732.082 19.7817   4
   7   2   1 718.058 19.7553   3
  -8  -2  -1 -0.2024 0.52333   6
  -8  -2  -1 -0.3924 0.40830   1
   8   2   1 0.56913 0.48610   4
   8   2   1 0.00965 0.46759   3
  -9  -2  -1 8.17164 1.09020   1
  -9  -2  -1 7.27234 1.09945   6
   9   2   1 8.39798 1.12485   4
   9   2   1 7.59465 1.05123   3
 -10  -2  -1 16.6674 1.51699   1
 -10  -2  -1 16.4623 1.64436   6
  10   2   1 15.1743 1.56831   3
  10   2   1 15.9092 1.49263   4
 -11  -2  -1 9.37647 1.35466   1
 -11  -2  -1 8.91409 1.37860   6
  11   2   1 6.31731 1.18223   3
  11   2   1 6.03415 1.16539   4
  10  -3  -1 15.8276 1.79232   4
  10  -3  -1 8.08963 1.35212   3
 -10   3   1 14.2033 1.74657   1
 -10   3   1 12.4264 1.64462   6
   9  -3  -1 3.24481 0.99691   3
   9  -3  -1 2.63309 0.85938   4
  -9   3   1 4.19490 1.09374   6
  -9   3   1 5.41403 1.17799   1
   8  -3  -1 110.603 4.28675   4
   8  -3  -1 108.086 4.19386   3
  -8   3   1 114.497 4.23241   6
  -8   3   1 109.289 4.27084   1
   7  -3  -1 6.26839 0.99445   3
   7  -3  -1 6.96298 1.02855   4
  -7   3   1 4.82392 0.90784   6
  -7   3   1 5.15263 0.90040   1
   6  -3  -1 21.2114 1.43621   4
   6  -3  -1 19.7421 1.36197   3
  -6   3   1 22.9750 1.49616   1
  -6   3   1 19.3953 1.33016   6
   5  -3  -1 21.0404 1.29382   3
   5  -3  -1 23.5334 1.39403   4
  -5   3   1 26.1068 1.40963   1
  -5   3   1 22.0767 1.28063   6
   4  -3  -1 43.3642 1.78004   3
   4  -3  -1 39.4914 1.78714   4
  -4   3   1 46.2778 1.79554   6
  -4   3   1 43.8171 1.85208   1
   3  -3  -1 20.3577 0.69711   2
   3  -3  -1 19.1425 1.06156   4
   3  -3  -1 18.1248 0.95651   3
  -3   3   1 17.0062 0.95402   6
  -3   3   1 18.4989 1.05355   1
  -3   3   1 17.7067 0.64125   5
   2  -3  -1 56.6427 1.92917   3
   2  -3  -1 59.9667 1.77244   2
   2  -3  -1 57.9594 2.04373   4
  -2   3   1 56.9777 1.94423   6
  -2   3   1 60.9938 2.04586   1
  -2   3   1 56.8727 1.73446   5
   1  -3  -1 572.403 14.6822   3
   1  -3  -1 503.578 14.7510   4
  -1   3   1 540.996 14.6919   6
  -1   3   1 553.566 14.6084   5
  -1   3   1 571.298 14.6652   2
  -1   3   1 533.698 14.7607   1
   0  -3  -1 0.63311 0.17207   3
   0  -3  -1 -0.2011 0.13720   4
   0   3   1 0.23271 0.18194   1
   0   3   1 -0.0540 0.16634   2
   0   3   1 -0.2433 0.11682   5
  -1  -3  -1 8.25400 0.41390   3
  -1  -3  -1 8.82784 0.47452   4
   1   3   1 9.58394 0.49853   1
   1   3   1 7.95209 0.52680   2
  -2  -3  -1 82.7024 2.38585   4
  -2  -3  -1 84.4347 2.34312   3
   2   3   1 68.1189 2.32520   6
   2   3   1 86.5736 2.40745   1
   2   3   1 74.2995 2.45736   2
   2   3   1 78.9226 2.42609   5
   3   3   1 30.1683 1.23045   2
   3   3   1 29.7940 1.15782   1
   3   3   1 31.0947 1.16518   6
   3   3   1 29.0694 1.15753   5
   3   3   1 31.1741 1.13441   3
   3   3   1 30.8739 1.15836   4
   4   3   1 51.4013 1.77183   4
   4   3   1 49.3263 1.78201   1
   4   3   1 48.9228 1.78845   2
   4   3   1 49.8094 1.74543   5
   4   3   1 50.7656 1.80817   6
   4   3   1 51.4919 1.75544   3
   5   3   1 6.39914 0.65802   1
   5   3   1 5.16081 0.57433   3
   5   3   1 4.68042 0.53224   2
   5   3   1 4.37418 0.57595   6
   5   3   1 5.59058 0.59841   4
   5   3   1 4.53600 0.50884   5
  -6  -3  -1 11.1203 0.85538   1
   6   3   1 12.6813 0.90740   4
   6   3   1 12.6382 0.82919   2
   6   3   1 11.3486 0.92212   6
   6   3   1 11.1257 0.74963   5
   6   3   1 10.9051 0.87662   3
  -7  -3  -1 5.31569 0.61279   5
  -7  -3  -1 3.38240 0.68713   6
  -7  -3  -1 3.03714 0.62293   1
   7   3   1 4.30344 0.68183   4
   7   3   1 3.70381 0.55991   2
   7   3   1 3.32833 0.65146   3
  -8  -3  -1 13.9899 1.20739   1
  -8  -3  -1 12.6770 1.24731   6
   8   3   1 15.0253 1.23760   3
   8   3   1 13.4122 1.16304   4
  -9  -3  -1 4.11597 0.89044   6
  -9  -3  -1 4.13542 0.83605   1
   9   3   1 4.04692 0.84891   3
   9   3   1 3.90109 0.81834   4
 -10  -3  -1 77.5108 3.39664   6
 -10  -3  -1 72.8162 3.23980   1
  10   3   1 78.2267 3.32419   3
  10   3   1 78.2504 3.31534   4
 -11  -3  -1 90.8988 3.94910   6
 -11  -3  -1 86.8107 3.82142   1
  11   3   1 95.8845 3.95355   3
  11   3   1 93.6864 3.90470   4
   9  -4  -1 79.9506 3.63890   3
   9  -4  -1 84.3166 3.75201   4
  -9   4   1 80.2942 3.77219   1
  -9   4   1 79.5132 3.63105   6
   8  -4  -1 6.14360 1.10027   3
   8  -4  -1 6.79074 1.16909   4
  -8   4   1 6.21462 1.11405   6
  -8   4   1 5.88842 1.17280   1
   7  -4  -1 57.1505 2.66140   4
   7  -4  -1 52.7540 2.53488   3
  -7   4   1 52.2231 2.54041   6
  -7   4   1 56.2876 2.69280   1
   6  -4  -1 21.0791 1.46150   3
   6  -4  -1 21.4366 1.54184   4
  -6   4   1 21.0001 1.53775   1
  -6   4   1 19.9141 1.43212   6
   5  -4  -1 75.7768 2.94209   4
   5  -4  -1 75.8431 2.82345   3
  -5   4   1 71.8512 2.90109   1
  -5   4   1 74.7592 2.81354   6
   4  -4  -1 238.958 7.10890   4
   4  -4  -1 231.556 6.94101   3
  -4   4   1 236.938 7.08714   1
  -4   4   1 238.075 6.95513   6
   3  -4  -1 2.08537 0.41692   3
   3  -4  -1 2.31609 0.29896   2
   3  -4  -1 1.43358 0.44879   4
  -3   4   1 2.06876 0.43805   6
  -3   4   1 2.00567 0.49842   1
  -3   4   1 2.16004 0.26300   5
   2  -4  -1 289.625 8.20121   3
   2  -4  -1 302.381 8.40152   4
   2  -4  -1 299.776 8.06902   2
  -2   4   1 300.651 8.24061   6
  -2   4   1 287.578 8.02812   5
  -2   4   1 288.233 8.34651   1
   1  -4  -1 16.7626 0.77209   3
   1  -4  -1 16.8976 0.90090   4
  -1   4   1 15.9716 0.81777   6
  -1   4   1 17.4990 0.90940   1
  -1   4   1 16.0435 0.74997   5
   0  -4  -1 -0.4217 0.16749   3
   0  -4  -1 -0.4755 0.22424   4
   0   4   1 -0.4349 0.23559   1
   0   4   1 -0.7634 0.15279   6
   0   4   1 -0.5685 0.17184   5
   0   4   1 -0.6727 0.19646   2
  -1  -4  -1 0.98418 0.26551   4
  -1  -4  -1 1.14318 0.21383   3
   1   4   1 0.98835 0.29263   2
   1   4   1 1.68182 0.30116   1
   1   4   1 1.02036 0.25594   5
  -2  -4  -1 4.99735 0.42823   4
  -2  -4  -1 3.91259 0.32308   3
   2   4   1 3.55482 0.42280   5
   2   4   1 3.51555 0.45024   2
   2   4   1 4.83819 0.46980   1
  -3  -4  -1 328.418 8.86842   4
  -3  -4  -1 345.145 8.78278   3
   3   4   1 318.784 8.98244   2
   3   4   1 285.999 8.76113   6
   3   4   1 322.863 8.87410   1
   3   4   1 320.948 8.90734   5
   4   4   1 12.2296 0.75943   6
   4   4   1 11.9951 0.84526   2
   4   4   1 13.4504 0.74409   3
   4   4   1 14.0673 0.82517   5
   4   4   1 12.2160 0.76881   1
   4   4   1 12.3846 0.75834   4
   5   4   1 98.6641 3.12025   5
   5   4   1 96.9499 3.17651   1
   5   4   1 94.4639 3.07164   3
   5   4   1 97.1426 3.16728   6
   5   4   1 98.8936 3.13540   4
   5   4   1 94.9163 3.17576   2
   6   4   1 51.9577 1.98569   3
   6   4   1 49.8015 1.92387   5
   6   4   1 49.1977 1.99828   4
   6   4   1 52.7798 1.99109   2
   6   4   1 52.2865 2.05986   6
   6   4   1 48.8250 2.02608   1
  -7  -4  -1 130.498 4.28446   1
   7   4   1 127.257 4.18233   3
   7   4   1 125.384 3.99948   5
   7   4   1 130.465 4.10482   2
   7   4   1 129.533 4.24001   4
  -8  -4  -1 3.86699 0.74949   1
  -8  -4  -1 1.54509 0.61627   6
   8   4   1 1.38115 0.59321   3
   8   4   1 2.62060 0.64356   4
  -9  -4  -1 16.0713 1.44024   6
  -9  -4  -1 18.8376 1.47052   1
   9   4   1 16.6284 1.44083   3
   9   4   1 21.0294 1.49404   4
 -10  -4  -1 4.70120 0.96302   1
 -10  -4  -1 3.70370 0.96221   6
  10   4   1 3.20910 0.89915   3
  10   4   1 4.20113 0.98874   4
 -11  -4  -1 9.04296 1.31467   6
  11   4   1 6.80095 1.18929   3
   9  -5  -1 3.39381 1.09537   4
   9  -5  -1 2.19367 0.94129   3
  -9   5   1 2.99101 1.07331   1
  -9   5   1 2.22943 1.03971   6
   8  -5  -1 51.0670 2.80164   4
   8  -5  -1 49.9931 2.62930   3
  -8   5   1 46.9781 2.59363   6
  -8   5   1 46.7821 2.71424   1
   7  -5  -1 15.6581 1.56131   4
   7  -5  -1 11.3402 1.26715   3
  -7   5   1 12.3018 1.31718   6
  -7   5   1 10.8883 1.35348   1
   6  -5  -1 19.5404 1.56882   4
   6  -5  -1 16.9345 1.37234   3
  -6   5   1 19.3157 1.57276   1
  -6   5   1 19.1889 1.43046   6
   5  -5  -1 20.5272 1.43572   4
   5  -5  -1 21.1144 1.36677   3
  -5   5   1 19.8238 1.47825   1
  -5   5   1 18.9585 1.34365   6
   4  -5  -1 162.843 5.40232   4
   4  -5  -1 160.785 5.19832   3
  -4   5   1 176.489 5.27064   6
  -4   5   1 174.629 5.43774   1
   3  -5  -1 12.0612 0.69497   2
   3  -5  -1 12.5899 0.85383   3
   3  -5  -1 11.6101 1.00715   4
  -3   5   1 12.3313 0.99142   1
  -3   5   1 10.4903 0.61789   5
  -3   5   1 11.6128 0.88924   6
   2  -5  -1 0.98371 0.31093   3
   2  -5  -1 0.76868 0.28765   2
   2  -5  -1 0.69593 0.35896   4
  -2   5   1 1.34227 0.37012   6
  -2   5   1 0.34426 0.23433   5
  -2   5   1 0.86125 0.37436   1
   1  -5  -1 144.721 4.46245   4
   1  -5  -1 149.277 4.24186   3
   1  -5  -1 146.695 4.29265   2
  -1   5   1 139.047 4.44596   1
  -1   5   1 149.208 4.26700   5
  -1   5   1 143.942 4.28822   6
   0  -5  -1 11.9194 0.61059   3
   0  -5  -1 10.7540 0.74591   4
   0   5   1 11.4081 0.69936   5
   0   5   1 12.9697 0.80584   1
   0   5   1 10.7199 0.75261   2
  -1  -5  -1 1462.68 38.4437   4
  -1  -5  -1 1487.63 38.2174   3
   1   5   1 1430.23 38.4168   5
   1   5   1 1469.78 38.5216   2
   1   5   1 1470.29 38.4506   1
   1   5   1 1340.78 38.2318   6
  -2  -5  -1 33.9590 1.21381   3
  -2  -5  -1 34.8495 1.39058   4
   2   5   1 33.4973 1.23651   6
   2   5   1 35.3156 1.43045   5
   2   5   1 34.4185 1.37874   1
  -3  -5  -1 1.38637 0.33231   4
  -3  -5  -1 2.79628 0.32540   3
   3   5   1 1.39431 0.34306   1
   3   5   1 1.10011 0.39600   2
   3   5   1 0.45372 0.31423   5
  -4  -5  -1 52.7364 1.88841   4
  -4  -5  -1 53.5438 1.77166   3
   4   5   1 48.3026 1.88559   1
   4   5   1 51.6914 2.01715   2
   4   5   1 45.5812 1.78061   6
   4   5   1 52.2518 1.95314   5
  -5  -5  -1 1.16871 0.42191   4
   5   5   1 3.27133 0.56915   2
   5   5   1 1.85957 0.44599   1
   5   5   1 2.24319 0.45155   6
   5   5   1 2.31564 0.45992   5
   6   5   1 2.69054 0.52212   6
   6   5   1 1.94168 0.50447   1
   6   5   1 2.43942 0.49140   5
   6   5   1 1.97401 0.46741   4
   6   5   1 1.76671 0.52346   2
   6   5   1 1.97113 0.46611   3
   7   5   1 55.2921 2.28362   4
   7   5   1 55.9313 2.21577   3
   7   5   1 56.2643 2.36602   1
   7   5   1 58.6908 2.32532   2
   7   5   1 54.5815 2.30419   6
   7   5   1 57.5809 2.23785   5
  -8  -5  -1 17.6537 1.32823   1
  -8  -5  -1 16.2426 1.21851   6
   8   5   1 18.8580 1.30436   3
   8   5   1 18.2547 1.31895   4
  -9  -5  -1 2.07979 0.69447   6
  -9  -5  -1 2.62373 0.73963   1
   9   5   1 4.03274 0.82401   4
   9   5   1 2.03935 0.70707   3
 -10  -5  -1 3.46690 0.90665   6
 -10  -5  -1 2.87257 0.85976   1
  10   5   1 3.27784 0.83749   4
  10   5   1 2.37023 0.81055   3
  11   5   1 -0.0963 0.78592   3
   8  -6  -1 3.29164 1.10897   4
   8  -6  -1 4.49389 1.04256   3
  -8   6   1 2.58375 0.91906   6
  -8   6   1 2.14065 0.93305   1
   7  -6  -1 160.155 5.87516   4
   7  -6  -1 169.323 5.71924   3
  -7   6   1 166.742 5.93411   1
  -7   6   1 166.587 5.69145   6
   6  -6  -1 3.97543 0.93120   4
   6  -6  -1 3.15880 0.75149   3
  -6   6   1 2.63611 0.75360   6
  -6   6   1 4.19302 0.95544   1
   5  -6  -1 217.783 7.01365   4
   5  -6  -1 220.365 6.76359   3
  -5   6   1 220.046 6.75145   6
  -5   6   1 213.000 6.94486   1
   4  -6  -1 7.72208 0.95230   4
   4  -6  -1 9.60746 0.92425   3
  -4   6   1 8.44779 1.04399   1
  -4   6   1 8.89742 0.95460   6
   3  -6  -1 83.9855 2.73673   2
   3  -6  -1 84.3326 3.18370   4
   3  -6  -1 81.7737 2.90348   3
  -3   6   1 86.5473 2.96239   6
  -3   6   1 87.2156 2.69014   5
  -3   6   1 83.1190 3.13814   1
   2  -6  -1 296.860 8.15305   2
   2  -6  -1 278.419 8.44561   4
   2  -6  -1 294.611 8.18946   3
  -2   6   1 287.425 8.46493   1
  -2   6   1 287.965 8.23017   6
  -2   6   1 286.807 8.08969   5
   1  -6  -1 9.56721 0.73350   2
   1  -6  -1 10.0793 0.66247   3
   1  -6  -1 9.12184 0.84229   4
  -1   6   1 9.25055 0.69060   5
  -1   6   1 10.0242 0.73488   6
  -1   6   1 9.95404 0.85717   1
   0  -6  -1 381.709 10.3903   3
   0  -6  -1 381.924 10.6490   2
   0  -6  -1 380.641 10.7292   4
   0   6   1 376.834 10.7253   1
   0   6   1 386.615 10.6188   5
  -1  -6  -1 17.4906 0.78872   3
  -1  -6  -1 17.7298 1.02673   4
   1   6   1 17.4606 0.84600   6
   1   6   1 16.7841 1.03661   2
   1   6   1 17.0702 0.99719   5
   1   6   1 18.1460 1.03292   1
  -2  -6  -1 423.653 11.7390   4
  -2  -6  -1 427.975 11.4501   3
   2   6   1 427.604 11.4820   6
   2   6   1 406.297 11.7357   5
   2   6   1 418.694 11.7270   1
   2   6   1 427.205 11.8675   2
  -3  -6  -1 80.0793 2.42865   3
  -3  -6  -1 76.2764 2.65341   4
   3   6   1 73.8106 2.67054   5
   3   6   1 75.2388 2.66742   1
   3   6   1 79.3534 2.46172   6
   3   6   1 75.5313 2.78725   2
  -4  -6  -1 669.804 18.3487   4
  -4  -6  -1 688.698 18.1153   3
   4   6   1 655.281 18.3955   5
   4   6   1 674.220 18.3661   1
   4   6   1 670.609 18.5196   2
  -5  -6  -1 0.77806 0.31528   3
  -5  -6  -1 0.69436 0.36858   4
   5   6   1 0.25087 0.37040   1
   5   6   1 0.22545 0.40328   5
   5   6   1 0.17974 0.29073   6
   5   6   1 0.40729 0.42982   2
  -6  -6  -1 173.722 5.30521   3
  -6  -6  -1 183.222 5.52162   4
   6   6   1 177.246 5.41423   6
   6   6   1 170.824 5.48846   5
   6   6   1 178.556 5.61407   2
   6   6   1 183.201 5.59450   1
  -7  -6  -1 131.994 4.40309   4
   7   6   1 135.992 4.50000   1
   7   6   1 138.221 4.37629   6
   7   6   1 122.972 4.31848   5
  -8  -6  -1 19.9417 1.34139   6
  -8  -6  -1 17.0128 1.20023   2
   8   6   1 18.6677 1.39270   1
   8   6   1 19.6549 1.28628   5
   8   6   1 18.6755 1.29575   3
  -9  -6  -1 162.066 5.51844   1
   8  -7  -1 108.791 5.38585   4
   8  -7  -1 100.974 4.20280   3
  -8   7   1 100.730 4.18830   6
  -8   7   1 99.7195 5.03136   1
   7  -7  -1 0.11542 0.65202   3
   7  -7  -1 0.07224 0.72053   4
  -7   7   1 -0.6075 0.62470   6
  -7   7   1 0.46005 0.85371   1
   6  -7  -1 116.895 4.63792   4
   6  -7  -1 116.296 4.31904   3
  -6   7   1 121.144 4.41126   6
  -6   7   1 124.299 4.66647   1
   5  -7  -1 3.03798 0.86974   4
   5  -7  -1 4.39688 0.80977   3
  -5   7   1 5.57109 1.03704   1
  -5   7   1 4.10890 0.82289   6
   4  -7  -1 27.9804 1.53693   3
   4  -7  -1 28.6147 1.82764   4
  -4   7   1 28.0054 1.57473   6
  -4   7   1 26.1237 1.78452   1
   3  -7  -1 47.0279 1.94981   3
   3  -7  -1 50.8610 2.11211   2
   3  -7  -1 40.4357 2.11955   4
  -3   7   1 43.8452 1.98348   6
  -3   7   1 47.8750 2.25690   1
   2  -7  -1 280.308 7.89414   3
   2  -7  -1 276.569 7.90506   2
   2  -7  -1 270.217 8.24618   4
  -2   7   1 273.445 8.25358   1
  -2   7   1 279.714 7.87137   5
  -2   7   1 272.120 7.95188   6
   1  -7  -1 14.1207 1.07047   4
   1  -7  -1 13.8512 0.83619   3
   1  -7  -1 13.2283 0.95973   2
  -1   7   1 13.9683 0.93577   5
  -1   7   1 13.0272 1.08169   1
   0  -7  -1 490.227 13.6187   2
   0  -7  -1 504.575 13.7360   4
   0  -7  -1 502.550 13.2985   3
   0   7   1 491.439 13.5720   5
   0   7   1 472.422 13.3661   6
   0   7   1 476.172 13.6874   1
  -1  -7  -1 214.085 5.91004   3
  -1  -7  -1 212.045 6.32500   2
  -1  -7  -1 209.235 6.31912   4
   1   7   1 201.035 6.24138   5
   1   7   1 209.779 6.32214   1
   1   7   1 215.948 6.00587   6
  -2  -7  -1 3.20989 0.57584   4
  -2  -7  -1 4.39494 0.44176   3
   2   7   1 3.71741 0.59579   1
   2   7   1 4.54855 0.46349   6
   2   7   1 4.00194 0.62051   5
  -3  -7  -1 1040.76 27.4644   4
  -3  -7  -1 1047.04 27.1377   3
   3   7   1 944.697 27.4246   5
   3   7   1 1025.13 27.1234   6
   3   7   1 1014.11 27.4385   1
  -4  -7  -1 18.9360 1.18110   4
   4   7   1 18.9655 1.25550   5
   4   7   1 19.1027 1.18198   1
  -5  -7  -1 7.62818 0.86562   4
   5   7   1 7.67931 0.87811   5
   5   7   1 7.73503 0.86484   1
  -6  -7  -1 27.0921 1.53316   4
  -6  -7  -1 27.0962 1.60238   2
   6   7   1 29.1251 1.58548   1
   6   7   1 28.5152 1.60005   5
  -7  -7  -1 0.71134 0.52745   4
  -7  -7  -1 0.45257 0.50694   2
   7   7   1 0.33694 0.49988   5
   7   7   1 0.13769 0.45609   1
  -8  -7  -1 102.455 3.68050   4
  -8  -7  -1 99.9298 3.65573   2
   8   7   1 92.9563 3.56772   5
   8   7   1 94.5114 3.66531   1
   7  -8  -1 17.6336 1.70422   3
   7  -8  -1 18.2779 1.85270   4
  -7   8   1 16.8157 1.92960   1
  -7   8   1 20.0511 1.82598   6
   6  -8  -1 0.80904 0.88223   4
   6  -8  -1 1.02897 0.65874   3
  -6   8   1 1.36369 0.77225   6
  -6   8   1 1.53572 0.90739   1
   5  -8  -1 85.8580 3.32621   3
   5  -8  -1 86.1976 3.71073   4
  -5   8   1 82.4465 3.34153   6
  -5   8   1 83.5207 3.65951   1
   4  -8  -1 2.90432 0.67499   3
   4  -8  -1 3.60450 0.91840   4
  -4   8   1 2.21788 0.82168   1
  -4   8   1 2.89912 0.71706   6
   3  -8  -1 241.901 7.88647   4
   3  -8  -1 259.606 7.49688   3
  -3   8   1 248.794 7.90675   1
  -3   8   1 257.856 7.57352   6
   2  -8  -1 30.4463 1.83446   4
   2  -8  -1 33.6310 1.61810   2
   2  -8  -1 34.7873 1.57768   3
  -2   8   1 33.9685 1.91177   1
  -2   8   1 33.3252 1.61484   6
  -2   8   1 35.1371 1.59302   5
   1  -8  -1 111.929 4.00076   4
   1  -8  -1 109.519 3.75435   2
  -1   8   1 113.491 3.98010   1
  -1   8   1 114.354 3.74479   5
   0  -8  -1 525.980 14.8312   4
   0  -8  -1 523.634 14.7090   2
   0   8   1 529.808 14.6757   5
   0   8   1 525.676 14.8221   1
  -1  -8  -1 44.4512 2.04444   4
  -1  -8  -1 44.9645 2.03187   2
   1   8   1 45.5277 2.03213   1
   1   8   1 44.7916 1.98886   5
  -2  -8  -1 307.835 8.94976   2
  -2  -8  -1 303.606 8.88363   4
   2   8   1 303.786 8.87233   1
   2   8   1 295.684 8.86285   5
  -3  -8  -1 91.3823 3.40753   2
  -3  -8  -1 95.6611 3.35547   4
   3   8   1 93.5974 3.33761   1
   3   8   1 88.9700 3.31204   5
  -4  -8  -1 -0.4023 0.39052   2
  -4  -8  -1 0.34836 0.44130   4
   4   8   1 0.39617 0.43663   1
   4   8   1 -0.3859 0.44379   5
  -5  -8  -1 63.7075 2.77514   2
  -5  -8  -1 70.4450 2.70711   4
   5   8   1 65.4434 2.69773   1
   5   8   1 68.5967 2.79142   5
  -6  -8  -1 570.449 15.9579   4
  -6  -8  -1 560.157 16.0891   2
   6   8   1 568.879 16.0799   5
   6   8   1 570.877 16.0328   1
  -7  -8  -1 14.6214 1.34462   2
  -7  -8  -1 13.1543 1.26948   4
   7   8   1 15.1904 1.34113   5
   7   8   1 15.2035 1.34367   1
  -8  -8  -1 138.028 4.82541   2
   8   8   1 140.549 5.05684   1
   8   8   1 130.760 4.76151   5
   6  -9  -1 118.422 4.79764   4
  -6   9   1 107.413 4.71220   1
   5  -9  -1 6.67857 1.25181   4
  -5   9   1 7.79331 1.30642   1
   4  -9  -1 66.1012 3.19862   4
  -4   9   1 68.3823 3.22358   1
   3  -9  -1 7.27099 1.18964   4
  -3   9   1 4.57833 0.99382   1
   2  -9  -1 26.6785 1.83937   4
   2  -9  -1 26.3278 1.50038   2
  -2   9   1 25.8059 1.47498   5
  -2   9   1 24.6622 1.73194   1
   1  -9  -1 67.7715 2.91250   4
   1  -9  -1 64.7991 2.64655   2
  -1   9   1 67.9425 2.64567   5
  -1   9   1 67.3945 2.86789   1
   0  -9  -1 223.324 6.96351   2
   0  -9  -1 230.491 7.11949   4
   0   9   1 229.791 6.92419   5
   0   9   1 222.328 7.06194   1
  -1  -9  -1 25.5552 1.62060   4
  -1  -9  -1 24.8513 1.56394   2
   1   9   1 23.2889 1.53120   1
   1   9   1 24.6747 1.52719   5
  -2  -9  -1 325.626 9.63420   4
  -2  -9  -1 336.659 9.72532   2
   2   9   1 318.948 9.59183   1
   2   9   1 320.922 9.59972   5
  -3  -9  -1 293.172 8.62578   4
  -3  -9  -1 291.998 8.76253   2
   3   9   1 280.377 8.58600   1
   3   9   1 283.113 8.64420   5
  -4  -9  -1 2.99971 0.73324   4
  -4  -9  -1 3.18763 0.81218   2
   4   9   1 3.95157 0.74241   1
   4   9   1 2.16662 0.67762   5
  -5  -9  -1 317.340 9.51984   2
  -5  -9  -1 313.499 9.31058   4
   5   9   1 298.329 9.39171   5
   5   9   1 319.388 9.37295   1
  -6  -9  -1 6.34010 1.05710   2
  -6  -9  -1 4.79611 0.87295   4
   6   9   1 4.80897 0.88670   5
   6   9   1 5.57588 0.95745   1
  -7  -9  -1 163.979 6.00211   4
  -7  -9  -1 158.031 5.59863   2
   7   9   1 168.238 5.70638   1
   7   9   1 163.391 5.62478   5
  -8  -9  -1 68.5529 3.06873   2
   8   9   1 66.7557 3.07936   5
   5 -10  -1 1.00798 0.98073   4
  -5  10   1 -0.0254 0.91589   1
   4 -10  -1 3.32478 1.05308   4
  -4  10   1 0.33468 0.85177   1
   3 -10  -1 13.7007 1.58214   4
  -3  10   1 11.7316 1.42017   1
   2 -10  -1 4.18322 1.03418   4
  -2  10   1 4.85209 1.03398   1
   1 -10  -1 310.319 9.61456   4
   1 -10  -1 304.054 9.28977   2
  -1  10   1 327.619 9.32150   5
  -1  10   1 307.480 9.55701   1
   0 -10  -1 28.3040 1.86284   4
   0 -10  -1 25.4185 1.65790   2
   0  10   1 27.5600 1.67950   5
   0  10   1 23.4073 1.69502   1
  -1 -10  -1 0.37132 0.63988   4
  -1 -10  -1 0.39301 0.64014   2
   1  10   1 0.30632 0.62097   5
   1  10   1 -0.5037 0.52012   1
  -2 -10  -1 112.215 4.16991   4
  -2 -10  -1 110.140 4.17875   2
   2  10   1 116.579 4.19217   5
   2  10   1 115.965 4.13904   1
  -3 -10  -1 1.17294 0.69927   2
  -3 -10  -1 0.18412 0.59784   4
   3  10   1 -0.2011 0.52539   1
   3  10   1 0.41634 0.54696   5
  -4 -10  -1 195.227 6.66526   2
  -4 -10  -1 211.667 6.56524   4
   4  10   1 200.197 6.52855   1
   4  10   1 204.153 6.65455   5
  -5 -10  -1 87.1827 3.72424   2
  -5 -10  -1 96.3638 3.62625   4
   5  10   1 92.1356 3.69073   5
   5  10   1 90.8315 3.58762   1
  -6 -10  -1 3.50807 0.91128   2
  -6 -10  -1 2.76299 1.11089   4
   6  10   1 4.57945 0.97960   5
   6  10   1 2.99978 0.90621   1
  -7 -10  -1 6.24405 1.12812   2
   7  10   1 6.29607 1.13404   5
  -8 -10  -1 110.176 4.47613   2
   8  10   1 116.291 4.49779   5
   3 -11  -1 10.0784 1.56332   4
  -3  11   1 10.2147 1.46374   1
   2 -11  -1 93.4977 4.03690   4
  -2  11   1 93.3859 3.97514   1
   1 -11  -1 1.67629 0.90957   4
   1 -11  -1 1.27263 0.67628   2
  -1  11   1 0.40626 0.65844   5
  -1  11   1 1.63380 0.81866   1
   0 -11  -1 1.82590 0.93017   4
   0 -11  -1 3.85035 0.88116   2
   0  11   1 1.90063 0.82265   1
   0  11   1 3.76377 0.85987   5
  -1 -11  -1 90.9338 3.74564   2
  -1 -11  -1 97.5035 3.86229   4
   1  11   1 89.4679 3.69898   1
   1  11   1 95.8850 3.75608   5
  -2 -11  -1 128.686 4.60671   4
  -2 -11  -1 120.546 4.59948   2
   2  11   1 120.300 4.48889   1
   2  11   1 122.902 4.52850   5
  -3 -11  -1 1.60869 0.79675   4
  -3 -11  -1 0.62788 0.72307   2
   3  11   1 1.90837 0.80880   5
   3  11   1 1.25200 0.70532   1
  -4 -11  -1 30.5515 2.13003   2
  -4 -11  -1 29.6825 1.93445   4
   4  11   1 31.0884 1.92734   1
   4  11   1 32.8804 2.13156   5
  -5 -11  -1 50.5458 2.76522   2
   5  11   1 51.3090 2.71032   5
   5  11   1 46.2056 3.55522   1
  -6 -11  -1 13.4088 1.56194   2
   6  11   1 15.0121 1.59083   5
  -7 -11  -1 219.484 9.12712   2
   2 -12  -1 3.20658 1.18932   4
  -2  12   1 4.16292 1.31182   1
   1 -12  -1 37.6781 2.44824   4
  -1  12   1 28.6616 2.13015   1
   0 -12  -1 21.8897 1.96056   4
   0 -12  -1 23.4337 1.86669   2
   0  12   1 22.7182 1.84381   1
   0  12   1 24.8013 1.86988   5
  -1 -12  -1 70.5257 3.35195   2
  -1 -12  -1 78.6249 3.46997   4
   1  12   1 72.9104 3.32153   5
   1  12   1 70.4511 3.28933   1
  -2 -12  -1 7.53045 1.27621   2
  -2 -12  -1 8.31804 1.31588   4
   2  12   1 9.13403 1.29384   1
   2  12   1 8.92831 1.30504   5
  -3 -12  -1 -0.1119 0.71398   4
  -3 -12  -1 -0.1106 0.78034   2
   3  12   1 -0.7184 0.62878   1
   3  12   1 -0.1811 0.73952   5
  -4 -12  -1 26.7859 2.12253   2
   4  12   1 23.5804 2.04607   5
   2  13   1 8.11141 1.66545   1
   4  12  -2 0.79770 0.81622   1
  -4 -12   2 0.27893 0.78785   4
   3  12  -2 22.5298 1.93871   1
   3  12  -2 25.0911 1.98106   5
  -3 -12   2 23.9071 2.01379   4
  -3 -12   2 26.8301 2.12727   2
   2  12  -2 0.73638 0.79349   5
   2  12  -2 0.45681 0.80356   1
  -2 -12   2 -0.9006 0.68636   2
  -2 -12   2 0.01895 0.79521   4
   1  12  -2 84.6833 3.78306   1
   1  12  -2 90.4475 3.74479   5
  -1 -12   2 86.2746 3.81068   2
  -1 -12   2 85.5680 3.88969   4
   0  12  -2 43.9496 2.69029   1
   0  12  -2 46.6968 2.56828   5
   0 -12   2 46.9214 2.69649   2
   0 -12   2 54.3208 2.95765   4
  -1  12  -2 4.79160 1.16009   1
  -1  12  -2 6.57922 1.14213   5
   1 -12   2 6.25915 1.13423   2
   1 -12   2 5.36089 1.26261   4
   6  11  -2 3.24984 1.01248   5
   6  11  -2 3.55073 1.02938   1
  -6 -11   2 3.04344 1.01960   4
  -6 -11   2 1.64195 0.93098   2
   5  11  -2 4.90608 1.09356   1
   5  11  -2 4.51129 1.02320   5
  -5 -11   2 6.42927 1.20094   2
  -5 -11   2 4.98245 1.07367   4
   4  11  -2 -0.4416 0.64002   1
   4  11  -2 -0.3713 0.61281   5
  -4 -11   2 -0.2303 0.70055   4
  -4 -11   2 -0.1441 0.71788   2
   3  11  -2 0.76969 0.71771   1
   3  11  -2 1.44843 0.69451   5
  -3 -11   2 0.40288 0.75656   2
  -3 -11   2 1.10622 0.75113   4
   2  11  -2 31.7827 2.14133   1
   2  11  -2 38.8238 2.20860   5
  -2 -11   2 36.0703 2.22772   2
  -2 -11   2 36.6093 2.25577   4
   1  11  -2 2.53946 0.86830   1
   1  11  -2 2.38135 0.81035   5
  -1 -11   2 1.56878 0.84744   2
  -1 -11   2 3.02359 0.89513   4
   0  11  -2 6.48770 1.05180   5
   0  11  -2 6.78743 1.16808   1
   0 -11   2 8.49004 1.33597   4
   0 -11   2 6.41043 1.09846   2
  -1  11  -2 10.2864 1.20420   5
  -1  11  -2 12.4415 1.52273   1
   1 -11   2 10.2651 1.24501   2
   1 -11   2 10.8783 1.51317   4
  -2  11  -2 28.9388 2.19777   1
   2 -11   2 33.4888 2.36388   4
  -3  11  -2 26.1534 2.25430   1
   3 -11   2 31.3580 2.35658   4
   8  10  -2 33.5446 2.23605   5
   8  10  -2 27.9869 2.39198   1
  -8 -10   2 31.8951 2.15944   2
  -8 -10   2 36.0134 2.53753   4
   7  10  -2 4.31208 1.06758   1
   7  10  -2 4.36963 1.03918   5
  -7 -10   2 5.05276 1.08833   2
  -7 -10   2 5.34886 1.12607   4
   6  10  -2 1.56664 0.74828   5
   6  10  -2 0.77276 0.77148   1
  -6 -10   2 3.06827 0.92373   2
  -6 -10   2 2.21879 0.86801   4
   5  10  -2 45.0208 2.42096   5
   5  10  -2 41.6390 2.39597   1
  -5 -10   2 45.5301 2.49638   2
  -5 -10   2 45.9379 2.45104   4
   4  10  -2 28.5576 1.88730   1
   4  10  -2 27.8800 1.79717   5
  -4 -10   2 26.1369 1.84942   4
  -4 -10   2 26.0095 1.90331   2
   3  10  -2 1.45011 0.71102   1
   3  10  -2 2.23047 0.80112   5
  -3 -10   2 1.24937 0.76555   4
  -3 -10   2 1.15888 0.66484   2
   2  10  -2 28.4476 1.81098   5
   2  10  -2 32.0369 1.97716   1
  -2 -10   2 30.2633 1.97739   4
  -2 -10   2 34.7347 2.04203   2
   1  10  -2 19.0848 1.58242   1
   1  10  -2 17.7847 1.50408   5
  -1 -10   2 17.1641 1.59284   2
  -1 -10   2 19.3132 1.66179   4
   0  10  -2 43.1633 2.20754   5
   0  10  -2 42.7317 2.34056   1
   0 -10   2 47.0942 2.47685   4
   0 -10   2 46.2505 2.31865   2
  -1  10  -2 13.3388 1.50542   1
  -1  10  -2 13.8603 1.27932   5
   1 -10   2 14.9169 1.62343   4
   1 -10   2 14.3963 1.35654   2
  -2  10  -2 4.31008 0.99092   1
  -2  10  -2 5.31484 0.87083   5
   2 -10   2 3.13618 0.78543   2
   2 -10   2 5.37761 1.05685   4
  -3  10  -2 0.53089 0.78101   1
   3 -10   2 -0.6775 0.76852   4
  -4  10  -2 0.33312 0.72655   1
   4 -10   2 0.02602 0.78758   4
  -5  10  -2 1.80771 0.98395   1
   5 -10   2 0.80667 0.93019   4
   8   9  -2 1.29585 0.89558   1
   8   9  -2 2.50659 0.86768   5
  -8  -9   2 1.11139 0.84609   4
  -8  -9   2 1.79836 0.80815   2
   7   9  -2 141.941 4.94764   5
   7   9  -2 142.254 5.15303   1
  -7  -9   2 126.550 4.84218   2
  -7  -9   2 137.104 4.99419   4
   6   9  -2 0.90420 0.56182   5
   6   9  -2 0.58590 0.66823   1
  -6  -9   2 0.04213 0.61045   4
  -6  -9   2 -0.2098 0.60752   2
   5   9  -2 104.269 3.97466   1
   5   9  -2 99.2149 3.84977   5
  -5  -9   2 105.170 3.93571   2
  -5  -9   2 99.3379 3.88374   4
   4   9  -2 3.62862 0.83154   5
   4   9  -2 0.89754 0.59366   1
  -4  -9   2 0.27651 0.62329   2
  -4  -9   2 0.87776 0.67845   4
   3   9  -2 24.0501 1.61599   5
  -3  -9   2 22.8528 1.62977   2
  -3  -9   2 25.2156 1.69088   4
   2   9  -2 312.158 9.60852   1
   2   9  -2 315.788 9.51728   5
  -2  -9   2 327.662 9.67403   4
  -2  -9   2 326.035 9.64438   2
   1   9  -2 15.8760 1.29977   5
   1   9  -2 14.1768 1.31122   1
  -1  -9   2 14.2803 1.30564   4
  -1  -9   2 15.1939 1.34221   2
   0   9  -2 82.2814 3.33461   1
   0   9  -2 82.5350 3.14950   5
   0  -9   2 81.6096 3.19196   2
   0  -9   2 84.4805 3.38164   4
  -1   9  -2 0.81671 0.61516   1
  -1   9  -2 0.26704 0.48583   5
   1  -9   2 0.39752 0.55834   2
   1  -9   2 -0.2044 0.61545   4
  -2   9  -2 0.26095 0.47544   5
  -2   9  -2 0.47774 0.65961   1
   2  -9   2 0.83640 0.67051   4
   2  -9   2 0.21148 0.49202   2
  -3   9  -2 1.58311 0.79390   1
   3  -9   2 2.35010 0.88803   4
  -4   9  -2 53.4245 2.81758   1
   4  -9   2 53.7865 2.89240   4
  -5   9  -2 20.0538 1.99665   1
   5  -9   2 21.5266 2.00934   4
  -6   9  -2 93.6197 4.22816   1
   6  -9   2 93.8338 4.29114   4
   9   8  -2 145.982 5.48063   1
  -9  -8   2 141.337 5.31432   4
   8   8  -2 271.472 8.27634   5
   8   8  -2 271.017 8.63055   1
  -8  -8   2 256.307 8.22135   2
  -8  -8   2 263.495 8.44006   4
   7   8  -2 6.38815 1.09524   1
   7   8  -2 6.35761 0.97526   5
  -7  -8   2 5.13684 0.92172   2
  -7  -8   2 4.97782 0.94719   4
   6   8  -2 94.0805 3.68501   1
   6   8  -2 91.9644 3.49606   5
  -6  -8   2 86.8539 3.47733   2
  -6  -8   2 93.2473 3.59887   4
   5   8  -2 7.58912 0.98924   5
   5   8  -2 9.93638 1.16949   1
  -5  -8   2 8.61082 1.09419   4
  -5  -8   2 11.7263 1.18921   2
   4   8  -2 130.600 4.54578   1
   4   8  -2 135.910 4.48368   5
  -4  -8   2 126.667 4.48547   2
  -4  -8   2 130.699 4.52743   4
   3   8  -2 1.03973 0.51919   5
   3   8  -2 0.26179 0.50328   1
  -3  -8   2 1.33384 0.55064   2
  -3  -8   2 1.27125 0.59951   4
   2   8  -2 94.6623 3.51963   1
   2   8  -2 94.5334 3.44021   5
  -2  -8   2 98.2315 3.53596   2
  -2  -8   2 96.6044 3.55936   4
   1   8  -2 88.9931 3.23851   5
   1   8  -2 88.2549 3.32823   1
  -1  -8   2 90.7049 3.38553   4
  -1  -8   2 92.7502 3.35817   2
   0   8  -2 78.3338 3.07331   1
   0   8  -2 79.2158 2.91056   5
   0  -8   2 75.0423 2.94325   2
   0  -8   2 78.5210 3.10103   4
  -1   8  -2 98.5436 3.62663   1
  -1   8  -2 97.9356 3.35208   5
   1  -8   2 91.1286 3.56995   4
   1  -8   2 93.2506 3.39204   2
  -2   8  -2 0.73863 0.60383   1
  -2   8  -2 0.80249 0.45941   5
   2  -8   2 0.03884 0.56772   4
   2  -8   2 0.34162 0.45116   2
  -3   8  -2 100.183 3.79962   1
  -3   8  -2 93.6721 3.28309   5
   3  -8   2 94.5239 3.77677   4
   3  -8   2 93.7762 3.38247   2
  -4   8  -2 48.4738 2.56841   1
   4  -8   2 47.1770 2.52274   4
  -5   8  -2 0.20649 0.76255   1
   5  -8   2 0.71037 0.73680   4
  -6   8  -2 23.9144 2.05288   1
   6  -8   2 20.2426 2.00214   4
  -7   8  -2 7.47509 1.45688   1
   7  -8   2 5.77380 1.26957   4
 -10  -7   2 12.3622 1.67700   1
 -10  -7   2 10.3379 1.69543   4
   9   7  -2 159.003 5.80702   1
  -9  -7   2 159.393 5.71028   4
   8   7  -2 155.112 5.56456   1
  -8  -7   2 156.800 5.45451   4
   7   7  -2 108.035 4.08812   1
   7   7  -2 108.040 3.83476   5
  -7  -7   2 102.938 3.95793   4
  -7  -7   2 107.200 3.81425   2
   6   7  -2 5.83185 0.92894   1
   6   7  -2 6.89272 0.90710   5
  -6  -7   2 4.60793 0.84784   4
  -6  -7   2 5.76494 0.84128   2
   5   7  -2 180.366 5.78255   5
   5   7  -2 181.270 5.92530   1
  -5  -7   2 189.810 5.85733   2
  -5  -7   2 187.252 5.92126   4
   4   7  -2 7.66331 0.85279   5
   4   7  -2 8.65381 0.98780   1
  -4  -7   2 7.29649 0.87552   4
  -4  -7   2 8.46476 0.93637   2
   3   7  -2 850.348 22.6020   5
  -3  -7   2 820.619 22.6288   2
  -3  -7   2 807.107 22.6455   4
   2   7  -2 414.046 11.6571   1
   2   7  -2 406.457 11.5488   5
  -2  -7   2 404.876 11.6615   4
  -2  -7   2 406.137 11.6127   2
   1   7  -2 37.7608 1.70473   5
   1   7  -2 36.6390 1.77343   1
  -1  -7   2 38.0363 1.83799   4
  -1  -7   2 39.6445 1.77223   2
   0   7  -2 340.842 9.74425   5
   0   7  -2 337.810 9.91716   1
   0  -7   2 343.728 9.94244   4
   0  -7   2 342.869 9.81172   2
  -1   7  -2 112.086 3.66964   5
  -1   7  -2 115.819 3.91538   1
   1  -7   2 106.614 3.86052   4
   1  -7   2 113.426 3.74597   2
  -2   7  -2 62.8434 2.33433   5
  -2   7  -2 65.3099 2.65689   1
   2  -7   2 57.8143 2.56406   4
   2  -7   2 62.4093 2.38769   2
  -3   7  -2 7.51829 0.76217   5
  -3   7  -2 7.54536 1.02972   1
   3  -7   2 8.85875 0.88806   2
   3  -7   2 6.11058 0.93547   4
  -4   7  -2 399.314 11.4473   6
  -4   7  -2 400.311 11.9356   1
   4  -7   2 419.427 11.4806   3
   4  -7   2 400.796 11.9998   4
  -5   7  -2 0.14309 0.68465   1
  -5   7  -2 0.55401 0.51190   6
   5  -7   2 -0.0518 0.48016   3
   5  -7   2 0.34053 0.72881   4
  -6   7  -2 43.8335 2.51164   1
  -6   7  -2 42.0000 2.16421   6
   6  -7   2 41.0341 2.15544   3
   6  -7   2 44.2675 2.56431   4
  -7   7  -2 0.42339 0.68961   6
  -7   7  -2 0.34218 0.82702   1
   7  -7   2 1.26235 0.66772   3
   7  -7   2 0.29068 0.83675   4
  -8   7  -2 11.2407 1.39753   6
  -8   7  -2 10.1423 1.52600   1
   8  -7   2 11.5760 1.62478   4
   8  -7   2 12.7729 1.46227   3
  10   6  -2 12.4948 1.53915   4
 -10  -6   2 12.5661 1.65170   1
   9   6  -2 248.550 7.94034   4
   8   6  -2 217.931 7.13802   1
   7   6  -2 3.18363 0.65136   5
   7   6  -2 3.09140 0.75482   1
  -7  -6   2 2.96193 0.64372   2
  -7  -6   2 3.25420 0.79857   4
   6   6  -2 752.779 20.9432   1
   6   6  -2 755.847 20.6818   5
  -6  -6   2 742.514 20.8600   4
  -6  -6   2 762.317 20.7002   2
   5   6  -2 27.3877 1.57289   1
   5   6  -2 29.0616 1.47603   5
  -5  -6   2 28.3778 1.49788   2
  -5  -6   2 26.7753 1.50198   4
   4   6  -2 96.5212 3.25053   5
   4   6  -2 94.4693 3.33551   1
  -4  -6   2 93.5963 3.31385   4
  -4  -6   2 91.6791 3.25954   2
   3   6  -2 18.9267 1.14663   5
   3   6  -2 18.7182 1.18498   1
  -3  -6   2 19.6339 1.21957   4
  -3  -6   2 18.5718 1.14264   2
   2   6  -2 78.1507 2.73991   1
   2   6  -2 75.8617 2.65877   5
  -2  -6   2 73.1120 2.71402   4
  -2  -6   2 72.6540 2.67203   2
   1   6  -2 0.02705 0.32986   5
   1   6  -2 0.42915 0.32047   1
  -1  -6   2 -0.1586 0.31183   4
  -1  -6   2 -0.3473 0.33023   2
   0   6  -2 499.277 13.6474   5
   0   6  -2 511.568 13.2075   6
   0   6  -2 500.720 13.8071   1
   0  -6   2 486.277 13.7948   4
   0  -6   2 473.320 13.6744   2
  -1   6  -2 36.8856 1.30272   6
  -1   6  -2 36.2497 1.53658   5
  -1   6  -2 34.7693 1.69228   1
   1  -6   2 38.2745 1.63197   2
   1  -6   2 35.4456 1.68253   4
   1  -6   2 39.1864 1.29451   3
  -2   6  -2 449.441 12.7318   5
  -2   6  -2 482.158 12.6286   6
  -2   6  -2 451.225 13.0657   1
   2  -6   2 484.068 12.6148   3
   2  -6   2 471.383 12.8458   2
   2  -6   2 434.650 13.0465   4
  -3   6  -2 1850.47 48.4811   6
  -3   6  -2 1856.47 48.4449   5
  -3   6  -2 1747.70 48.8679   1
   3  -6   2 1757.16 48.8956   4
   3  -6   2 1865.39 48.4777   3
   3  -6   2 1860.30 48.5523   2
  -4   6  -2 64.3590 2.75389   1
  -4   6  -2 63.3544 2.41079   6
  -4   6  -2 68.7976 2.44505   5
   4  -6   2 66.0948 2.38068   2
   4  -6   2 65.7880 2.44768   3
   4  -6   2 60.3783 2.75696   4
  -5   6  -2 229.424 7.47760   1
  -5   6  -2 236.034 7.16522   6
   5  -6   2 243.139 7.61042   4
   5  -6   2 244.479 7.20205   3
  -6   6  -2 0.05254 0.51650   6
  -6   6  -2 0.31360 0.71309   1
   6  -6   2 0.52272 0.70824   4
   6  -6   2 1.06499 0.61353   3
  -7   6  -2 6.16793 1.00350   6
  -7   6  -2 4.55611 1.00296   1
   7  -6   2 5.55544 0.97754   3
   7  -6   2 4.83586 1.01506   4
  -8   6  -2 0.26298 0.77126   1
  -8   6  -2 0.54758 0.73478   6
   8  -6   2 1.35317 0.91116   4
   8  -6   2 0.32974 0.71552   3
  -9   6  -2 96.1566 4.03974   6
   9  -6   2 97.4214 4.07781   3
  10   5  -2 106.400 4.25906   4
 -10  -5   2 101.660 4.31542   1
   9   5  -2 22.6295 1.79587   4
  -9  -5   2 22.3636 1.91440   1
   8   5  -2 164.454 5.54624   4
   7   5  -2 119.053 3.89778   3
   7   5  -2 117.102 3.89416   5
   7   5  -2 123.450 4.24540   4
   7   5  -2 118.887 4.27834   1
  -7  -5   2 124.799 4.01662   6
  -7  -5   2 116.119 3.89074   2
   6   5  -2 123.417 3.95761   5
   6   5  -2 124.344 3.83090   3
   6   5  -2 116.285 4.10642   4
   6   5  -2 125.042 4.25357   1
  -6  -5   2 126.543 3.90341   6
  -6  -5   2 120.866 3.95338   2
   5   5  -2 496.764 14.1345   5
   5   5  -2 517.409 13.9017   3
   5   5  -2 508.579 14.3674   1
  -5  -5   2 528.541 13.9831   6
  -5  -5   2 507.359 14.1798   2
   4   5  -2 89.2519 2.63886   3
   4   5  -2 84.1704 3.05014   1
   4   5  -2 88.8745 2.95695   5
  -4  -5   2 84.6983 3.02877   4
  -4  -5   2 94.9655 2.71472   6
  -4  -5   2 83.2021 2.96105   2
   3   5  -2 2270.67 62.1353   5
   3   5  -2 2293.21 62.2392   1
  -3  -5   2 2322.16 62.1960   2
  -3  -5   2 2448.84 62.0205   3
  -3  -5   2 2260.41 62.2219   4
  -3  -5   2 2463.85 61.9647   6
   2   5  -2 61.5657 2.25980   1
   2   5  -2 60.9214 2.20059   5
  -2  -5   2 59.3618 2.21838   2
  -2  -5   2 65.5087 2.30819   4
   1   5  -2 1010.45 27.2131   5
   1   5  -2 1009.94 27.2819   1
  -1  -5   2 986.396 27.3049   4
  -1  -5   2 1053.23 27.2838   2
   0   5  -2 57.5964 2.08943   5
   0   5  -2 60.4642 1.76181   6
   0   5  -2 60.6491 2.22512   1
   0  -5   2 62.6224 2.18419   2
   0  -5   2 62.5532 1.73361   3
   0  -5   2 58.6660 2.21535   4
  -1   5  -2 7.33623 0.48421   6
  -1   5  -2 7.46805 0.76650   1
  -1   5  -2 6.98470 0.62806   5
   1  -5   2 7.88242 0.67800   2
   1  -5   2 7.00892 0.69280   4
   1  -5   2 8.01114 0.46855   3
  -2   5  -2 459.132 13.1704   1
  -2   5  -2 482.284 12.9229   5
   2  -5   2 485.995 12.9868   2
   2  -5   2 483.961 12.8199   3
   2  -5   2 448.947 13.1739   4
  -3   5  -2 653.876 17.7998   6
  -3   5  -2 680.473 17.7315   5
  -3   5  -2 637.439 18.0981   1
   3  -5   2 655.762 17.7846   2
   3  -5   2 656.464 17.7876   3
   3  -5   2 651.626 18.1430   4
  -4   5  -2 381.121 10.6479   6
  -4   5  -2 368.475 10.8824   1
  -4   5  -2 383.609 10.3828   5
   4  -5   2 372.569 10.9503   4
   4  -5   2 383.344 10.4613   2
   4  -5   2 375.586 10.6292   3
  -5   5  -2 16.7878 1.18721   6
  -5   5  -2 17.1807 1.35895   1
   5  -5   2 17.1098 1.18362   3
   5  -5   2 18.9192 1.43198   4
  -6   5  -2 84.8841 3.29259   6
  -6   5  -2 91.1020 3.53811   1
   6  -5   2 94.1763 3.38126   3
   6  -5   2 87.7889 3.56856   4
  -7   5  -2 1.41812 0.70149   1
  -7   5  -2 1.73646 0.67145   6
   7  -5   2 1.92500 0.71281   3
   7  -5   2 1.57232 0.75739   4
  -8   5  -2 62.9958 3.04442   1
  -8   5  -2 59.9613 2.90085   6
   8  -5   2 62.9723 2.93910   3
   8  -5   2 61.8337 3.10423   4
  -9   5  -2 13.3258 1.68925   1
  -9   5  -2 15.2876 1.64016   6
   9  -5   2 11.1455 1.42266   3
   9  -5   2 12.3916 1.61644   4
  10   4  -2 0.94814 0.90000   4
  10   4  -2 0.33305 0.67885   3
 -10  -4   2 0.59593 0.66002   6
 -10  -4   2 -0.1195 0.79944   1
   9   4  -2 478.185 13.6833   4
   9   4  -2 482.482 13.4158   3
  -9  -4   2 461.126 13.3704   6
  -9  -4   2 432.198 13.6110   1
   8   4  -2 0.93568 0.59992   4
   8   4  -2 0.53619 0.47119   3
  -8  -4   2 1.81548 0.50581   6
  -8  -4   2 0.23219 0.57493   1
   7   4  -2 634.588 17.2802   3
   7   4  -2 626.516 17.5440   4
   7   4  -2 601.540 17.5543   1
  -7  -4   2 639.360 17.3363   6
   6   4  -2 313.053 8.82801   4
   6   4  -2 291.925 8.46961   5
   6   4  -2 296.601 8.53625   3
   6   4  -2 306.837 8.90856   1
  -6  -4   2 295.965 8.56571   6
  -6  -4   2 294.657 8.49871   2
   5   4  -2 92.5475 3.08827   5
   5   4  -2 96.6182 3.04879   3
   5   4  -2 96.6015 3.36019   1
   5   4  -2 97.7663 3.31227   4
  -5  -4   2 98.9925 3.14500   2
  -5  -4   2 98.1876 3.09698   6
   4   4  -2 1136.49 30.5748   3
   4   4  -2 1147.05 30.9018   4
   4   4  -2 1127.75 30.7520   5
   4   4  -2 1126.33 30.9415   1
  -4  -4   2 1185.39 30.6417   6
  -4  -4   2 1181.68 30.8221   2
   3   4  -2 36.7679 1.56920   1
   3   4  -2 41.4256 1.29331   3
   3   4  -2 38.3256 1.51749   5
  -3  -4   2 41.2167 1.57680   2
  -3  -4   2 41.3602 1.32742   6
  -3  -4   2 38.0430 1.58536   4
   2   4  -2 80.9439 2.69453   5
  -2  -4   2 81.9525 2.74067   2
  -2  -4   2 85.7922 2.36001   3
  -2  -4   2 91.0861 2.38592   6
   1   4  -2 0.83323 0.36853   1
   1   4  -2 1.04594 0.37111   5
  -1  -4   2 0.71480 0.38111   4
  -1  -4   2 2.49763 0.45612   2
   0   4  -2 231.158 6.37488   6
   0   4  -2 240.429 6.71805   5
   0   4  -2 231.231 6.78559   1
   0  -4   2 247.069 6.83693   4
   0  -4   2 230.357 6.73811   2
   0  -4   2 250.534 6.36527   3
  -1   4  -2 647.428 16.5711   6
  -1   4  -2 611.689 16.7510   5
  -1   4  -2 604.848 16.8883   1
   1  -4   2 605.994 16.8996   4
   1  -4   2 624.177 16.8005   2
   1  -4   2 634.373 16.5565   3
  -2   4  -2 3444.84 89.0977   1
  -2   4  -2 3331.47 89.1662   5
   2  -4   2 3268.28 89.3106   2
   2  -4   2 3396.02 88.3746   3
   2  -4   2 3281.94 89.4554   4
  -3   4  -2 43.1176 1.46315   5
  -3   4  -2 37.3185 1.68935   1
  -3   4  -2 37.1609 1.52455   6
   3  -4   2 39.5713 1.48897   2
   3  -4   2 40.4728 1.53304   3
   3  -4   2 41.1586 1.74525   4
  -4   4  -2 417.736 10.8770   5
  -4   4  -2 383.458 11.2938   1
  -4   4  -2 394.919 11.1665   6
   4  -4   2 393.981 11.1407   3
   4  -4   2 410.097 10.9360   2
   4  -4   2 392.493 11.3864   4
  -5   4  -2 509.259 14.4553   1
  -5   4  -2 506.446 14.2959   6
   5  -4   2 509.858 14.2806   3
   5  -4   2 524.078 14.5390   4
  -6   4  -2 19.8264 1.46402   1
  -6   4  -2 18.8402 1.35390   6
   6  -4   2 22.6541 1.41154   3
   6  -4   2 19.9620 1.47252   4
  -7   4  -2 114.109 4.16154   6
  -7   4  -2 115.888 4.30633   1
   7  -4   2 121.088 4.20896   3
   7  -4   2 112.497 4.28109   4
  -8   4  -2 1.98287 0.84675   1
  -8   4  -2 2.30706 0.80690   6
   8  -4   2 1.39929 0.72599   3
   8  -4   2 1.66077 0.79607   4
  -9   4  -2 14.1979 1.56110   6
  -9   4  -2 12.6210 1.56321   1
   9  -4   2 11.2584 1.38185   3
   9  -4   2 13.8722 1.57044   4
 -10   4  -2 31.0290 2.38798   1
 -10   4  -2 29.4812 3.06554   6
  10  -4   2 29.0886 2.28874   4
  10  -4   2 30.9882 2.51301   3
  11   3  -2 1.11568 0.78955   3
 -11  -3   2 1.11400 0.76430   6
 -11  -3   2 0.49300 1.24024   1
  10   3  -2 79.6723 3.30621   3
  10   3  -2 75.3395 3.43087   4
 -10  -3   2 75.9979 3.49067   1
 -10  -3   2 67.3750 3.17376   6
   9   3  -2 0.46222 0.65030   4
   9   3  -2 0.42191 0.60178   3
  -9  -3   2 -0.0689 0.54154   6
  -9  -3   2 0.25563 0.67490   1
   8   3  -2 37.6894 2.07407   4
   8   3  -2 39.3904 1.97866   3
  -8  -3   2 39.3249 1.97542   6
  -8  -3   2 34.6607 2.07161   1
   7   3  -2 2.52021 0.71090   4
   7   3  -2 2.29384 0.56891   3
  -7  -3   2 1.65058 0.49976   6
  -7  -3   2 2.47483 0.71571   1
   6   3  -2 544.537 15.6324   4
   6   3  -2 561.051 15.6958   1
   6   3  -2 563.295 15.4671   3
  -6  -3   2 581.113 15.2665   2
  -6  -3   2 554.455 15.4845   6
   5   3  -2 6.64982 0.73958   4
   5   3  -2 6.65393 0.65029   3
   5   3  -2 5.40925 0.52541   5
   5   3  -2 5.42431 0.66540   1
  -5  -3   2 5.52598 0.49083   2
  -5  -3   2 6.80581 0.56039   6
   4   3  -2 827.782 22.3505   1
   4   3  -2 814.404 22.3225   4
   4   3  -2 803.944 22.1005   5
   4   3  -2 822.330 22.1065   3
  -4  -3   2 847.076 22.1423   6
  -4  -3   2 838.034 22.1538   2
   3   3  -2 241.636 7.00884   1
   3   3  -2 260.609 7.03385   4
   3   3  -2 239.991 6.75429   3
   3   3  -2 244.798 6.88662   5
  -3  -3   2 247.513 6.78290   6
  -3  -3   2 243.839 6.90968   2
   2   3  -2 94.6387 3.01756   5
   2   3  -2 102.895 2.81934   3
   2   3  -2 101.347 3.11588   1
  -2  -3   2 98.9698 3.11196   4
  -2  -3   2 106.969 2.84312   6
   1   3  -2 1540.77 40.2786   5
   1   3  -2 1540.83 40.7969   1
  -1  -3   2 1441.73 40.2794   2
  -1  -3   2 1555.92 40.3462   4
   0   3  -2 367.729 9.71687   5
   0   3  -2 355.653 9.40937   6
   0   3  -2 348.889 9.75222   1
   0  -3   2 354.963 9.77751   4
   0  -3   2 363.172 9.40306   3
   0  -3   2 344.559 9.70915   2
  -1   3  -2 861.552 21.8694   6
  -1   3  -2 809.404 22.0881   1
  -1   3  -2 809.810 21.9791   5
   1  -3   2 802.878 22.0914   4
   1  -3   2 826.357 22.0150   2
   1  -3   2 835.670 21.8411   3
  -2   3  -2 328.602 9.61627   1
  -2   3  -2 352.518 9.48340   6
  -2   3  -2 350.515 9.45279   5
   2  -3   2 356.783 9.46308   3
   2  -3   2 338.569 9.65104   4
   2  -3   2 352.608 9.48787   2
  -3   3  -2 326.880 8.55109   5
  -3   3  -2 301.597 8.80226   1
  -3   3  -2 314.909 8.72357   6
   3  -3   2 315.876 8.57874   2
   3  -3   2 303.655 8.84319   4
   3  -3   2 312.629 8.69308   3
  -4   3  -2 124.508 3.42059   5
  -4   3  -2 115.652 3.79931   1
  -4   3  -2 116.955 3.72666   6
   4  -3   2 117.934 3.46032   2
   4  -3   2 113.261 3.81915   4
   4  -3   2 117.509 3.70694   3
  -5   3  -2 74.7911 2.79022   1
  -5   3  -2 74.6251 2.74095   6
   5  -3   2 70.9992 2.68521   3
   5  -3   2 80.1211 2.86558   4
  -6   3  -2 0.07864 0.43821   6
  -6   3  -2 -0.0014 0.44246   1
   6  -3   2 0.34750 0.43878   3
   6  -3   2 0.08213 0.45906   4
  -7   3  -2 25.9843 1.67509   1
  -7   3  -2 25.7673 1.68432   6
   7  -3   2 27.1225 1.72148   4
   7  -3   2 23.4755 1.59828   3
  -8   3  -2 219.955 7.14947   6
  -8   3  -2 230.758 7.22597   1
   8  -3   2 217.088 7.16443   4
   8  -3   2 220.081 7.10605   3
  -9   3  -2 5.35674 1.08602   1
  -9   3  -2 5.39914 1.11473   6
   9  -3   2 6.42917 1.09863   3
   9  -3   2 6.93621 1.19166   4
 -10   3  -2 88.9249 3.97010   6
 -10   3  -2 89.4250 3.99491   1
  10  -3   2 98.9598 4.10365   4
  10  -3   2 88.1189 3.92210   3
  11   2  -2 44.5340 2.60316   3
 -11  -2   2 39.1995 2.64120   6
 -11  -2   2 42.0137 3.46527   1
  10   2  -2 25.1511 1.99348   4
  10   2  -2 28.3296 2.03969   3
 -10  -2   2 27.3782 2.12725   1
 -10  -2   2 27.7600 1.94340   6
   9   2  -2 0.44430 0.62174   4
   9   2  -2 0.14494 0.63494   3
  -9  -2   2 0.94431 0.64655   6
  -9  -2   2 0.24254 0.61546   1
   8   2  -2 9.80293 1.11327   3
   8   2  -2 14.3162 1.33186   4
  -8  -2   2 11.8558 1.19251   6
  -8  -2   2 12.1501 1.30132   1
   7   2  -2 222.977 6.69707   3
   7   2  -2 217.664 6.78458   4
  -7  -2   2 223.727 6.86457   1
  -7  -2   2 209.281 6.65324   6
   6   2  -2 0.49717 0.40222   3
   6   2  -2 0.62761 0.43459   4
   6   2  -2 1.23493 0.25469   5
  -6  -2   2 0.19315 0.37360   6
  -6  -2   2 1.47052 0.27947   2
  -6  -2   2 0.66140 0.49843   1
   5   2  -2 466.060 12.9913   1
   5   2  -2 465.259 12.8442   3
   5   2  -2 453.066 12.5526   5
   5   2  -2 443.274 12.9337   4
  -5  -2   2 463.690 12.8608   6
  -5  -2   2 497.858 12.6172   2
   4   2  -2 428.881 11.6929   3
   4   2  -2 407.657 11.7875   4
   4   2  -2 429.443 11.8558   1
  -4  -2   2 440.822 11.5742   2
  -4  -2   2 427.177 11.7009   6
   3   2  -2 408.221 11.5080   1
   3   2  -2 413.170 11.3229   5
   3   2  -2 411.415 11.4993   4
   3   2  -2 421.302 11.3535   3
  -3  -2   2 431.120 11.3565   2
  -3  -2   2 431.956 11.3783   6
   2   2  -2 356.624 9.15404   3
   2   2  -2 331.160 9.31738   1
   2   2  -2 336.547 9.31601   4
   2   2  -2 335.290 9.22377   5
  -2  -2   2 353.736 9.15531   6
  -2  -2   2 326.892 9.23687   2
   1   2  -2 1.69339 0.25966   5
   1   2  -2 1.96275 0.29971   1
   1   2  -2 2.08677 0.16171   3
  -1  -2   2 1.43181 0.25982   4
  -1  -2   2 1.31480 0.24036   2
  -1  -2   2 1.53452 0.12929   6
   0   2  -2 730.021 19.4122   1
   0   2  -2 745.023 19.2608   3
   0   2  -2 706.750 19.3810   5
   0  -2   2 703.813 19.4120   4
   0  -2   2 766.357 19.2684   6
   0  -2   2 714.091 19.3969   2
  -1   2  -2 11.6007 0.54735   5
  -1   2  -2 10.9332 0.58351   1
   1  -2   2 10.9093 0.46567   3
   1  -2   2 11.5271 0.48920   6
   1  -2   2 10.0290 0.57647   4
   1  -2   2 10.3597 0.54546   2
  -2   2  -2 846.622 24.2567   1
  -2   2  -2 925.085 24.1492   5
   2  -2   2 932.141 24.3165   4
   2  -2   2 937.558 24.1968   3
   2  -2   2 907.441 24.1629   2
  -3   2  -2 138.059 4.15151   6
  -3   2  -2 139.977 3.92969   5
  -3   2  -2 135.950 4.14696   1
   3  -2   2 141.868 4.20590   4
   3  -2   2 140.930 4.11331   3
   3  -2   2 140.188 3.96373   2
  -4   2  -2 1012.41 27.0582   6
  -4   2  -2 1018.35 26.6662   5
  -4   2  -2 946.606 27.0077   1
   4  -2   2 988.530 26.9894   3
   4  -2   2 1022.99 27.0887   4
   4  -2   2 1044.85 26.7272   2
  -5   2  -2 34.2464 1.16167   5
  -5   2  -2 33.4443 1.59409   6
  -5   2  -2 32.9878 1.56721   1
   5  -2   2 36.2939 1.24077   2
   5  -2   2 34.2484 1.55400   3
   5  -2   2 33.5868 1.58051   4
  -6   2  -2 56.2710 2.30446   1
  -6   2  -2 54.3506 2.28779   6
   6  -2   2 55.4944 2.27107   3
   6  -2   2 50.6940 2.23861   4
  -7   2  -2 285.227 8.74356   1
  -7   2  -2 287.410 8.77664   6
   7  -2   2 302.832 8.79809   4
   7  -2   2 291.313 8.72287   3
  -8   2  -2 3.12023 0.80814   1
  -8   2  -2 3.58638 0.79250   6
   8  -2   2 5.16961 0.91324   3
   8  -2   2 3.88073 0.86515   4
  -9   2  -2 413.390 12.7084   1
  -9   2  -2 437.185 12.8477   6
   9  -2   2 434.527 12.7587   3
   9  -2   2 433.175 12.7760   4
 -10   2  -2 22.4697 1.97284   6
 -10   2  -2 23.7802 1.93166   1
  10  -2   2 22.8848 1.90929   4
  10  -2   2 18.7796 1.81801   3
  10   1  -2 11.3065 1.40146   3
  10   1  -2 12.2493 1.50470   4
 -10  -1   2 10.9559 1.44207   1
 -10  -1   2 9.75558 1.34678   6
   9   1  -2 -0.3166 0.59703   4
   9   1  -2 0.09749 0.57517   3
  -9  -1   2 0.13288 0.58928   6
  -9  -1   2 0.25767 0.63328   1
   8   1  -2 11.4944 1.23518   4
   8   1  -2 9.86981 1.09232   3
  -8  -1   2 8.44654 1.04371   6
  -8  -1   2 9.26089 1.14801   1
   7   1  -2 -0.0981 0.42341   3
   7   1  -2 0.39530 0.49983   4
  -7  -1   2 1.60711 0.64200   1
  -7  -1   2 -0.2469 0.41380   6
   6   1  -2 56.3182 2.31087   4
   6   1  -2 55.0173 2.22703   3
  -6  -1   2 58.2352 2.36338   1
  -6  -1   2 55.3907 2.23813   6
   5   1  -2 3.00390 0.29194   5
   5   1  -2 2.50400 0.46968   3
   5   1  -2 3.74776 0.60604   4
  -5  -1   2 1.97811 0.46061   6
  -5  -1   2 3.71539 0.32354   2
  -5  -1   2 1.74886 0.46865   1
   4   1  -2 59.2599 1.79556   5
   4   1  -2 56.3603 2.10654   4
   4   1  -2 59.6052 2.07767   3
  -4  -1   2 62.3482 1.82189   2
  -4  -1   2 61.2633 2.09993   6
   3   1  -2 249.119 6.84550   3
   3   1  -2 236.302 6.90901   4
   3   1  -2 248.066 6.66777   5
   3   1  -2 244.115 6.92585   1
  -3  -1   2 244.469 6.84583   6
  -3  -1   2 252.222 6.68689   2
   2   1  -2 310.588 8.91870   4
   2   1  -2 338.673 8.85539   3
   2   1  -2 315.095 8.92885   1
  -2  -1   2 335.585 8.85095   6
  -2  -1   2 335.714 8.81192   2
   1   1  -2 68.8944 2.25216   4
   1   1  -2 76.1826 2.27043   1
   1   1  -2 81.8913 2.17653   3
   1   1  -2 78.9279 2.23624   5
  -1  -1   2 78.9912 2.24439   2
  -1  -1   2 79.3574 2.17124   6
   0   1  -2 612.354 15.6493   3
   0   1  -2 576.730 15.5666   1
   0   1  -2 570.369 15.5852   5
   0  -1   2 572.589 15.5903   2
   0  -1   2 590.206 15.6131   6
   0  -1   2 593.960 15.5855   4
  -1   1  -2 6827.16 180.486   5
  -1   1  -2 6768.46 180.668   1
   1  -1   2 7179.83 180.767   2
   1  -1   2 7034.22 180.281   3
   1  -1   2 6326.05 180.500   4
  -2   1  -2 -0.0759 0.16579   1
  -2   1  -2 0.08236 0.14718   5
   2  -1   2 0.32184 0.19738   4
   2  -1   2 0.28975 0.19624   6
   2  -1   2 0.40713 0.19263   3
   2  -1   2 1.01740 0.20934   2
  -3   1  -2 -0.2232 0.17739   1
  -3   1  -2 0.20898 0.14392   5
   3  -1   2 -0.2314 0.18898   6
   3  -1   2 -0.1858 0.19216   3
   3  -1   2 0.10716 0.20673   4
   3  -1   2 -0.0746 0.15872   2
  -4   1  -2 28.9077 1.27286   1
  -4   1  -2 28.7759 1.02751   5
   4  -1   2 30.2005 1.29017   4
   4  -1   2 32.9446 1.11327   2
   4  -1   2 26.9823 1.26750   3
  -5   1  -2 13.8234 0.61095   5
  -5   1  -2 13.4476 0.91193   1
  -5   1  -2 14.0666 0.99447   6
   5  -1   2 13.0756 0.92172   3
   5  -1   2 13.8108 0.67446   2
   5  -1   2 12.9953 0.91199   4
  -6   1  -2 0.75684 0.43632   1
  -6   1  -2 0.04140 0.43548   6
   6  -1   2 0.37959 0.36339   4
   6  -1   2 -0.1900 0.36945   3
  -7   1  -2 191.304 6.02553   1
  -7   1  -2 194.911 6.13989   6
   7  -1   2 191.349 6.00577   4
   7  -1   2 188.337 6.02646   3
  -8   1  -2 4.34941 0.85128   1
  -8   1  -2 5.70734 0.99404   6
   8  -1   2 3.63306 0.77996   4
   8  -1   2 6.86695 0.94922   3
  -9   1  -2 62.2419 2.93825   6
  -9   1  -2 60.4916 2.86866   1
   9  -1   2 67.7273 2.98114   3
   9  -1   2 63.4200 2.90175   4
 -10   1  -2 5.23042 1.09894   1
 -10   1  -2 6.40017 1.23858   6
  10  -1   2 7.46680 1.22333   3
  10  -1   2 9.25221 1.30966   4
 -11   1  -2 1.16532 0.93394   1
  11  -1   2 1.61182 0.92909   4
  10   0  -2 4.64015 1.05973   4
  10   0  -2 4.25507 0.98053   3
 -10   0   2 6.43699 1.18930   6
 -10   0   2 4.97810 1.14300   1
   9   0  -2 0.81701 0.75414   4
   9   0  -2 2.13927 0.77502   3
  -9   0   2 1.36507 0.74867   6
  -9   0   2 2.03191 0.87037   1
   8   0  -2 1.80677 0.72818   4
   8   0  -2 0.98713 0.58948   3
  -8   0   2 2.06741 0.72549   1
  -8   0   2 1.38235 0.67908   6
   7   0  -2 3.25455 0.71719   3
   7   0  -2 2.06376 0.66337   4
  -7   0   2 1.54478 0.55721   6
  -7   0   2 5.33675 0.84813   1
   6   0  -2 0.65716 0.41760   3
   6   0  -2 1.34435 0.47687   4
  -6   0   2 1.23008 0.48639   6
  -6   0   2 1.17854 0.46142   1
   5   0  -2 115.227 3.75981   4
   5   0  -2 113.644 3.69710   3
  -5   0   2 113.334 3.69866   6
  -5   0   2 112.455 3.76081   1
   4   0  -2 229.796 6.65216   3
   4   0  -2 226.318 6.69915   4
   4   0  -2 229.640 6.19368   5
  -4   0   2 228.642 6.65726   6
  -4   0   2 230.310 6.72460   1
  -4   0   2 240.355 6.20293   2
   3   0  -2 58.8284 1.64760   5
   3   0  -2 58.5896 1.98494   4
   3   0  -2 60.4184 1.95926   3
  -3   0   2 58.5177 1.65461   2
  -3   0   2 55.3666 1.97241   1
  -3   0   2 57.3214 1.93711   6
   2   0  -2 3.21817 0.35513   3
   2   0  -2 2.78672 0.21855   5
   2   0  -2 2.52067 0.35686   4
  -2   0   2 2.26012 0.21307   2
  -2   0   2 3.33952 0.34823   6
   1   0  -2 178.086 4.79374   3
   1   0  -2 178.108 4.82370   4
   1   0  -2 168.539 4.81547   1
  -1   0   2 172.332 4.80108   6
  -1   0   2 174.682 4.74482   2
   0   0  -2 1081.57 28.9699   1
   0   0  -2 1135.41 29.0229   4
   0   0  -2 973.896 28.6413   5
   0   0  -2 1069.26 28.8781   3
   0   0   2 1120.75 28.9492   6
   0   0   2 1137.45 29.1789   2
  -1   0  -2 106.504 2.82324   1
  -1   0  -2 104.970 2.91561   5
   1   0   2 105.695 2.91492   6
   1   0   2 106.595 2.90010   3
   1   0   2 92.1126 2.81659   4
   1   0   2 107.038 2.93144   2
  -2   0  -2 13.0789 0.56404   1
  -2   0  -2 14.1426 0.60081   5
   2   0   2 13.5547 0.65386   3
   2   0   2 13.3006 0.62446   2
  -3   0  -2 63.4261 1.89054   5
  -3   0  -2 61.1620 1.95949   1
   3   0   2 61.5688 1.96378   4
   3   0   2 60.4597 1.90726   2
   3   0   2 61.7869 2.04917   6
  -4   0  -2 22.3080 1.03456   1
  -4   0  -2 22.4077 0.85438   5
   4   0   2 20.0190 1.01854   3
   4   0   2 22.5623 1.03238   4
   4   0   2 23.7681 1.10475   6
   4   0   2 22.9943 0.91131   2
  -5   0  -2 5.51178 0.39791   5
  -5   0  -2 5.58827 0.63395   1
   5   0   2 4.27866 0.55761   3
   5   0   2 5.64429 0.47797   2
   5   0   2 6.85250 0.74904   6
   5   0   2 6.38410 0.62505   4
  -6   0  -2 89.6301 3.32078   6
  -6   0  -2 103.049 3.28659   1
  -6   0  -2 94.8237 2.81796   5
   6   0   2 95.4571 3.21881   4
   6   0   2 89.6534 3.24409   3
   6   0   2 94.1434 2.83866   2
  -7   0  -2 15.1477 1.15437   1
  -7   0  -2 16.6856 1.31412   6
   7   0   2 16.8782 1.19118   4
   7   0   2 12.0564 1.14539   3
  -8   0  -2 128.173 4.56023   1
  -8   0  -2 137.357 4.76625   6
   8   0   2 129.964 4.61524   3
   8   0   2 139.288 4.62443   4
  -9   0  -2 1.16487 0.69406   1
  -9   0  -2 -0.0234 0.65374   6
   9   0   2 0.48920 0.60142   4
   9   0   2 0.18021 0.59471   3
 -10   0  -2 2.11697 0.89429   6
 -10   0  -2 1.04293 0.73264   1
  10   0   2 1.36395 0.77612   4
  10   0   2 2.11939 0.81698   3
 -11   0  -2 2.28670 0.93594   1
 -11   0  -2 -0.1062 1.28201   6
  11   0   2 2.11566 0.91912   4
  11   0   2 1.26094 1.02629   3
  10  -1  -2 4.05609 1.13343   4
  10  -1  -2 2.47576 0.92414   3
 -10   1   2 3.00680 1.06719   1
 -10   1   2 2.76451 0.99373   6
   9  -1  -2 61.8734 2.93307   3
   9  -1  -2 58.5372 2.89760   4
  -9   1   2 59.3447 2.86356   6
  -9   1   2 60.8650 2.99175   1
   8  -1  -2 35.3481 2.05889   3
   8  -1  -2 34.4089 2.07851   4
  -8   1   2 38.0644 2.10946   6
  -8   1   2 37.9947 2.13769   1
   7  -1  -2 4.41416 0.83692   4
   7  -1  -2 2.85692 0.67226   3
  -7   1   2 3.92351 0.78729   6
  -7   1   2 4.50185 0.89197   1
   6  -1  -2 72.6447 2.80452   3
   6  -1  -2 74.1077 2.86428   4
  -6   1   2 74.7286 2.89797   1
  -6   1   2 75.3334 2.83486   6
   5  -1  -2 5.06717 0.66344   3
   5  -1  -2 4.51822 0.62872   4
  -5   1   2 6.93840 0.80119   1
  -5   1   2 3.90785 0.57718   6
   4  -1  -2 44.6230 1.76309   4
   4  -1  -2 43.3192 1.73134   3
  -4   1   2 42.8757 1.78070   1
  -4   1   2 47.2323 1.77538   6
   3  -1  -2 4.24712 0.53007   4
   3  -1  -2 3.85033 0.52203   3
  -3   1   2 3.68469 0.50930   1
  -3   1   2 4.17842 0.53064   6
   2  -1  -2 20.5525 0.61696   5
   2  -1  -2 19.2661 0.84398   3
   2  -1  -2 19.0950 0.85406   4
  -2   1   2 21.4588 0.62926   2
  -2   1   2 18.9869 0.86830   1
  -2   1   2 20.8282 0.85957   6
   1  -1  -2 592.261 14.6707   3
   1  -1  -2 471.424 14.5269   5
   1  -1  -2 514.388 14.6337   4
  -1   1   2 569.691 14.6785   6
  -1   1   2 546.525 14.6475   1
  -1   1   2 595.644 14.5596   2
   0  -1  -2 5153.03 128.942   5
   0  -1  -2 4550.94 128.907   3
   0   1   2 4514.65 128.942   6
   0   1   2 5236.30 128.989   2
  -1  -1  -2 7.14780 0.23832   4
  -1  -1  -2 5.77357 0.36712   3
  -1  -1  -2 6.08894 0.39780   5
   1   1   2 6.26409 0.24026   1
   1   1   2 6.21432 0.38849   6
  -2  -1  -2 34.5355 1.21813   5
  -2  -1  -2 38.2411 1.12585   1
   2   1   2 36.5027 1.25240   6
   2   1   2 34.8581 1.22430   2
  -3  -1  -2 419.669 10.7369   1
  -3  -1  -2 406.620 10.7586   5
   3   1   2 406.172 10.7704   2
   3   1   2 381.793 10.8347   6
   3   1   2 393.463 10.7990   3
   3   1   2 371.409 10.6969   4
  -4  -1  -2 2.02685 0.29107   5
   4   1   2 2.22784 0.40939   6
   4   1   2 1.98095 0.34609   4
   4   1   2 2.78944 0.36803   2
   4   1   2 1.99039 0.35254   3
  -5  -1  -2 158.558 4.89039   1
  -5  -1  -2 171.547 4.76524   5
   5   1   2 161.549 4.96525   3
   5   1   2 168.151 5.05374   6
   5   1   2 165.687 4.75505   2
   5   1   2 167.174 4.92155   4
  -6  -1  -2 0.64265 0.28071   5
  -6  -1  -2 1.65034 0.44553   1
   6   1   2 1.45774 0.51082   6
   6   1   2 3.19047 0.40743   2
   6   1   2 1.56768 0.42900   4
   6   1   2 1.64956 0.47597   3
  -7  -1  -2 31.4482 1.61216   1
  -7  -1  -2 29.8421 1.73248   6
   7   1   2 30.6717 1.62735   3
   7   1   2 31.3717 1.61656   4
  -8  -1  -2 40.6065 1.99979   1
  -8  -1  -2 37.4945 2.06801   6
   8   1   2 38.5874 2.01461   3
   8   1   2 44.0379 2.05656   4
  -9  -1  -2 5.54017 1.03605   6
  -9  -1  -2 4.08926 0.84317   1
   9   1   2 5.43494 0.97635   3
   9   1   2 5.35920 0.92442   4
 -10  -1  -2 12.5244 1.41672   1
 -10  -1  -2 8.37703 1.25292   6
  10   1   2 12.6525 1.44677   3
  10   1   2 12.0611 1.37578   4
 -11  -1  -2 6.27470 1.16943   1
 -11  -1  -2 3.63942 1.10051   6
  11   1   2 6.05110 1.12743   4
  11   1   2 3.40967 1.05292   3
  10  -2  -2 2.04138 0.90458   3
  10  -2  -2 3.88918 1.12755   4
 -10   2   2 3.05216 1.05598   6
 -10   2   2 2.55810 1.05642   1
   9  -2  -2 16.9981 1.64985   3
   9  -2  -2 17.8452 1.84857   4
  -9   2   2 17.7546 1.76138   1
  -9   2   2 18.5465 1.73806   6
   8  -2  -2 14.9404 1.48171   4
   8  -2  -2 10.8124 1.23480   3
  -8   2   2 13.2067 1.44263   1
  -8   2   2 13.3423 1.40947   6
   7  -2  -2 6.23052 0.92284   3
   7  -2  -2 5.99658 0.92954   4
  -7   2   2 9.79106 1.17035   1
  -7   2   2 4.71571 0.80674   6
   6  -2  -2 24.3766 1.51204   4
   6  -2  -2 24.5036 1.47328   3
  -6   2   2 23.6563 1.52679   1
  -6   2   2 24.6687 1.49192   6
   5  -2  -2 103.263 3.53851   3
  -5   2   2 105.127 3.54958   6
  -5   2   2 106.450 3.62466   1
   4  -2  -2 111.710 3.47338   4
   4  -2  -2 105.405 3.40335   3
  -4   2   2 96.4644 3.40163   1
   3  -2  -2 847.019 21.8046   4
   3  -2  -2 800.841 21.7252   3
  -3   2   2 810.592 21.7356   6
  -3   2   2 769.913 21.7627   1
   2  -2  -2 23.8061 0.98972   3
   2  -2  -2 24.0825 0.77836   5
   2  -2  -2 22.2455 0.99501   4
  -2   2   2 22.7063 1.00811   1
  -2   2   2 22.4603 0.75792   2
   1  -2  -2 1786.43 46.2050   4
   1  -2  -2 1674.89 45.5654   3
  -1   2   2 1719.03 45.8716   2
  -1   2   2 1637.50 45.9513   1
  -1   2   2 1752.16 46.2900   6
  -1   2   2 1781.50 46.0487   5
   0  -2  -2 177.732 4.80267   4
   0  -2  -2 180.469 4.86178   3
   0   2   2 165.213 4.84595   2
   0   2   2 176.996 4.88947   6
   0   2   2 172.603 4.79399   1
   0   2   2 176.968 4.82418   5
  -1  -2  -2 0.74502 0.23062   3
  -1  -2  -2 1.45137 0.16322   4
   1   2   2 0.82768 0.27445   2
   1   2   2 1.62764 0.30679   6
   1   2   2 1.45070 0.19849   1
  -2  -2  -2 76.4720 2.29341   3
   2   2   2 77.5716 2.32489   5
   2   2   2 78.4084 2.19600   1
   2   2   2 75.6628 2.36342   2
   2   2   2 72.8019 2.18265   4
   2   2   2 78.3205 2.33457   6
   3   2   2 186.290 5.07911   1
   3   2   2 186.413 5.13635   5
   3   2   2 178.736 5.14375   3
   3   2   2 175.054 5.17320   2
   3   2   2 184.345 5.21210   6
  -4  -2  -2 316.632 8.63362   1
  -4  -2  -2 314.144 8.66489   5
   4   2   2 325.045 8.62989   4
   4   2   2 302.697 8.64315   2
   4   2   2 304.684 8.75193   6
   4   2   2 312.364 8.70126   3
  -5  -2  -2 19.6615 0.95184   1
  -5  -2  -2 19.1882 0.91431   5
   5   2   2 20.0592 0.96520   2
   5   2   2 17.9202 1.07342   6
   5   2   2 20.4792 1.01314   4
   5   2   2 19.2102 1.04496   3
  -6  -2  -2 650.143 18.4493   1
  -6  -2  -2 695.918 18.3276   5
   6   2   2 680.422 18.2853   2
   6   2   2 675.733 18.4709   4
   6   2   2 667.056 18.5291   3
   6   2   2 690.791 18.6439   6
  -7  -2  -2 62.9219 2.68968   5
  -7  -2  -2 57.8072 2.32560   1
   7   2   2 60.8425 2.36589   4
   7   2   2 55.9688 2.36822   3
   7   2   2 57.5413 2.51283   2
  -8  -2  -2 46.2525 2.17383   1
  -8  -2  -2 49.8547 2.38050   6
   8   2   2 48.8097 2.25471   3
   8   2   2 48.9545 2.23562   4
  -9  -2  -2 0.55095 0.70816   6
  -9  -2  -2 -0.1472 0.48558   1
   9   2   2 -0.4326 0.56856   3
   9   2   2 0.85448 0.60620   4
 -10  -2  -2 15.9259 1.62450   6
 -10  -2  -2 17.5243 1.53249   1
  10   2   2 15.2153 1.49597   4
  10   2   2 16.8982 1.57902   3
 -11  -2  -2 0.23017 0.76858   6
 -11  -2  -2 1.36740 0.74392   1
  11   2   2 -0.2049 0.78443   3
  11   2   2 1.27449 0.81543   4
  10  -3  -2 2.75459 1.71770   4
 -10   3   2 0.98200 1.14070   1
   9  -3  -2 8.06217 1.19896   3
   9  -3  -2 8.20046 1.35009   4
  -9   3   2 7.70578 1.29162   6
  -9   3   2 7.90706 1.29973   1
   8  -3  -2 32.6902 2.06204   3
   8  -3  -2 33.0582 2.16926   4
  -8   3   2 34.1845 2.11334   6
  -8   3   2 35.5718 2.21255   1
   7  -3  -2 174.544 5.87699   4
   7  -3  -2 176.510 5.83634   3
  -7   3   2 175.494 5.82064   6
  -7   3   2 179.848 5.94367   1
   6  -3  -2 110.178 3.95946   4
   6  -3  -2 109.420 3.87644   3
  -6   3   2 104.467 3.88822   1
  -6   3   2 111.073 3.85955   6
   5  -3  -2 28.8882 1.56304   4
   5  -3  -2 28.5042 1.50513   3
  -5   3   2 28.0779 1.57343   1
  -5   3   2 28.5433 1.47999   6
   4  -3  -2 549.752 14.6111   4
   4  -3  -2 475.118 14.4343   3
  -4   3   2 537.909 14.5943   1
  -4   3   2 534.310 14.5082   6
   3  -3  -2 60.4124 1.69084   5
   3  -3  -2 53.8872 2.02857   3
   3  -3  -2 55.6127 2.09966   4
   3  -3  -2 61.0170 1.67227   2
  -3   3   2 52.6804 2.01886   6
  -3   3   2 54.4893 2.08668   1
   2  -3  -2 3.38725 0.44624   4
   2  -3  -2 2.84252 0.38615   3
  -2   3   2 3.27552 0.46281   1
  -2   3   2 4.41422 0.31454   5
  -2   3   2 4.04361 0.33214   2
  -2   3   2 3.23563 0.42128   6
   1  -3  -2 627.079 17.0013   4
   1  -3  -2 627.269 16.9385   3
  -1   3   2 615.869 16.9737   6
  -1   3   2 635.518 16.8793   2
  -1   3   2 663.750 16.8488   5
  -1   3   2 620.271 16.9792   1
   0  -3  -2 3.78182 0.35482   3
   0  -3  -2 3.75369 0.35156   4
   0   3   2 4.03175 0.35257   5
   0   3   2 4.16182 0.38009   2
   0   3   2 4.34460 0.41736   6
   0   3   2 4.13181 0.34799   1
  -1  -3  -2 49.5300 1.67716   3
  -1  -3  -2 56.0929 1.65615   4
   1   3   2 55.5587 1.66554   1
   1   3   2 53.6205 1.71726   6
   1   3   2 52.8829 1.73013   5
   1   3   2 51.6490 1.77631   2
  -2  -3  -2 3552.23 86.3663   3
  -2  -3  -2 3320.20 85.8031   4
   2   3   2 2767.35 85.2071   2
   2   3   2 3194.46 86.1223   6
   2   3   2 3251.73 86.0583   5
  -3  -3  -2 50.2939 1.67994   3
   3   3   2 49.0843 1.72428   6
   3   3   2 50.6169 1.79212   2
   3   3   2 50.7739 1.64139   1
   4   3   2 313.989 8.67558   5
   4   3   2 299.984 8.72701   6
   4   3   2 323.195 8.64848   1
   4   3   2 303.532 8.71687   2
   4   3   2 313.976 8.67388   3
   4   3   2 317.700 8.61659   4
   5   3   2 180.477 5.27519   1
   5   3   2 188.495 5.27076   4
   5   3   2 174.766 5.30101   3
   5   3   2 180.160 5.22130   5
   5   3   2 178.695 5.39420   6
   5   3   2 175.598 5.28188   2
  -6  -3  -2 7.23802 0.65093   1
  -6  -3  -2 7.20897 0.62084   5
   6   3   2 6.10821 0.72061   6
   6   3   2 8.10490 0.72696   4
   6   3   2 7.44839 0.73420   2
   6   3   2 6.49985 0.70918   3
  -7  -3  -2 206.719 5.97527   5
  -7  -3  -2 201.879 6.12364   1
   7   3   2 203.849 6.17123   3
   7   3   2 189.069 6.19946   6
   7   3   2 202.040 5.94128   2
   7   3   2 201.809 6.08227   4
  -8  -3  -2 21.8167 1.56975   6
  -8  -3  -2 23.8813 1.45587   1
   8   3   2 22.3283 1.40870   4
   8   3   2 23.9915 1.52069   3
  -9  -3  -2 13.6448 1.40962   6
  -9  -3  -2 12.4484 1.23192   1
   9   3   2 13.8628 1.36576   3
   9   3   2 12.5519 1.26440   4
 -10  -3  -2 -0.5101 0.62594   6
 -10  -3  -2 -0.6415 0.58167   1
  10   3   2 -0.3554 0.57893   4
  10   3   2 -0.3820 0.64875   3
 -11  -3  -2 20.4724 1.87220   6
  11   3   2 21.4673 1.85538   3
   9  -4  -2 10.6487 1.50739   4
   9  -4  -2 8.76381 1.31560   3
  -9   4   2 13.6763 1.69349   6
  -9   4   2 12.6088 1.69877   1
   8  -4  -2 69.4291 3.25874   4
   8  -4  -2 67.8640 3.14530   3
  -8   4   2 68.7199 3.27736   1
  -8   4   2 70.5116 3.19642   6
   7  -4  -2 45.9980 2.38158   4
   7  -4  -2 40.2109 2.22755   3
  -7   4   2 37.0727 2.10857   6
  -7   4   2 42.4444 2.34834   1
   6  -4  -2 412.294 11.9258   4
   6  -4  -2 402.140 11.8017   3
  -6   4   2 405.699 11.9276   1
  -6   4   2 405.883 11.7822   6
   5  -4  -2 8.71185 0.93601   3
   5  -4  -2 6.76970 0.86989   4
  -5   4   2 8.93566 1.05384   1
  -5   4   2 10.0811 1.03527   6
   4  -4  -2 447.768 12.6605   3
   4  -4  -2 440.263 12.7597   4
  -4   4   2 463.857 12.6854   6
  -4   4   2 455.685 12.7839   1
   3  -4  -2 141.882 4.63336   4
   3  -4  -2 154.999 4.19085   2
   3  -4  -2 149.682 4.54908   3
  -3   4   2 145.070 4.53307   6
  -3   4   2 151.860 4.15705   5
  -3   4   2 147.169 4.63907   1
   2  -4  -2 1275.23 33.6558   4
   2  -4  -2 1284.20 33.5240   3
  -2   4   2 1152.75 33.5769   1
  -2   4   2 1296.10 33.2947   5
  -2   4   2 1275.18 33.5510   6
   1  -4  -2 1919.57 50.3233   4
   1  -4  -2 1904.24 50.3985   3
  -1   4   2 1860.65 50.1873   2
  -1   4   2 1874.22 50.3039   1
  -1   4   2 1948.94 50.7763   6
  -1   4   2 1875.17 50.1331   5
   0  -4  -2 0.93880 0.24298   3
   0  -4  -2 1.01251 0.26588   4
   0   4   2 0.77681 0.25548   1
   0   4   2 0.71047 0.22520   5
   0   4   2 0.60038 0.24737   2
   0   4   2 0.76084 0.27896   6
  -1  -4  -2 1028.09 27.0058   3
  -1  -4  -2 1038.61 27.0358   4
   1   4   2 1043.44 27.0431   1
   1   4   2 983.331 27.0731   5
   1   4   2 966.370 27.1355   2
   1   4   2 1031.12 27.0493   6
  -2  -4  -2 59.1195 1.85385   4
  -2  -4  -2 55.2694 1.83471   3
   2   4   2 55.4681 2.00487   2
   2   4   2 54.6589 1.93304   5
   2   4   2 57.9814 1.85630   1
   2   4   2 57.4954 1.88072   6
  -3  -4  -2 414.628 11.3997   3
  -3  -4  -2 439.354 11.4149   4
   3   4   2 406.398 11.4364   6
   3   4   2 394.074 11.5697   2
   3   4   2 424.490 11.4036   1
   3   4   2 432.474 11.5455   5
  -4  -4  -2 214.972 6.43029   3
   4   4   2 230.133 6.45691   1
   4   4   2 231.668 6.63253   2
   4   4   2 234.693 6.54538   6
   4   4   2 226.540 6.53672   5
   5   4   2 1239.22 32.8767   5
   5   4   2 1284.10 32.8820   1
   5   4   2 1208.01 32.9472   2
   5   4   2 1184.89 32.9273   6
   5   4   2 1230.54 32.8435   3
   5   4   2 1225.84 32.8041   4
   6   4   2 61.3882 2.27609   3
   6   4   2 63.0276 2.22651   5
   6   4   2 59.9027 2.36211   6
   6   4   2 59.9375 2.29632   2
   6   4   2 61.7359 2.23076   4
   6   4   2 60.4788 2.27018   1
  -7  -4  -2 18.4006 1.14168   1
  -7  -4  -2 19.8093 1.14661   5
   7   4   2 21.3480 1.26209   2
   7   4   2 20.0018 1.23515   4
   7   4   2 24.9052 1.35620   3
   7   4   2 22.9184 1.39738   6
  -8  -4  -2 219.755 6.68978   1
   8   4   2 214.532 6.63119   4
   8   4   2 214.014 6.68045   3
  -9  -4  -2 0.77299 0.58858   1
  -9  -4  -2 1.22200 0.67805   6
   9   4   2 0.20788 0.58274   3
   9   4   2 0.85005 0.59017   4
 -10  -4  -2 91.6777 3.75034   6
 -10  -4  -2 83.9472 4.03218   1
  10   4   2 86.7630 3.55045   3
 -11  -4  -2 1.11964 0.83943   6
  11   4   2 1.40686 0.83548   3
   9  -5  -2 1.22790 0.93390   4
   9  -5  -2 -0.0439 0.78475   3
  -9   5   2 0.59853 0.91134   6
  -9   5   2 0.83947 0.89741   1
   8  -5  -2 14.9266 1.67645   4
   8  -5  -2 16.7155 1.65901   3
  -8   5   2 16.5967 1.85053   1
  -8   5   2 17.7719 1.76191   6
   7  -5  -2 229.839 7.49999   3
   7  -5  -2 252.856 7.76061   4
  -7   5   2 224.344 7.60916   1
  -7   5   2 231.754 7.48939   6
   6  -5  -2 0.38416 0.54605   3
   6  -5  -2 0.06575 0.56686   4
  -6   5   2 -0.0068 0.54643   6
  -6   5   2 1.00780 0.69836   1
   5  -5  -2 654.378 17.8191   3
   5  -5  -2 604.074 17.8992   4
  -5   5   2 653.479 17.8254   6
  -5   5   2 642.945 17.9599   1
   4  -5  -2 197.917 6.45596   4
   4  -5  -2 212.535 6.35130   3
  -4   5   2 207.861 6.34995   6
  -4   5   2 217.661 6.52463   1
   3  -5  -2 174.197 4.65606   2
   3  -5  -2 162.573 5.11031   4
   3  -5  -2 157.299 4.93103   3
  -3   5   2 161.790 4.58392   5
  -3   5   2 159.006 5.08706   1
  -3   5   2 154.191 4.94682   6
   2  -5  -2 363.803 10.2226   4
   2  -5  -2 359.784 10.0357   3
   2  -5  -2 359.908 9.87824   2
  -2   5   2 368.693 9.85974   5
  -2   5   2 354.323 10.1855   1
  -2   5   2 353.975 10.0819   6
   1  -5  -2 59.0814 2.14948   4
   1  -5  -2 60.4607 2.02009   3
  -1   5   2 58.5106 2.14457   1
  -1   5   2 58.0022 1.97022   5
  -1   5   2 59.9878 2.08293   6
  -1   5   2 58.9083 2.04306   2
   0  -5  -2 9.54612 0.69597   4
   0  -5  -2 8.90770 0.59624   3
   0   5   2 9.47610 0.70071   2
   0   5   2 9.14033 0.65364   5
   0   5   2 9.14687 0.66271   6
   0   5   2 9.18192 0.70768   1
  -1  -5  -2 268.020 7.65513   4
  -1  -5  -2 276.451 7.56398   3
   1   5   2 272.205 7.69403   5
   1   5   2 268.686 7.77256   2
   1   5   2 276.197 7.61970   6
   1   5   2 275.441 7.67261   1
  -2  -5  -2 1074.98 29.3777   4
  -2  -5  -2 1155.49 29.3369   3
   2   5   2 1133.67 29.4028   1
   2   5   2 1126.10 29.4979   5
   2   5   2 1022.55 29.3193   6
   2   5   2 1093.61 29.5825   2
  -3  -5  -2 50.6553 1.73005   3
  -3  -5  -2 50.8276 1.78419   4
   3   5   2 49.0580 1.78749   1
   3   5   2 50.4089 1.98132   2
   3   5   2 49.0359 1.89562   5
   3   5   2 48.8999 1.77136   6
  -4  -5  -2 1500.35 38.6022   3
  -4  -5  -2 1474.80 38.6405   4
   4   5   2 1438.60 38.6378   1
   4   5   2 1450.23 38.7653   5
   4   5   2 1388.30 38.8352   2
   4   5   2 1451.74 38.6662   6
  -5  -5  -2 12.1434 0.78358   3
  -5  -5  -2 10.8855 0.74844   4
   5   5   2 11.1834 0.96523   2
   5   5   2 13.4238 0.87670   1
   5   5   2 10.5614 0.87432   5
   5   5   2 11.6289 0.89643   6
   6   5   2 206.681 6.26820   5
   6   5   2 218.115 6.35177   6
   6   5   2 212.457 6.29374   1
   6   5   2 207.683 6.35827   2
   6   5   2 205.860 6.17855   4
   7   5   2 196.968 5.92130   4
   7   5   2 188.985 5.85690   5
   7   5   2 192.080 5.98135   2
   7   5   2 194.538 6.05803   6
   7   5   2 198.411 5.98343   1
   7   5   2 192.529 5.90904   3
  -8  -5  -2 4.18397 0.65673   5
  -8  -5  -2 6.90806 0.84802   1
   8   5   2 4.71399 0.76527   4
   8   5   2 5.84709 0.83321   3
   8   5   2 4.62405 0.75520   2
  -9  -5  -2 160.663 5.49915   6
  -9  -5  -2 154.984 5.30510   1
   9   5   2 162.072 5.30445   3
   9   5   2 159.234 5.27056   4
 -10  -5  -2 68.7248 3.13682   6
  10   5   2 67.3725 3.01567   3
 -11  -5  -2 10.7178 1.41133   6
  11   5   2 9.83040 1.28811   3
   8  -6  -2 124.813 4.79858   3
   8  -6  -2 129.908 5.02997   4
  -8   6   2 123.251 4.79894   6
  -8   6   2 121.180 4.98017   1
   7  -6  -2 34.3425 2.15944   3
   7  -6  -2 34.6390 2.34269   4
  -7   6   2 38.8067 2.42896   1
  -7   6   2 37.9066 2.23645   6
   6  -6  -2 1.19582 0.76588   4
   6  -6  -2 2.07784 0.68789   3
  -6   6   2 1.72031 0.71431   6
  -6   6   2 3.20614 0.89084   1
   5  -6  -2 7.81787 1.11109   4
   5  -6  -2 4.96942 0.83178   3
  -5   6   2 5.84776 1.01311   1
  -5   6   2 5.37979 0.90588   6
   4  -6  -2 231.115 7.02241   3
   4  -6  -2 232.390 7.26427   4
  -4   6   2 232.341 7.22983   1
  -4   6   2 236.639 7.08286   6
   3  -6  -2 25.8514 1.50642   4
   3  -6  -2 27.9103 1.19636   2
   3  -6  -2 27.2278 1.38949   3
  -3   6   2 26.3627 1.13411   5
  -3   6   2 27.2752 1.46526   6
  -3   6   2 26.2370 1.53972   1
   2  -6  -2 791.265 23.7627   4
   2  -6  -2 889.559 23.4886   2
   2  -6  -2 895.354 23.5988   3
  -2   6   2 877.829 23.8313   1
  -2   6   2 884.725 23.6740   6
  -2   6   2 903.516 23.4577   5
   1  -6  -2 7.00813 0.76406   4
   1  -6  -2 5.89972 0.58781   3
  -1   6   2 5.95461 0.63906   6
  -1   6   2 6.17055 0.59852   5
  -1   6   2 5.29750 0.65935   1
   0  -6  -2 146.048 4.18977   3
   0  -6  -2 147.625 4.42438   4
   0   6   2 140.375 4.39737   1
   0   6   2 141.705 4.28820   6
   0   6   2 138.175 4.38366   2
   0   6   2 138.787 4.29767   5
  -1  -6  -2 1177.01 31.8410   3
  -1  -6  -2 1195.05 32.0462   4
   1   6   2 1198.41 32.0593   1
   1   6   2 1210.85 32.1663   2
   1   6   2 1202.69 32.0607   5
  -2  -6  -2 0.52889 0.30389   3
  -2  -6  -2 0.21113 0.33018   4
   2   6   2 0.32429 0.33945   5
   2   6   2 0.41905 0.40054   2
   2   6   2 0.36977 0.34094   1
  -3  -6  -2 596.967 15.9913   3
  -3  -6  -2 609.203 16.1437   4
   3   6   2 577.775 16.3352   2
   3   6   2 585.883 16.2410   5
   3   6   2 581.750 16.1283   1
  -4  -6  -2 5.09111 0.58612   4
  -4  -6  -2 5.15418 0.53556   3
   4   6   2 5.58344 0.63514   1
   4   6   2 4.77985 0.67546   5
   4   6   2 5.71886 0.61557   6
   4   6   2 3.90825 0.65666   2
  -5  -6  -2 6.37002 0.62525   4
  -5  -6  -2 5.91110 0.58177   3
   5   6   2 4.65343 0.62125   6
   5   6   2 7.69445 0.78721   1
   5   6   2 5.85001 0.73766   5
   5   6   2 4.98638 0.71342   2
  -6  -6  -2 250.214 7.22223   4
  -6  -6  -2 241.066 7.12369   3
   6   6   2 250.952 7.27869   6
   6   6   2 236.401 7.38861   2
   6   6   2 247.871 7.34859   5
   6   6   2 245.602 7.26330   1
  -7  -6  -2 494.595 13.4786   4
  -7  -6  -2 468.399 13.3629   3
   7   6   2 476.670 13.4874   5
   7   6   2 477.228 13.5936   2
   7   6   2 474.883 13.5044   6
   7   6   2 474.588 13.4768   1
  -8  -6  -2 31.4015 1.60597   3
   8   6   2 30.8256 1.75303   6
   8   6   2 31.4492 1.74519   2
  -9  -6  -2 17.6793 1.45864   6
   8  -7  -2 19.6132 1.90107   3
  -8   7   2 15.9989 1.75565   6
   7  -7  -2 52.7768 2.67519   3
   7  -7  -2 49.2219 2.89269   4
  -7   7   2 55.1237 2.78960   6
  -7   7   2 51.9546 2.90453   1
   6  -7  -2 87.3541 3.76169   4
   6  -7  -2 88.8960 3.53009   3
  -6   7   2 89.5392 3.80245   1
  -6   7   2 84.7260 3.52987   6
   5  -7  -2 350.840 10.4849   3
   5  -7  -2 354.551 10.7781   4
  -5   7   2 360.810 10.5616   6
  -5   7   2 360.133 10.8064   1
   4  -7  -2 7.77887 0.93243   3
   4  -7  -2 7.58354 1.09255   4
  -4   7   2 9.44895 1.16390   1
  -4   7   2 10.6248 1.12211   6
   3  -7  -2 195.663 6.17939   4
   3  -7  -2 188.212 5.84045   3
  -3   7   2 191.245 6.13016   1
  -3   7   2 188.645 5.91302   6
   2  -7  -2 88.1400 2.93220   2
   2  -7  -2 87.2971 3.25840   4
   2  -7  -2 86.1607 2.95995   3
  -2   7   2 83.5636 3.22183   1
  -2   7   2 87.3078 2.89449   5
  -2   7   2 89.2192 3.07536   6
   1  -7  -2 18.0761 1.08735   2
   1  -7  -2 18.6739 1.02475   3
   1  -7  -2 19.5840 1.27454   4
  -1   7   2 20.1502 1.14715   6
  -1   7   2 17.9431 1.08161   5
  -1   7   2 20.5962 1.28232   1
   0  -7  -2 390.637 10.8154   4
   0  -7  -2 380.921 10.4651   3
   0   7   2 386.220 10.6903   5
   0   7   2 382.160 10.7977   1
   0   7   2 359.188 10.5578   6
  -1  -7  -2 491.325 13.7985   4
  -1  -7  -2 519.569 13.5280   3
   1   7   2 476.849 13.7701   5
   1   7   2 504.182 13.8260   1
   1   7   2 490.727 13.8995   2
  -2  -7  -2 4.32383 0.51038   3
  -2  -7  -2 4.32409 0.61559   4
   2   7   2 4.07897 0.63208   5
   2   7   2 3.57356 0.57450   1
   2   7   2 4.38015 0.70525   2
   2   7   2 3.65185 0.49086   6
  -3  -7  -2 210.154 6.08409   3
  -3  -7  -2 211.364 6.30256   4
   3   7   2 211.194 6.41514   5
   3   7   2 210.780 6.53080   2
   3   7   2 215.325 6.31551   1
  -4  -7  -2 541.409 14.9121   4
  -4  -7  -2 544.012 14.7103   3
   4   7   2 534.115 15.0560   5
   4   7   2 541.782 14.9264   1
   4   7   2 530.541 15.1730   2
  -5  -7  -2 48.8391 1.97457   4
  -5  -7  -2 48.2462 1.80817   3
   5   7   2 46.6936 2.08946   5
   5   7   2 43.3843 2.14781   2
   5   7   2 44.1482 1.92852   1
  -6  -7  -2 611.914 18.0740   3
  -6  -7  -2 647.361 17.6106   4
   6   7   2 642.001 17.6621   1
   6   7   2 618.666 17.8394   2
   6   7   2 672.759 18.6633   6
   6   7   2 630.174 17.7570   5
  -7  -7  -2 2.48483 0.57924   4
   7   7   2 3.13843 0.76826   2
   7   7   2 3.31117 0.69915   1
   7   7   2 1.99560 0.63478   5
   8   7   2 238.242 7.32637   5
   7  -8  -2 19.1964 1.70138   3
   7  -8  -2 16.5730 1.82776   4
  -7   8   2 19.4461 2.03651   1
  -7   8   2 17.2200 1.77323   6
   6  -8  -2 22.9928 1.99093   4
   6  -8  -2 21.6940 1.67764   3
  -6   8   2 23.7702 2.02957   1
  -6   8   2 21.3353 1.84992   6
   5  -8  -2 28.2451 2.01872   4
   5  -8  -2 25.1457 1.72853   3
  -5   8   2 25.0060 1.79313   6
  -5   8   2 27.4555 2.02621   1
   4  -8  -2 0.69111 0.69176   4
   4  -8  -2 0.41652 0.50419   3
  -4   8   2 1.73095 0.77981   1
  -4   8   2 1.07287 0.62476   6
   3  -8  -2 8.51039 1.15235   4
   3  -8  -2 7.40788 0.86689   3
  -3   8   2 7.76806 1.14278   1
  -3   8   2 7.22483 0.95837   6
   2  -8  -2 0.22495 0.37768   2
   2  -8  -2 0.44316 0.40133   3
   2  -8  -2 0.43643 0.59997   4
  -2   8   2 1.45666 0.64086   1
  -2   8   2 0.37814 0.47043   6
  -2   8   2 0.91649 0.44573   5
   1  -8  -2 14.1974 1.24698   4
   1  -8  -2 15.1544 0.98137   3
   1  -8  -2 15.3341 1.08284   2
  -1   8   2 14.9065 1.08044   6
  -1   8   2 16.1723 1.07932   5
  -1   8   2 14.3906 1.19669   1
   0  -8  -2 535.065 14.2966   3
   0  -8  -2 529.170 14.7191   4
   0  -8  -2 522.854 14.5904   2
   0   8   2 508.973 14.6634   1
   0   8   2 515.479 14.5445   5
  -1  -8  -2 0.00248 0.43268   4
  -1  -8  -2 0.61188 0.44610   2
   1   8   2 0.82144 0.48646   1
   1   8   2 0.08440 0.42174   5
  -2  -8  -2 14.2430 1.11853   4
   2   8   2 13.0293 1.11293   5
   2   8   2 13.9884 1.09528   1
  -3  -8  -2 672.221 18.0631   4
   3   8   2 653.026 18.0442   1
   3   8   2 653.268 18.1696   5
   3   8   2 635.752 18.2711   2
  -4  -8  -2 0.34703 0.44549   4
   4   8   2 -0.0721 0.50577   2
   4   8   2 -0.4098 0.45739   5
   4   8   2 -0.4006 0.36636   1
  -5  -8  -2 202.955 6.20559   4
   5   8   2 196.674 6.46465   2
   5   8   2 198.697 6.34355   5
   5   8   2 206.148 6.24980   1
  -6  -8  -2 1.17414 0.55263   4
   6   8   2 2.10182 0.69761   5
   6   8   2 1.52422 0.58499   1
  -7  -8  -2 1.06954 0.64329   2
   7   8   2 0.82264 0.59827   5
  -8  -8  -2 67.7997 3.00385   2
   8   8   2 68.7578 2.95476   5
   6  -9  -2 9.23609 1.45772   4
  -6   9   2 10.6781 1.61060   1
   5  -9  -2 43.1024 2.58720   4
  -5   9   2 39.7081 2.56306   1
   4  -9  -2 6.07861 1.17714   4
  -4   9   2 4.51441 1.06659   1
   3  -9  -2 125.344 4.64794   4
  -3   9   2 121.340 4.58767   1
   2  -9  -2 1.22192 0.58856   2
   2  -9  -2 1.31414 0.73999   4
  -2   9   2 0.56945 0.62193   1
   1  -9  -2 141.421 4.98288   4
   1  -9  -2 143.325 4.76993   2
  -1   9   2 153.572 4.79023   5
  -1   9   2 146.217 4.98660   1
   0  -9  -2 0.54176 0.54404   4
   0  -9  -2 0.27506 0.54509   2
   0   9   2 1.24333 0.56744   5
   0   9   2 1.05252 0.58664   1
  -1  -9  -2 12.7113 1.19375   2
  -1  -9  -2 11.2188 1.14739   4
   1   9   2 11.7136 1.12268   1
   1   9   2 12.2883 1.14309   5
  -2  -9  -2 179.704 5.53294   4
  -2  -9  -2 170.278 5.57778   2
   2   9   2 159.627 5.47682   5
   2   9   2 170.805 5.46337   1
  -3  -9  -2 287.368 8.78007   2
  -3  -9  -2 289.566 8.61752   4
   3   9   2 289.098 8.74209   5
   3   9   2 291.894 8.62446   1
  -4  -9  -2 37.1598 1.89670   4
  -4  -9  -2 35.3633 1.98406   2
   4   9   2 34.5606 1.89768   5
   4   9   2 34.6147 1.79712   1
  -5  -9  -2 71.0452 3.03893   2
  -5  -9  -2 74.7387 2.87976   4
   5   9   2 67.8241 2.81980   1
   5   9   2 66.5591 2.94606   5
  -6  -9  -2 82.1320 3.42409   2
   6   9   2 83.9378 3.40766   5
  -7  -9  -2 27.4443 1.87767   2
   7   9   2 25.0221 1.77157   5
  -8  -9  -2 124.763 4.71501   2
   8   9   2 129.066 4.71332   5
  -9  -9  -2 1.11787 0.75525   2
   5 -10  -2 16.2030 1.82093   4
  -5  10   2 14.9923 1.84617   1
   4 -10  -2 -0.0865 0.78918   4
  -4  10   2 1.00943 0.91017   1
   3 -10  -2 5.60649 1.10640   4
  -3  10   2 8.51252 1.28111   1
   2 -10  -2 5.76832 1.12168   4
  -2  10   2 4.70016 0.95949   1
   1 -10  -2 0.72256 0.60510   2
   1 -10  -2 0.75985 0.71590   4
  -1  10   2 8.31889 1.10785   1
  -1  10   2 1.11266 0.65318   5
   0 -10  -2 2.37440 0.74122   2
   0 -10  -2 4.63330 0.96990   4
   0  10   2 4.42801 0.84321   5
   0  10   2 6.56635 0.97796   1
  -1 -10  -2 -0.9819 0.55375   4
  -1 -10  -2 -0.1657 0.57918   2
   1  10   2 -0.2131 0.59083   5
   1  10   2 -0.6635 0.46487   1
  -2 -10  -2 306.273 9.09573   4
  -2 -10  -2 300.058 9.17168   2
   2  10   2 294.096 9.00868   1
   2  10   2 300.284 9.12099   5
  -3 -10  -2 1.44815 0.66710   4
  -3 -10  -2 1.59066 0.75337   2
   3  10   2 1.26764 0.63142   1
   3  10   2 0.98993 0.64305   5
  -4 -10  -2 6.55397 1.11881   2
  -4 -10  -2 10.5930 1.18486   4
   4  10   2 9.86850 1.10646   1
   4  10   2 6.69967 1.02249   5
  -5 -10  -2 88.8363 3.71192   2
   5  10   2 89.5982 3.63677   5
  -6 -10  -2 9.32085 1.28205   2
   6  10   2 9.60098 1.24229   5
  -7 -10  -2 29.6227 2.07725   2
   7  10   2 30.2004 2.04828   5
  -8 -10  -2 22.7660 1.89616   2
   8  10   2 21.8195 1.92119   5
   3 -11  -2 14.0367 1.67054   4
  -3  11   2 15.8167 1.72031   1
   2 -11  -2 9.11742 1.38649   4
  -2  11   2 7.83364 1.28728   1
   1 -11  -2 2.35377 0.91806   4
   1 -11  -2 -0.3411 0.54544   2
  -1  11   2 4.27549 0.97768   1
  -1  11   2 -0.5685 0.77486   5
   0 -11  -2 2.91369 0.79102   2
   0 -11  -2 3.88891 0.96656   4
   0  11   2 2.83178 0.85470   1
   0  11   2 2.79203 0.82377   5
  -1 -11  -2 55.8945 2.77258   2
  -1 -11  -2 59.4431 2.83679   4
   1  11   2 59.3817 2.72918   1
   1  11   2 63.2061 2.83494   5
  -2 -11  -2 3.22330 0.89065   4
  -2 -11  -2 2.80260 0.88241   2
   2  11   2 3.21147 0.82610   1
   2  11   2 5.07213 1.01681   5
  -3 -11  -2 14.1286 1.41724   4
  -3 -11  -2 12.8297 1.42465   2
   3  11   2 12.9728 1.41904   5
   3  11   2 14.5688 1.41712   1
  -4 -11  -2 0.61426 0.76593   2
   4  11   2 0.45022 0.70168   5
  -5 -11  -2 9.39966 1.33019   2
   5  11   2 9.93550 1.33475   5
  -6 -11  -2 1.73555 0.86120   2
   6  11   2 1.64790 0.85673   5
  -7 -11  -2 0.14589 0.94951   2
   2 -12  -2 -0.3468 0.82404   4
  -2  12   2 -0.0566 0.81813   1
   1 -12  -2 -0.5815 0.78046   4
  -1  12   2 1.58293 0.83343   1
   0 -12  -2 64.7961 3.01290   2
   0 -12  -2 65.6367 3.21366   4
   0  12   2 64.1843 2.96231   5
   0  12   2 63.0348 3.02328   1
  -1 -12  -2 26.4908 1.99498   4
  -1 -12  -2 21.9749 1.86426   2
   1  12   2 27.4359 2.00585   5
   1  12   2 24.4544 1.84030   1
  -2 -12  -2 5.61400 1.07971   2
  -2 -12  -2 4.90925 1.57008   4
   2  12   2 3.67447 0.99589   1
   2  12   2 4.58342 1.02140   5
  -3 -12  -2 4.97712 1.12901   2
   3  12   2 6.73916 1.15707   5
  -4 -12  -2 7.82631 1.33686   2
   4  12   2 6.44297 1.15736   5
   4  12  -3 78.9869 4.96729   1
   3  12  -3 20.8936 1.85549   1
  -3 -12   3 16.3629 1.80334   4
   2  12  -3 -0.5422 0.78366   1
   2  12  -3 -1.1913 0.69060   5
  -2 -12   3 0.16965 0.86238   4
  -2 -12   3 0.81249 0.90498   2
   1  12  -3 -0.3204 0.75797   1
   1  12  -3 -0.8018 0.69787   5
  -1 -12   3 -0.3891 0.79234   4
  -1 -12   3 -0.4922 0.76695   2
   0  12  -3 34.1260 2.40704   1
   0  12  -3 39.5801 2.31891   5
   0 -12   3 35.2663 2.32979   2
   0 -12   3 39.0360 2.59724   4
  -1  12  -3 13.2516 1.45227   5
   1 -12   3 14.9656 1.57361   2
   6  11  -3 247.855 7.94093   1
  -6 -11   3 206.479 8.34493   2
  -6 -11   3 234.498 7.80072   4
   5  11  -3 13.4517 1.56170   5
   5  11  -3 13.3115 1.61931   1
  -5 -11   3 15.4413 1.70040   4
  -5 -11   3 12.3630 1.51724   2
   4  11  -3 61.4180 3.06148   1
   4  11  -3 63.0952 3.02834   5
  -4 -11   3 65.0446 3.16216   2
  -4 -11   3 56.0956 2.99164   4
   3  11  -3 4.80978 1.02017   1
   3  11  -3 4.71686 0.99214   5
  -3 -11   3 4.61578 1.06448   2
  -3 -11   3 3.13545 0.95030   4
   2  11  -3 0.72217 0.79182   1
   2  11  -3 1.17935 0.72328   5
  -2 -11   3 2.09848 0.92513   2
  -2 -11   3 0.33461 0.76291   4
   1  11  -3 86.7317 3.75897   1
   1  11  -3 88.2056 3.62913   5
  -1 -11   3 89.3070 3.76436   2
  -1 -11   3 90.9167 3.88703   4
   0  11  -3 1.78353 0.75399   5
   0  11  -3 1.43627 0.86071   1
   0 -11   3 2.07353 0.99037   4
   0 -11   3 2.44789 0.84286   2
  -1  11  -3 49.8507 2.44518   5
  -1  11  -3 44.8192 2.65338   1
   1 -11   3 46.9827 2.70687   4
   1 -11   3 49.2063 2.58430   2
  -2  11  -3 6.65081 1.29787   1
  -2  11  -3 5.42597 1.11910   5
   2 -11   3 6.49346 1.34580   4
   2 -11   3 6.77991 1.07857   2
  -3  11  -3 6.62638 1.24064   1
   3 -11   3 4.89143 1.22715   4
  -8 -10   3 -0.4366 1.05955   2
   7  10  -3 356.788 11.1897   1
   7  10  -3 373.096 10.9878   5
  -7 -10   3 353.637 11.0282   4
  -7 -10   3 342.898 10.9048   2
   6  10  -3 1.04323 0.81659   1
   6  10  -3 2.07462 0.82300   5
  -6 -10   3 1.94443 0.83288   2
  -6 -10   3 0.43557 0.81150   4
   5  10  -3 65.9483 3.19735   1
   5  10  -3 73.4546 3.16136   5
  -5 -10   3 70.2968 3.24146   4
  -5 -10   3 74.8365 3.27195   2
   4  10  -3 49.9965 2.58446   1
   4  10  -3 47.5697 2.48313   5
  -4 -10   3 45.5907 2.51311   4
  -4 -10   3 48.8634 2.57263   2
   3  10  -3 93.0013 3.66471   5
  -3 -10   3 88.2650 3.68202   2
  -3 -10   3 92.3289 3.77997   4
   2  10  -3 26.6695 1.81456   5
   2  10  -3 23.7336 1.79788   1
  -2 -10   3 29.2859 1.92232   2
  -2 -10   3 25.3347 1.87404   4
   1  10  -3 280.389 8.46072   5
   1  10  -3 271.833 8.59387   1
  -1 -10   3 272.112 8.54074   2
  -1 -10   3 269.081 8.61406   4
   0  10  -3 0.25746 0.56016   5
   0  10  -3 0.07044 0.60245   1
   0 -10   3 -0.5500 0.67013   4
   0 -10   3 -0.3723 0.57469   2
  -1  10  -3 17.8247 1.47393   5
  -1  10  -3 19.1576 1.67761   1
   1 -10   3 18.2223 1.50833   2
   1 -10   3 16.7982 1.74742   4
  -2  10  -3 53.4098 2.79749   1
  -2  10  -3 54.8596 2.46059   5
   2 -10   3 52.3744 2.79816   4
   2 -10   3 50.7706 2.47427   2
  -3  10  -3 3.65278 1.01548   1
   3 -10   3 3.42223 1.07879   4
  -4  10  -3 40.5305 2.57340   1
   4 -10   3 39.8300 2.63427   4
  -5  10  -3 24.5793 3.30652   1
   5 -10   3 23.2410 2.89892   4
   8   9  -3 228.255 7.14445   5
   8   9  -3 210.957 7.39743   1
  -8  -9   3 206.745 7.23066   4
  -8  -9   3 208.678 7.07628   2
   7   9  -3 144.823 5.09189   5
   7   9  -3 135.502 5.30768   1
  -7  -9   3 147.282 5.28519   4
  -7  -9   3 142.643 5.07561   2
   6   9  -3 136.607 4.83172   5
   6   9  -3 135.656 5.01733   1
  -6  -9   3 133.361 4.85062   2
  -6  -9   3 131.235 4.90422   4
   5   9  -3 1.73010 0.72296   5
   5   9  -3 0.92243 0.68682   1
  -5  -9   3 1.83680 0.78800   4
  -5  -9   3 1.12516 0.71252   2
   4   9  -3 230.875 7.31720   5
   4   9  -3 228.715 7.44299   1
  -4  -9   3 234.699 7.46062   4
  -4  -9   3 238.143 7.44973   2
   3   9  -3 51.2726 2.41567   5
  -3  -9   3 50.4375 2.46384   2
  -3  -9   3 49.0751 2.46211   4
   2   9  -3 124.039 4.31155   5
   2   9  -3 118.563 4.38296   1
  -2  -9   3 122.552 4.37665   2
  -2  -9   3 120.622 4.43138   4
   1   9  -3 436.145 12.5736   5
   1   9  -3 437.845 12.7427   1
  -1  -9   3 420.567 12.7374   4
  -1  -9   3 449.600 12.7071   2
   0   9  -3 20.1420 1.55104   1
   0   9  -3 20.2634 1.42724   5
   0  -9   3 18.5985 1.59602   4
   0  -9   3 19.0943 1.49154   2
  -1   9  -3 136.048 4.54667   5
  -1   9  -3 131.767 4.81177   1
   1  -9   3 134.507 4.86206   4
   1  -9   3 134.346 4.63752   2
  -2   9  -3 25.3563 1.86365   1
  -2   9  -3 28.7227 1.64350   5
   2  -9   3 29.4734 1.70776   2
   2  -9   3 25.8015 1.90683   4
  -3   9  -3 20.3485 1.46875   5
  -3   9  -3 22.0065 1.78618   1
   3  -9   3 19.6428 1.46420   2
   3  -9   3 22.6562 1.84897   4
  -4   9  -3 6.04621 1.11700   1
   4  -9   3 5.73288 1.14742   4
  -5   9  -3 125.528 4.97987   1
   5  -9   3 127.345 5.09670   4
  -6   9  -3 54.8113 3.23536   1
   6  -9   3 55.9479 3.20262   4
   9   8  -3 147.469 5.59042   1
  -9  -8   3 135.788 5.32424   4
   8   8  -3 209.620 7.27717   1
  -8  -8   3 216.749 7.17937   4
   7   8  -3 269.727 8.11059   5
   7   8  -3 261.082 8.42101   1
  -7  -8   3 254.587 8.06992   2
  -7  -8   3 259.171 8.29724   4
   6   8  -3 1.84287 0.62651   5
   6   8  -3 1.65656 0.74581   1
  -6  -8   3 0.99181 0.74297   4
  -6  -8   3 1.36778 0.64088   2
   5   8  -3 618.323 17.9021   1
   5   8  -3 647.515 17.7803   5
  -5  -8   3 628.676 17.8743   4
  -5  -8   3 633.555 17.8169   2
   4   8  -3 31.6549 1.81151   1
   4   8  -3 27.5550 1.61978   5
  -4  -8   3 27.0794 1.70461   2
  -4  -8   3 28.7122 1.75461   4
   3   8  -3 119.350 4.06943   5
   3   8  -3 115.856 4.13059   1
  -3  -8   3 108.433 4.07864   4
  -3  -8   3 120.076 4.15313   2
   2   8  -3 5.67460 0.91895   1
   2   8  -3 4.24342 0.72635   5
  -2  -8   3 4.43160 0.85629   2
  -2  -8   3 4.39930 0.80019   4
   1   8  -3 333.270 9.90813   1
   1   8  -3 339.178 9.79704   5
  -1  -8   3 338.875 9.86041   2
  -1  -8   3 330.221 9.93264   4
   0   8  -3 50.2053 2.34891   1
   0   8  -3 49.9224 2.19703   5
   0  -8   3 53.2234 2.39543   4
   0  -8   3 52.4204 2.29885   2
  -1   8  -3 185.585 5.61201   5
  -1   8  -3 176.956 5.84665   1
   1  -8   3 172.973 5.82875   4
   1  -8   3 177.499 5.67446   2
  -2   8  -3 1.14068 0.52263   5
  -2   8  -3 0.78959 0.60057   1
   2  -8   3 1.44257 0.57582   2
   2  -8   3 1.38009 0.63792   4
  -3   8  -3 85.3005 3.02419   5
  -3   8  -3 86.5969 3.48470   1
   3  -8   3 78.9361 3.44621   4
   3  -8   3 83.5738 3.13104   2
  -4   8  -3 587.059 17.0275   1
   4  -8   3 596.344 17.1088   4
  -5   8  -3 62.7252 3.14516   1
   5  -8   3 69.2589 3.28270   4
  -6   8  -3 23.1709 2.06181   1
   6  -8   3 24.8180 2.11479   4
  -7   8  -3 -0.3726 0.90071   1
   7  -8   3 0.82425 0.99214   4
   9   7  -3 53.1754 2.96175   1
  -9  -7   3 52.2548 2.83491   4
   8   7  -3 79.3187 3.56594   1
  -8  -7   3 82.1932 3.50538   4
   7   7  -3 104.336 3.72960   5
   7   7  -3 101.757 4.05113   1
  -7  -7   3 99.5966 3.71805   2
  -7  -7   3 102.732 3.92690   4
   6   7  -3 175.893 5.61091   5
   6   7  -3 179.050 5.87638   1
  -6  -7   3 166.949 5.74587   4
  -6  -7   3 177.040 5.65184   2
   5   7  -3 133.940 4.59065   1
   5   7  -3 129.281 4.39037   5
  -5  -7   3 133.516 4.46624   2
  -5  -7   3 127.717 4.53148   4
   4   7  -3 414.531 12.0485   5
   4   7  -3 428.723 12.2222   1
  -4  -7   3 416.504 12.1818   4
  -4  -7   3 433.341 12.1541   2
   3   7  -3 23.4116 1.46205   1
   3   7  -3 25.3219 1.45650   5
  -3  -7   3 22.6258 1.47598   4
  -3  -7   3 23.7329 1.47304   2
   2   7  -3 1044.14 28.4351   1
   2   7  -3 1022.26 28.3148   5
  -2  -7   3 1035.98 28.4018   2
  -2  -7   3 1079.59 28.5039   4
   1   7  -3 0.58443 0.42725   5
   1   7  -3 -0.1827 0.40696   1
  -1  -7   3 0.10902 0.46983   4
  -1  -7   3 0.47804 0.45247   2
   0   7  -3 359.136 10.2544   1
   0   7  -3 342.379 10.0309   5
   0  -7   3 342.202 10.2316   4
   0  -7   3 364.413 10.1676   2
  -1   7  -3 151.286 4.66176   5
  -1   7  -3 143.973 4.86394   1
   1  -7   3 144.188 4.86427   4
   1  -7   3 150.738 4.75240   2
  -2   7  -3 11.2673 1.07090   1
  -2   7  -3 11.3341 0.94373   5
   2  -7   3 10.8033 1.00622   2
   2  -7   3 7.47521 0.96208   4
  -3   7  -3 103.719 3.99842   1
  -3   7  -3 117.920 3.69715   5
   3  -7   3 114.835 3.81177   2
   3  -7   3 112.980 4.13420   4
  -4   7  -3 31.3889 1.93346   1
   4  -7   3 29.9222 1.87911   4
  -5   7  -3 364.582 11.0555   1
   5  -7   3 366.682 11.1243   4
  -6   7  -3 25.1387 2.33860   6
  -6   7  -3 22.2421 1.90051   1
   6  -7   3 21.6601 1.92531   4
  -7   7  -3 48.3431 3.03914   6
  -7   7  -3 52.5549 2.87309   1
   7  -7   3 52.3085 2.91051   4
  -8   7  -3 -0.0507 0.88715   1
   8  -7   3 0.87946 0.95026   4
 -10  -6   3 365.341 11.5154   1
   8   6  -3 354.876 10.8433   1
   7   6  -3 6.08177 1.01137   1
   7   6  -3 6.32403 0.82843   5
  -7  -6   3 7.56199 0.91070   2
  -7  -6   3 6.69783 1.00154   4
   6   6  -3 227.951 7.29214   1
   6   6  -3 231.684 7.00310   5
  -6  -6   3 235.226 7.05095   2
  -6  -6   3 235.415 7.27064   4
   5   6  -3 107.158 3.67547   5
   5   6  -3 111.056 3.90317   1
  -5  -6   3 105.295 3.81762   4
  -5  -6   3 111.173 3.73612   2
   4   6  -3 26.7194 1.42409   5
   4   6  -3 26.5995 1.53185   1
  -4  -6   3 28.4080 1.55537   4
  -4  -6   3 27.8072 1.49699   2
   3   6  -3 401.375 11.6977   1
   3   6  -3 419.929 11.6347   5
  -3  -6   3 411.671 11.6750   2
  -3  -6   3 416.557 11.7438   4
   2   6  -3 230.825 6.68314   5
   2   6  -3 223.474 6.74462   1
  -2  -6   3 222.340 6.76429   4
  -2  -6   3 224.584 6.72540   2
   1   6  -3 253.722 7.30498   5
   1   6  -3 251.685 7.39182   1
  -1  -6   3 258.460 7.46995   4
  -1  -6   3 239.919 7.33272   2
   0   6  -3 12.9221 0.98893   1
   0   6  -3 13.3462 0.89269   5
   0  -6   3 12.1546 0.91659   2
   0  -6   3 12.7397 0.99828   4
  -1   6  -3 40.5374 1.69434   5
  -1   6  -3 41.4222 1.85554   1
   1  -6   3 40.2656 1.86207   4
   1  -6   3 41.0110 1.75808   2
  -2   6  -3 0.49124 0.36762   5
  -2   6  -3 -0.1464 0.39989   1
  -2   6  -3 0.32028 0.23386   6
   2  -6   3 -0.0257 0.33342   2
   2  -6   3 -0.2982 0.22632   3
   2  -6   3 -0.0647 0.36721   4
  -3   6  -3 635.650 17.0057   5
  -3   6  -3 611.658 17.3773   1
   3  -6   3 577.138 17.3580   4
   3  -6   3 628.135 17.0926   2
   3  -6   3 658.325 16.9433   3
  -4   6  -3 112.391 3.53156   5
  -4   6  -3 107.639 3.98990   1
  -4   6  -3 112.087 3.64235   6
   4  -6   3 109.185 4.04874   4
   4  -6   3 112.928 3.64274   2
   4  -6   3 112.151 3.64060   3
  -5   6  -3 18.8860 1.25045   6
  -5   6  -3 18.4908 1.54157   1
   5  -6   3 18.5152 1.57774   4
   5  -6   3 19.6387 1.31651   3
  -6   6  -3 123.240 4.37379   6
  -6   6  -3 134.021 4.78164   1
   6  -6   3 132.198 4.43067   3
   6  -6   3 127.750 4.80943   4
  -7   6  -3 0.68779 0.78021   1
  -7   6  -3 -0.1661 0.56609   6
   7  -6   3 -0.2115 0.56154   3
   7  -6   3 0.05198 0.64700   4
  -8   6  -3 57.8756 2.96158   1
  -8   6  -3 49.0532 2.58708   6
   8  -6   3 53.7716 2.91635   4
   8  -6   3 51.7070 2.64297   3
  -9   6  -3 29.3237 2.14797   6
  -9   6  -3 34.2040 3.41474   1
   9  -6   3 29.7572 2.14985   3
  10   5  -3 16.8808 1.77660   4
 -10  -5   3 17.8497 1.90081   1
   9   5  -3 175.947 6.05324   4
  -9  -5   3 172.772 6.16603   1
   8   5  -3 4.36390 0.91861   1
   8   5  -3 4.05877 0.85704   4
   7   5  -3 86.1316 3.34706   4
   7   5  -3 84.1968 3.39350   1
   7   5  -3 84.5000 2.97373   5
  -7  -5   3 84.5156 3.17218   2
   6   5  -3 1.96165 0.48256   5
   6   5  -3 0.28980 0.49782   1
   6   5  -3 0.36626 0.44633   4
  -6  -5   3 0.78955 0.42089   2
   5   5  -3 355.193 9.88730   5
   5   5  -3 339.734 10.1118   1
  -5  -5   3 348.925 9.91688   2
   4   5  -3 29.1740 1.39619   5
   4   5  -3 30.5906 1.21010   3
   4   5  -3 29.0586 1.51006   1
  -4  -5   3 27.5259 1.41086   2
  -4  -5   3 26.5494 1.46034   4
  -4  -5   3 32.4685 1.32434   6
   3   5  -3 67.8921 2.42537   5
   3   5  -3 69.2882 2.53622   1
  -3  -5   3 68.6865 2.47531   2
  -3  -5   3 66.6734 2.50975   4
   2   5  -3 10.6198 0.79927   1
   2   5  -3 9.67049 0.76157   5
  -2  -5   3 9.31158 0.79474   2
  -2  -5   3 8.41203 0.79206   4
   1   5  -3 17.9471 1.00908   5
   1   5  -3 16.9376 0.99375   1
  -1  -5   3 18.6261 1.05300   2
  -1  -5   3 17.0838 1.04972   4
   0   5  -3 557.077 15.6112   1
   0   5  -3 553.662 15.4943   5
   0  -5   3 594.490 15.6852   4
   0  -5   3 566.881 15.5665   2
  -1   5  -3 28.7771 1.29748   5
  -1   5  -3 28.2070 1.39026   1
  -1   5  -3 29.9230 1.02072   6
   1  -5   3 28.1796 1.41742   4
   1  -5   3 30.0706 1.34755   2
   1  -5   3 29.5274 0.99932   3
  -2   5  -3 96.8706 2.85008   6
  -2   5  -3 90.0069 3.17979   1
  -2   5  -3 94.3078 2.99471   5
   2  -5   3 90.1561 3.03647   2
   2  -5   3 94.3825 2.81826   3
   2  -5   3 89.4835 3.20021   4
  -3   5  -3 569.850 15.4342   5
  -3   5  -3 559.691 15.4308   6
  -3   5  -3 561.686 15.7747   1
   3  -5   3 560.749 15.8138   4
   3  -5   3 570.441 15.5218   2
   3  -5   3 577.877 15.4214   3
  -4   5  -3 112.037 3.39916   5
  -4   5  -3 103.749 3.51389   6
  -4   5  -3 107.917 3.79810   1
   4  -5   3 108.491 3.52234   3
   4  -5   3 106.540 3.45141   2
   4  -5   3 112.738 3.89624   4
  -5   5  -3 23.4153 1.35369   6
  -5   5  -3 21.3277 1.48062   1
   5  -5   3 21.5665 1.55451   4
   5  -5   3 21.9891 1.31733   3
  -6   5  -3 54.0197 2.50168   1
  -6   5  -3 49.9849 2.31333   6
   6  -5   3 51.5451 2.53965   4
   6  -5   3 56.6296 2.38602   3
  -7   5  -3 4.59502 0.86708   6
  -7   5  -3 3.54076 0.87205   1
   7  -5   3 5.23653 0.89015   3
   7  -5   3 3.58152 0.94424   4
  -8   5  -3 11.0206 1.40977   1
  -8   5  -3 9.88662 1.26459   6
   8  -5   3 9.03697 1.32763   4
   8  -5   3 7.12935 1.14765   3
  -9   5  -3 51.3468 2.78901   6
  -9   5  -3 54.2425 2.98977   1
   9  -5   3 56.1366 3.00079   4
   9  -5   3 56.2772 2.84269   3
  10   4  -3 11.5846 1.51629   4
 -10  -4   3 10.8140 1.48683   1
   9   4  -3 6.29393 1.07124   4
   9   4  -3 5.41384 0.95373   3
  -9  -4   3 5.44420 1.12068   1
  -9  -4   3 5.61779 0.99173   6
   8   4  -3 12.1090 1.13545   3
   8   4  -3 13.5096 1.36109   4
  -8  -4   3 14.8591 1.45346   1
  -8  -4   3 16.1118 1.19596   6
   7   4  -3 22.6766 1.54345   4
   7   4  -3 23.3670 1.59034   1
   7   4  -3 23.7069 1.36241   3
  -7  -4   3 22.9107 1.28334   6
   6   4  -3 10.0879 1.07713   1
   6   4  -3 10.9009 0.79739   5
   6   4  -3 10.5987 0.87939   3
   6   4  -3 9.63718 0.94687   4
  -6  -4   3 11.0541 0.79049   6
  -6  -4   3 8.44363 0.77837   2
   5   4  -3 46.9550 2.01149   4
   5   4  -3 47.6882 1.74925   3
   5   4  -3 44.6302 2.02995   1
   5   4  -3 45.5694 1.78187   5
  -5  -4   3 48.0604 1.76202   6
  -5  -4   3 47.8233 1.84074   2
   4   4  -3 151.144 4.69045   5
   4   4  -3 168.004 4.90256   4
   4   4  -3 154.911 4.51359   3
   4   4  -3 153.319 4.90158   1
  -4  -4   3 152.257 4.73137   2
  -4  -4   3 165.127 4.55942   6
   3   4  -3 32.5675 1.10731   3
   3   4  -3 32.4613 1.36091   5
   3   4  -3 31.0487 1.45430   1
  -3  -4   3 32.0326 1.46925   4
  -3  -4   3 34.1486 1.42909   2
  -3  -4   3 35.4570 1.14124   6
   2   4  -3 273.641 8.19484   5
   2   4  -3 315.445 7.78871   3
   2   4  -3 281.816 8.28180   1
  -2  -4   3 293.343 8.27023   2
  -2  -4   3 297.534 8.33232   4
  -2  -4   3 294.898 7.78295   6
   1   4  -3 122.152 3.73652   5
   1   4  -3 121.480 3.77537   1
  -1  -4   3 124.278 3.77325   2
  -1  -4   3 123.498 3.81496   4
   0   4  -3 9.63730 0.71437   1
   0   4  -3 8.84146 0.67407   5
   0  -4   3 10.1081 0.72124   2
   0  -4   3 10.4150 0.74289   4
  -1   4  -3 175.058 5.23393   5
  -1   4  -3 191.358 5.00819   6
  -1   4  -3 176.808 5.35117   1
   1  -4   3 182.833 5.30714   2
   1  -4   3 176.221 5.36024   4
   1  -4   3 184.208 4.97246   3
  -2   4  -3 47.9860 1.67448   5
  -2   4  -3 44.1105 1.79928   1
   2  -4   3 46.8679 1.71454   2
   2  -4   3 43.6504 1.80815   4
   2  -4   3 45.8793 1.54841   3
  -3   4  -3 531.886 14.8045   1
  -3   4  -3 535.701 14.5175   5
  -3   4  -3 527.473 14.5726   6
   3  -4   3 531.084 14.5425   3
   3  -4   3 558.635 14.8808   4
   3  -4   3 525.889 14.5654   2
  -4   4  -3 20.1747 1.25576   1
  -4   4  -3 22.7037 1.02106   5
  -4   4  -3 23.7695 1.22274   6
   4  -4   3 21.5624 1.16691   3
   4  -4   3 21.8124 1.05888   2
   4  -4   3 25.1765 1.40013   4
  -5   4  -3 74.9386 2.75065   6
  -5   4  -3 76.3369 2.89267   1
   5  -4   3 75.0068 2.74800   3
   5  -4   3 71.0914 2.85765   4
  -6   4  -3 96.7712 3.64306   1
  -6   4  -3 98.2594 3.58769   6
   6  -4   3 101.545 3.55818   3
   6  -4   3 100.348 3.71694   4
  -7   4  -3 9.78442 1.11880   6
  -7   4  -3 9.89758 1.16888   1
   7  -4   3 9.32838 1.08017   3
   7  -4   3 9.75989 1.17851   4
  -8   4  -3 234.794 7.40952   1
  -8   4  -3 218.474 7.22369   6
   8  -4   3 221.838 7.34497   4
   8  -4   3 225.818 7.23974   3
  -9   4  -3 20.7867 1.81401   6
  -9   4  -3 23.2378 1.91744   1
   9  -4   3 19.1834 1.80932   3
   9  -4   3 19.4836 1.80890   4
 -10   4  -3 157.612 6.12476   6
 -10   4  -3 151.710 5.70541   1
  10  -4   3 153.910 5.72993   4
  10  -4   3 143.059 5.76719   3
  11   3  -3 14.9971 1.71342   3
 -11  -3   3 15.6392 1.82576   6
  10   3  -3 21.1593 1.82046   3
  10   3  -3 29.7335 2.08375   4
 -10  -3   3 23.9373 1.75945   6
 -10  -3   3 22.5079 2.01332   1
   9   3  -3 0.71927 0.65493   3
   9   3  -3 2.34937 0.84611   4
  -9  -3   3 1.69724 0.70356   6
  -9  -3   3 1.54700 0.80726   1
   8   3  -3 7.89780 1.09914   4
   8   3  -3 5.92603 0.85666   3
  -8  -3   3 6.52550 1.01812   1
  -8  -3   3 5.99539 0.86258   6
   7   3  -3 19.3642 1.43586   4
   7   3  -3 17.8969 1.25768   3
  -7  -3   3 21.6760 1.29125   6
  -7  -3   3 21.1824 1.50178   1
   6   3  -3 1.17263 0.45689   3
   6   3  -3 1.37316 0.55764   1
   6   3  -3 1.00481 0.53878   4
  -6  -3   3 1.44182 0.40638   6
  -6  -3   3 0.85633 0.31127   2
   5   3  -3 76.9858 2.85284   1
   5   3  -3 78.8753 2.52599   5
   5   3  -3 79.5521 2.83631   4
   5   3  -3 76.9062 2.62086   3
  -5  -3   3 75.9449 2.53085   2
  -5  -3   3 78.5079 2.60877   6
   4   3  -3 21.7649 1.19374   1
   4   3  -3 24.0313 1.18878   4
   4   3  -3 22.7848 1.02115   3
   4   3  -3 20.9902 1.00205   5
  -4  -3   3 22.2458 0.98701   6
  -4  -3   3 22.8312 1.05107   2
   3   3  -3 57.0019 1.97954   5
   3   3  -3 58.0153 2.11116   1
   3   3  -3 59.3109 1.87254   3
  -3  -3   3 61.9961 1.87969   6
  -3  -3   3 61.3076 2.04183   2
   2   3  -3 62.3138 2.14864   5
   2   3  -3 66.8059 2.25202   1
   2   3  -3 69.2855 1.93215   3
  -2  -3   3 65.5552 2.24702   4
  -2  -3   3 67.8264 1.92034   6
   1   3  -3 1.29472 0.31009   1
   1   3  -3 0.98915 0.27231   5
  -1  -3   3 0.82545 0.25410   4
  -1  -3   3 1.04479 0.28182   2
   0   3  -3 41.7085 1.09032   3
   0   3  -3 39.0762 1.09068   6
   0   3  -3 36.7265 1.37524   5
   0   3  -3 37.3780 1.40597   1
   0  -3   3 35.2593 1.41257   4
  -1   3  -3 1.09646 0.28522   1
  -1   3  -3 0.98071 0.19506   6
  -1   3  -3 0.99780 0.26648   5
   1  -3   3 0.99502 0.27369   2
   1  -3   3 1.34363 0.18323   3
   1  -3   3 0.82681 0.26735   4
  -2   3  -3 1600.38 43.3102   1
  -2   3  -3 1666.95 43.1848   5
   2  -3   3 1625.51 43.3394   4
   2  -3   3 1597.70 43.2118   2
   2  -3   3 1655.89 43.1068   3
  -3   3  -3 4.93588 0.47269   5
  -3   3  -3 4.16859 0.52945   1
  -3   3  -3 3.94618 0.48113   6
   3  -3   3 5.33985 0.53069   3
   3  -3   3 5.56699 0.64212   4
   3  -3   3 4.67499 0.47848   2
  -4   3  -3 6.12905 0.51025   5
  -4   3  -3 4.41475 0.57618   6
  -4   3  -3 6.94645 0.75573   1
   4  -3   3 7.00030 0.57382   2
   4  -3   3 7.11846 0.67213   3
   4  -3   3 6.00261 0.72579   4
  -5   3  -3 25.2485 1.42577   1
  -5   3  -3 25.3209 1.39496   6
  -5   3  -3 30.0669 1.11862   5
   5  -3   3 25.8768 1.37472   3
   5  -3   3 27.4691 1.49483   4
   5  -3   3 29.7312 1.18613   2
  -6   3  -3 0.66829 0.48880   6
  -6   3  -3 0.63644 0.49754   1
   6  -3   3 1.25287 0.52199   3
   6  -3   3 0.41070 0.46040   4
  -7   3  -3 3.87777 0.80718   6
  -7   3  -3 6.01044 0.92389   1
   7  -3   3 5.86672 0.87795   4
   7  -3   3 5.64597 0.89273   3
  -8   3  -3 8.65811 1.12566   1
  -8   3  -3 13.1952 1.42273   6
   8  -3   3 10.6434 1.25206   3
   8  -3   3 12.8551 1.39480   4
  -9   3  -3 23.5686 1.87931   6
  -9   3  -3 21.9351 1.78109   1
   9  -3   3 22.4869 1.79967   4
   9  -3   3 22.0058 1.78632   3
 -10   3  -3 0.96036 0.91655   6
 -10   3  -3 1.45138 0.91168   1
  10  -3   3 -0.0734 0.74925   4
  10  -3   3 0.69133 0.80677   3
  10   2  -3 5.90831 1.14252   3
  10   2  -3 5.65351 1.16179   4
 -10  -2   3 4.13343 0.97350   6
 -10  -2   3 6.76693 1.27332   1
   9   2  -3 2.88541 0.80350   3
   9   2  -3 4.42283 0.95505   4
  -9  -2   3 3.33644 0.81707   6
  -9  -2   3 3.46716 0.97324   1
   8   2  -3 19.3096 1.51096   4
   8   2  -3 17.4282 1.40635   3
  -8  -2   3 16.3185 1.32430   6
  -8  -2   3 17.4257 1.51106   1
   7   2  -3 90.1710 3.54319   4
   7   2  -3 95.7347 3.45636   3
  -7  -2   3 101.136 3.68423   1
  -7  -2   3 97.4333 3.43528   6
   6   2  -3 6.36373 0.84613   4
   6   2  -3 7.87729 0.84893   3
  -6  -2   3 6.94611 0.77027   6
  -6  -2   3 7.37957 0.89020   1
   5   2  -3 0.11883 0.31544   4
   5   2  -3 -0.2618 0.16906   5
   5   2  -3 0.04755 0.36820   1
   5   2  -3 0.09912 0.30129   3
  -5  -2   3 0.52845 0.28136   6
  -5  -2   3 -0.5046 0.13446   2
   4   2  -3 43.4073 1.61483   3
   4   2  -3 41.8986 1.71581   4
   4   2  -3 42.1455 1.75805   1
  -4  -2   3 42.9198 1.57974   6
  -4  -2   3 43.1617 1.51167   2
   3   2  -3 19.1831 0.85162   3
   3   2  -3 18.4098 0.81969   5
   3   2  -3 17.8921 0.97727   1
   3   2  -3 17.3310 0.96054   4
  -3  -2   3 17.2830 0.78879   6
  -3  -2   3 17.8264 0.84486   2
   2   2  -3 92.4148 2.86585   5
   2   2  -3 100.032 2.78193   3
   2   2  -3 96.3639 2.97252   1
   2   2  -3 96.3613 2.96125   4
  -2  -2   3 93.4352 2.88532   2
  -2  -2   3 98.2620 2.76683   6
   1   2  -3 164.802 4.76008   5
   1   2  -3 175.766 4.55706   3
  -1  -2   3 168.523 4.56523   6
  -1  -2   3 165.596 4.77768   2
  -1  -2   3 167.421 4.80414   4
   0   2  -3 741.291 19.6900   1
   0   2  -3 766.366 19.6441   3
   0   2  -3 728.170 19.6879   5
   0  -2   3 729.717 19.5353   6
   0  -2   3 721.889 19.7066   2
  -1   2  -3 253.803 6.95513   1
  -1   2  -3 247.928 6.92817   5
   1  -2   3 254.522 6.81523   6
   1  -2   3 253.691 6.78614   3
   1  -2   3 246.536 6.95983   4
  -2   2  -3 16.0325 0.78221   1
  -2   2  -3 17.0953 0.74506   5
   2  -2   3 16.1615 0.75679   2
   2  -2   3 16.2628 0.70955   3
   2  -2   3 16.3684 0.74663   6
   2  -2   3 16.2515 0.80454   4
  -3   2  -3 146.002 4.40312   1
  -3   2  -3 145.296 4.25656   5
   3  -2   3 149.333 4.31214   2
   3  -2   3 149.412 4.36067   3
   3  -2   3 151.482 4.45666   4
   3  -2   3 150.009 4.40836   6
  -4   2  -3 76.3773 2.40661   5
  -4   2  -3 77.4073 2.65248   1
   4  -2   3 78.6955 2.68872   4
   4  -2   3 79.4927 2.63828   3
   4  -2   3 79.1571 2.47642   2
  -5   2  -3 22.6572 1.21855   1
  -5   2  -3 22.2197 1.27106   6
  -5   2  -3 22.0885 0.91241   5
   5  -2   3 19.4219 1.16490   3
   5  -2   3 21.2357 1.21278   4
   5  -2   3 22.8338 0.99583   2
  -6   2  -3 14.0292 1.14999   6
  -6   2  -3 11.9692 1.03089   1
   6  -2   3 11.2642 0.99376   4
   6  -2   3 13.1239 1.05695   3
  -7   2  -3 12.4352 1.21127   6
  -7   2  -3 12.1695 1.19814   1
   7  -2   3 8.94766 1.03938   3
   7  -2   3 10.6920 1.07708   4
  -8   2  -3 7.25485 1.02653   1
  -8   2  -3 4.17454 0.87455   6
   8  -2   3 7.60598 1.05613   3
   8  -2   3 6.76273 0.96230   4
  -9   2  -3 10.1339 1.26168   1
  -9   2  -3 10.5486 1.38010   6
   9  -2   3 9.13034 1.18636   4
   9  -2   3 11.9856 1.40360   3
 -10   2  -3 3.59070 0.98181   1
 -10   2  -3 5.94281 1.21559   6
  10  -2   3 5.10608 1.10284   4
  10  -2   3 4.37826 1.04141   3
 -11   2  -3 17.2389 1.94417   1
  11  -2   3 19.0018 2.09410   4
  10   1  -3 39.0810 2.37389   3
  10   1  -3 42.2226 2.52170   4
 -10  -1   3 41.0352 2.39093   6
 -10  -1   3 37.8722 2.51029   1
   9   1  -3 5.89565 1.00653   3
   9   1  -3 5.42095 1.07723   4
  -9  -1   3 4.83253 0.95776   6
  -9  -1   3 5.65270 1.12458   1
   8   1  -3 36.9131 1.99499   3
   8   1  -3 36.4385 2.08481   4
  -8  -1   3 34.9289 2.08531   1
  -8  -1   3 35.7908 1.96653   6
   7   1  -3 26.6682 1.63031   4
   7   1  -3 31.5139 1.67660   3
  -7  -1   3 26.0646 1.55327   6
  -7  -1   3 28.5412 1.71911   1
   6   1  -3 16.6456 1.21261   4
   6   1  -3 16.1369 1.11690   3
  -6  -1   3 16.7983 1.13044   6
  -6  -1   3 16.1109 1.21179   1
   5   1  -3 364.966 10.1905   3
   5   1  -3 347.810 10.2602   4
   5   1  -3 367.326 9.72969   5
  -5  -1   3 370.839 10.1844   6
  -5  -1   3 389.451 9.77416   2
  -5  -1   3 321.295 10.2287   1
   4   1  -3 96.0935 2.73114   5
   4   1  -3 90.0800 3.07654   4
   4   1  -3 94.4775 3.11418   1
   4   1  -3 94.3760 3.00664   3
  -4  -1   3 91.3318 2.98275   6
  -4  -1   3 95.7946 2.75200   2
   3   1  -3 12.3629 0.74390   4
   3   1  -3 12.5720 0.77270   1
   3   1  -3 12.6950 0.69791   3
  -3  -1   3 12.6103 0.67102   6
  -3  -1   3 12.6211 0.60285   2
   2   1  -3 5.79855 0.55273   4
   2   1  -3 6.53209 0.57806   1
   2   1  -3 6.13802 0.47217   5
   2   1  -3 6.58891 0.49960   3
  -2  -1   3 7.32313 0.49633   6
  -2  -1   3 6.72180 0.49004   2
   1   1  -3 42.8354 1.45179   1
   1   1  -3 48.0344 1.37315   3
   1   1  -3 46.4424 1.47217   4
   1   1  -3 45.0731 1.43512   5
  -1  -1   3 43.1902 1.43937   2
  -1  -1   3 43.0365 1.37198   6
   0   1  -3 5.31314 0.33796   3
   0   1  -3 5.18225 0.40387   1
   0   1  -3 4.91048 0.41352   5
   0  -1   3 4.59598 0.35112   6
   0  -1   3 4.52960 0.38069   4
   0  -1   3 3.76978 0.37321   2
  -1   1  -3 30.4854 1.01320   1
  -1   1  -3 28.7737 1.05236   5
   1  -1   3 29.2715 0.99502   6
   1  -1   3 28.5348 1.06333   2
   1  -1   3 29.8161 1.01994   4
  -2   1  -3 30.9758 1.09811   1
  -2   1  -3 31.3834 1.10290   5
   2  -1   3 30.5961 1.12970   6
   2  -1   3 29.6433 1.09294   3
   2  -1   3 31.3225 1.11902   4
   2  -1   3 33.5139 1.14697   2
  -3   1  -3 65.1170 2.13446   1
  -3   1  -3 66.8944 2.06513   5
   3  -1   3 65.2015 2.14722   3
   3  -1   3 67.6328 2.11060   2
   3  -1   3 64.8465 2.19456   6
   3  -1   3 71.1457 2.19315   4
  -4   1  -3 897.933 24.0174   5
  -4   1  -3 881.731 24.2088   1
   4  -1   3 897.481 24.2422   3
   4  -1   3 897.904 24.2313   4
   4  -1   3 897.709 24.3059   6
   4  -1   3 938.342 24.1025   2
  -5   1  -3 20.4461 0.87702   5
  -5   1  -3 21.3624 1.13043   1
   5  -1   3 21.4736 0.95877   2
   5  -1   3 20.3992 1.13834   3
   5  -1   3 19.8231 1.17636   6
   5  -1   3 20.2089 1.11195   4
  -6   1  -3 135.820 4.65704   1
  -6   1  -3 159.077 4.47223   5
  -6   1  -3 140.418 4.79654   6
   6  -1   3 146.860 4.68568   4
   6  -1   3 144.624 4.72035   3
   6  -1   3 164.284 4.55627   2
  -7   1  -3 11.1040 1.04930   1
  -7   1  -3 9.49736 1.10599   6
   7  -1   3 11.7164 1.02805   4
   7  -1   3 9.49283 1.01084   3
  -8   1  -3 91.1647 3.61834   6
  -8   1  -3 93.6183 3.53187   1
   8  -1   3 88.7374 3.51319   3
   8  -1   3 97.3444 3.53186   4
  -9   1  -3 0.82229 0.67631   1
  -9   1  -3 -0.8308 0.67472   6
   9  -1   3 0.49701 0.59527   4
   9  -1   3 -0.4157 0.60114   3
 -10   1  -3 6.64221 1.28976   6
 -10   1  -3 8.82858 1.28886   1
  10  -1   3 7.95736 1.20785   4
  10  -1   3 5.15680 1.06324   3
 -11   1  -3 10.0532 1.41969   1
  11  -1   3 7.44139 1.33199   4
  10   0  -3 2.85647 0.94521   3
  10   0  -3 3.48397 1.07456   4
 -10   0   3 2.50071 0.91267   6
 -10   0   3 2.82996 1.06947   1
   9   0  -3 2.48911 0.82960   3
   9   0  -3 2.12784 0.86528   4
  -9   0   3 2.13051 0.85938   1
  -9   0   3 2.96747 0.82209   6
   8   0  -3 4.77330 0.96897   4
   8   0  -3 4.18862 0.85965   3
  -8   0   3 4.38651 0.88947   6
  -8   0   3 3.45238 0.84619   1
   7   0  -3 30.4007 1.79048   4
   7   0  -3 30.2182 1.71042   3
  -7   0   3 28.3144 1.66659   6
  -7   0   3 29.5242 1.76786   1
   6   0  -3 66.7387 2.70134   4
   6   0  -3 70.6618 2.68174   3
  -6   0   3 67.9352 2.75597   1
  -6   0   3 70.6946 2.67099   6
   5   0  -3 312.602 8.95644   3
  -5   0   3 304.014 8.92926   6
  -5   0   3 320.808 9.06327   1
   4   0  -3 836.598 21.9048   5
   4   0  -3 815.229 22.4446   4
   4   0  -3 835.183 22.3772   3
  -4   0   3 836.461 22.3601   6
  -4   0   3 789.423 22.4241   1
  -4   0   3 858.784 21.9216   2
   3   0  -3 30.5109 1.37654   4
   3   0  -3 37.8642 1.38421   3
   3   0  -3 36.7023 1.11649   5
  -3   0   3 36.6111 1.12643   2
  -3   0   3 35.8154 1.43563   1
  -3   0   3 34.8201 1.35830   6
   2   0  -3 3160.04 82.4116   5
   2   0  -3 3116.34 83.2304   3
   2   0  -3 3116.38 83.3050   1
  -2   0   3 3003.68 82.2331   2
  -2   0   3 3123.39 83.1432   6
   1   0  -3 392.775 11.3272   5
   1   0  -3 383.479 11.3699   4
   1   0  -3 439.525 11.4014   1
   1   0  -3 446.399 11.3915   3
  -1   0   3 440.802 11.3648   2
  -1   0   3 440.669 11.4083   6
   0   0  -3 892.658 23.8798   5
   0   0  -3 918.765 23.9054   4
   0   0  -3 887.925 23.8428   1
   0   0  -3 888.109 23.8616   3
   0   0   3 906.683 23.8787   6
   0   0   3 911.367 23.9044   2
  -1   0  -3 410.844 11.0422   3
  -1   0  -3 399.952 11.0796   5
  -1   0  -3 434.546 10.9383   1
   1   0   3 419.756 10.9431   4
   1   0   3 397.636 11.0561   6
   1   0   3 408.904 11.1069   2
  -2   0  -3 267.834 7.30279   5
  -2   0  -3 269.429 7.18714   1
   2   0   3 262.715 7.28597   3
   2   0   3 269.379 7.32483   2
   2   0   3 262.455 7.31954   6
  -3   0  -3 3.07036 0.32363   1
  -3   0  -3 2.77052 0.31063   5
   3   0   3 4.43281 0.44799   6
   3   0   3 3.41755 0.39619   3
   3   0   3 3.04034 0.32757   4
   3   0   3 3.52185 0.37673   2
  -4   0  -3 132.491 3.91643   1
  -4   0  -3 134.486 3.83810   5
   4   0   3 127.067 3.97066   3
   4   0   3 131.366 4.04966   6
   4   0   3 128.082 3.85601   2
   4   0   3 136.532 3.92787   4
  -5   0  -3 261.430 7.03612   5
  -5   0  -3 241.247 7.19317   1
   5   0   3 250.631 7.35931   6
   5   0   3 247.239 7.26867   3
   5   0   3 248.042 7.20902   4
   5   0   3 262.694 7.08204   2
  -6   0  -3 33.2164 1.25599   5
  -6   0  -3 33.7577 1.54396   1
   6   0   3 32.0649 1.50697   4
   6   0   3 33.1925 1.32198   2
   6   0   3 32.1802 1.56548   3
   6   0   3 31.3018 1.60169   6
  -7   0  -3 149.050 4.78469   1
  -7   0  -3 143.927 4.93261   6
   7   0   3 140.011 4.77711   3
   7   0   3 155.372 4.80912   4
  -8   0  -3 30.7171 1.91482   6
  -8   0  -3 30.4868 1.75189   1
   8   0   3 29.7418 1.72581   3
   8   0   3 32.0929 1.77591   4
  -9   0  -3 27.2007 1.94251   6
  -9   0  -3 29.8036 1.82608   1
   9   0   3 30.9514 1.91912   3
   9   0   3 32.4633 1.86912   4
 -10   0  -3 5.88609 1.17768   6
 -10   0  -3 7.35722 1.14791   1
  10   0   3 4.52731 0.99395   3
  10   0   3 6.54216 1.10731   4
 -11   0  -3 3.00568 1.65075   6
 -11   0  -3 4.24415 1.03014   1
  11   0   3 2.27545 0.92999   4
  11   0   3 1.92552 0.99987   3
  10  -1  -3 76.9414 3.57823   3
  10  -1  -3 72.4739 3.56749   4
 -10   1   3 74.7120 3.50823   6
 -10   1   3 78.3189 3.70477   1
   9  -1  -3 11.9009 1.39946   3
   9  -1  -3 12.5243 1.50366   4
  -9   1   3 10.1506 1.29251   6
  -9   1   3 10.1099 1.39317   1
   8  -1  -3 258.866 8.08567   4
   8  -1  -3 248.147 7.92888   3
  -8   1   3 250.689 7.91462   6
  -8   1   3 252.396 8.08292   1
   7  -1  -3 4.59915 0.85481   3
   7  -1  -3 3.95930 0.80061   4
  -7   1   3 4.19517 0.77852   6
  -7   1   3 4.46108 0.86597   1
   6  -1  -3 421.760 12.3838   4
   6  -1  -3 448.884 12.3817   3
  -6   1   3 416.785 12.2733   6
  -6   1   3 443.146 12.4483   1
   5  -1  -3 437.008 12.2215   3
   5  -1  -3 452.482 12.2883   4
  -5   1   3 422.203 12.1752   6
  -5   1   3 424.976 12.2672   1
   4  -1  -3 20.3485 1.07868   4
   4  -1  -3 17.2745 1.01569   3
  -4   1   3 17.3913 1.05378   1
  -4   1   3 17.2419 0.98808   6
   3  -1  -3 1536.90 41.6274   4
   3  -1  -3 1642.75 41.3751   5
   3  -1  -3 1547.82 41.6056   3
  -3   1   3 1682.38 41.3648   2
  -3   1   3 1560.15 41.6106   6
  -3   1   3 1421.07 41.6122   1
   2  -1  -3 0.34873 0.19489   4
   2  -1  -3 0.45051 0.12971   5
   2  -1  -3 0.36219 0.19326   3
  -2   1   3 0.26659 0.12208   2
  -2   1   3 0.50533 0.21313   6
  -2   1   3 1.17147 0.27876   1
   1  -1  -3 483.786 12.7617   4
   1  -1  -3 471.097 12.7930   3
  -1   1   3 474.375 12.7634   1
  -1   1   3 488.109 12.7189   2
  -1   1   3 457.765 12.8085   6
   0  -1  -3 637.644 17.3336   3
   0  -1  -3 606.751 17.3034   5
   0  -1  -3 637.607 17.1934   4
   0   1   3 654.537 17.3663   6
   0   1   3 682.282 17.2089   1
   0   1   3 680.440 17.3471   2
  -1  -1  -3 117.476 3.33927   3
   1   1   3 111.883 3.35423   6
   1   1   3 118.167 3.39272   2
  -2  -1  -3 178.999 5.28233   3
  -2  -1  -3 204.403 5.10988   1
   2   1   3 187.986 5.32974   2
   2   1   3 187.667 5.32701   6
   2   1   3 188.284 5.09386   4
  -3  -1  -3 2819.43 76.6196   5
  -3  -1  -3 3116.39 76.7292   1
   3   1   3 2770.46 77.2132   6
   3   1   3 2822.05 76.7758   2
   3   1   3 2829.32 76.8233   3
  -4  -1  -3 47.8963 1.59772   1
  -4  -1  -3 48.8318 1.62747   5
   4   1   3 43.7344 1.58340   4
   4   1   3 46.9756 1.66177   2
   4   1   3 45.0912 1.69683   3
  -5  -1  -3 72.5933 2.28896   5
  -5  -1  -3 69.7926 2.33292   1
   5   1   3 68.6120 2.30359   2
   5   1   3 65.6021 2.48312   6
   5   1   3 65.2269 2.41091   3
   5   1   3 72.1709 2.34412   4
  -6  -1  -3 243.367 7.06166   1
  -6  -1  -3 250.054 6.87024   5
   6   1   3 234.843 7.21788   6
   6   1   3 241.730 7.04313   4
   6   1   3 237.949 7.14443   3
   6   1   3 243.382 6.88649   2
  -7  -1  -3 420.614 11.6118   1
   7   1   3 411.804 11.5828   4
   7   1   3 399.947 11.6638   3
   7   1   3 399.300 11.7607   6
  -8  -1  -3 27.3337 1.79134   6
  -8  -1  -3 28.9990 1.65020   1
   8   1   3 30.7737 1.76849   3
   8   1   3 31.4808 1.68629   4
  -9  -1  -3 1.05328 0.62228   1
  -9  -1  -3 0.22502 0.58400   6
   9   1   3 0.04697 0.55283   4
   9   1   3 0.52411 0.65001   3
 -10  -1  -3 3.84299 1.05651   6
 -10  -1  -3 3.51801 0.91730   1
  10   1   3 3.14099 0.88139   4
  10   1   3 4.51567 1.00152   3
 -11  -1  -3 7.25562 1.33407   6
  11   1   3 8.05546 1.35991   3
  10  -2  -3 2.16424 0.94121   3
  10  -2  -3 2.20403 1.02204   4
 -10   2   3 1.12728 0.99119   1
 -10   2   3 0.96105 0.91469   6
   9  -2  -3 104.497 4.22209   3
   9  -2  -3 104.816 4.32553   4
  -9   2   3 102.842 4.30197   1
  -9   2   3 101.337 4.15734   6
   8  -2  -3 15.6662 1.60816   4
   8  -2  -3 14.5249 1.47545   3
  -8   2   3 13.9900 1.55009   1
  -8   2   3 12.1775 1.36206   6
   7  -2  -3 97.8466 3.76289   3
   7  -2  -3 106.010 3.88885   4
  -7   2   3 99.7006 3.87564   1
  -7   2   3 102.440 3.78899   6
   6  -2  -3 28.8532 1.69954   3
   6  -2  -3 32.6180 1.75813   4
  -6   2   3 34.1925 1.85011   1
  -6   2   3 30.3802 1.70695   6
   5  -2  -3 823.536 23.0416   4
   5  -2  -3 838.100 23.0243   3
  -5   2   3 871.498 23.0292   6
  -5   2   3 840.663 23.1077   1
   4  -2  -3 39.6772 1.68308   3
   4  -2  -3 40.0893 1.70606   4
  -4   2   3 39.5181 1.67985   6
  -4   2   3 36.7694 1.70805   1
   3  -2  -3 1043.14 28.0143   3
   3  -2  -3 999.683 28.0100   4
   3  -2  -3 1057.17 27.5347   5
  -3   2   3 1111.05 27.5731   2
  -3   2   3 1034.12 28.0598   1
  -3   2   3 1023.19 28.0066   6
   2  -2  -3 183.910 4.83120   5
   2  -2  -3 173.539 5.06962   4
   2  -2  -3 174.800 5.06613   3
  -2   2   3 178.176 4.82118   2
  -2   2   3 173.270 5.08804   6
  -2   2   3 170.256 5.07664   1
   1  -2  -3 89.8286 2.76423   3
   1  -2  -3 89.3230 2.72678   4
  -1   2   3 91.5133 2.73885   1
  -1   2   3 91.7202 2.81073   6
  -1   2   3 96.2076 2.69160   2
   0  -2  -3 5296.18 134.082   4
   0  -2  -3 4955.41 134.665   3
   0  -2  -3 5305.36 134.663   5
   0   2   3 5321.04 134.768   2
   0   2   3 4954.33 133.896   1
   0   2   3 4510.78 134.304   6
  -1  -2  -3 164.282 4.68156   5
  -1  -2  -3 156.492 4.62759   3
  -1  -2  -3 164.265 4.42474   4
   1   2   3 170.947 4.42973   1
   1   2   3 162.716 4.67076   6
  -2  -2  -3 706.062 18.1445   4
  -2  -2  -3 687.620 18.4331   5
  -2  -2  -3 690.050 18.3609   3
   2   2   3 712.091 18.1465   1
   2   2   3 631.421 18.4132   2
   2   2   3 690.068 18.4010   6
  -3  -2  -3 547.076 15.1372   5
   3   2   3 557.190 15.1560   2
   3   2   3 565.741 14.9061   4
   3   2   3 561.952 15.1085   3
   3   2   3 564.324 15.1607   6
  -4  -2  -3 329.019 8.75654   1
  -4  -2  -3 322.776 8.88700   5
   4   2   3 312.791 8.94759   6
   4   2   3 310.265 8.87736   2
   4   2   3 318.226 8.88229   3
  -5  -2  -3 215.291 6.17508   5
  -5  -2  -3 229.360 6.17065   1
   5   2   3 213.998 6.26706   3
   5   2   3 205.505 6.10647   4
   5   2   3 214.864 6.19807   2
   5   2   3 207.510 6.34087   6
  -6  -2  -3 206.206 6.04022   1
  -6  -2  -3 214.756 6.01459   5
   6   2   3 207.461 6.04082   4
   6   2   3 204.578 5.98862   2
   6   2   3 198.469 6.24644   6
   6   2   3 200.127 6.15940   3
  -7  -2  -3 3.78300 0.63279   1
  -7  -2  -3 3.35997 0.48402   5
   7   2   3 3.59099 0.68261   3
   7   2   3 3.93721 0.53889   2
   7   2   3 4.12704 0.76116   6
   7   2   3 3.82012 0.65633   4
  -8  -2  -3 34.1885 1.77753   1
   8   2   3 35.6468 1.88379   3
   8   2   3 35.2885 1.77854   4
  -9  -2  -3 160.110 5.69492   6
  -9  -2  -3 166.657 5.46993   1
   9   2   3 170.028 5.48306   4
   9   2   3 163.916 5.59605   3
 -10  -2  -3 4.09961 0.88381   1
 -10  -2  -3 2.94305 0.88352   6
  10   2   3 3.78428 0.95630   3
  10   2   3 4.21729 0.89828   4
 -11  -2  -3 51.9655 2.95321   6
  11   2   3 54.4578 2.88473   3
   9  -3  -3 90.6730 3.91421   4
   9  -3  -3 86.8341 3.83905   3
  -9   3   3 87.2742 3.82934   6
  -9   3   3 87.8935 3.95067   1
   8  -3  -3 207.628 6.82753   4
   8  -3  -3 198.701 6.69045   3
  -8   3   3 201.750 6.69920   6
  -8   3   3 196.532 6.77625   1
   7  -3  -3 7.64477 1.05377   4
   7  -3  -3 7.31539 1.02468   3
  -7   3   3 7.79560 1.10910   1
  -7   3   3 6.44818 1.01206   6
   6  -3  -3 377.984 11.7230   4
   6  -3  -3 414.799 11.7765   3
  -6   3   3 418.203 11.8685   1
  -6   3   3 411.094 11.7444   6
   5  -3  -3 7.78622 0.87559   3
   5  -3  -3 8.47350 0.97653   4
  -5   3   3 8.15213 0.99005   1
  -5   3   3 8.10306 0.92631   6
   4  -3  -3 907.215 24.4717   3
   4  -3  -3 921.230 24.5165   4
  -4   3   3 900.403 24.4569   6
  -4   3   3 877.723 24.4990   1
   3  -3  -3 479.315 11.8398   5
   3  -3  -3 408.650 12.2167   3
   3  -3  -3 427.469 12.2769   4
  -3   3   3 419.795 12.2749   1
  -3   3   3 441.894 12.2743   6
  -3   3   3 474.781 11.8252   2
   2  -3  -3 727.557 18.6523   5
   2  -3  -3 700.360 18.8749   3
   2  -3  -3 681.628 18.8872   4
  -2   3   3 713.995 18.6282   2
  -2   3   3 684.256 18.8858   6
  -2   3   3 687.131 18.8997   1
   1  -3  -3 30.2516 1.19699   3
   1  -3  -3 32.6795 1.21839   4
  -1   3   3 30.0703 1.19425   1
  -1   3   3 31.6648 1.14280   2
  -1   3   3 29.1274 1.24501   6
   0  -3  -3 233.956 6.87997   3
   0  -3  -3 250.889 6.81781   4
   0   3   3 251.619 6.90668   2
   0   3   3 245.101 6.84432   5
   0   3   3 250.635 6.95724   6
   0   3   3 255.004 6.81900   1
  -1  -3  -3 123.154 3.45853   4
  -1  -3  -3 120.985 3.60918   3
   1   3   3 111.799 3.64175   2
   1   3   3 126.681 3.62966   5
   1   3   3 125.228 3.46768   1
   1   3   3 122.966 3.64518   6
  -2  -3  -3 24.8671 0.88670   4
  -2  -3  -3 24.4761 1.03371   3
   2   3   3 25.9443 1.08004   6
   2   3   3 26.0267 0.89545   1
   2   3   3 26.6142 1.08703   5
  -3  -3  -3 1191.40 29.1520   4
  -3  -3  -3 999.188 29.2638   3
   3   3   3 1149.00 29.3506   5
   3   3   3 1079.25 29.3501   6
   3   3   3 1118.32 29.1350   1
   3   3   3 1060.05 29.4007   2
  -4  -3  -3 180.140 5.48565   5
   4   3   3 185.530 5.49654   2
   4   3   3 191.698 5.44675   3
   4   3   3 192.728 5.29170   1
   4   3   3 181.796 5.48653   6
  -5  -3  -3 1124.50 29.6399   5
  -5  -3  -3 1107.30 29.4863   1
   5   3   3 1092.12 29.5935   3
   5   3   3 1118.11 29.7243   6
   5   3   3 1076.92 29.4331   4
   5   3   3 1103.16 29.6258   2
  -6  -3  -3 9.29552 0.72096   1
  -6  -3  -3 7.62077 0.68447   5
   6   3   3 9.82957 0.82823   2
   6   3   3 9.66546 0.91425   3
   6   3   3 9.11138 0.94281   6
   6   3   3 8.64852 0.75517   4
  -7  -3  -3 9.60969 0.78792   1
  -7  -3  -3 8.84440 0.70482   5
   7   3   3 5.40839 0.70898   4
   7   3   3 6.72301 0.90875   6
   7   3   3 5.58426 0.69880   2
   7   3   3 5.10072 0.75132   3
  -8  -3  -3 313.302 9.19283   1
   8   3   3 321.428 9.35491   3
   8   3   3 296.689 9.38477   6
   8   3   3 327.393 9.20930   4
  -9  -3  -3 8.22402 1.19318   6
  -9  -3  -3 9.69739 1.11718   1
   9   3   3 11.4048 1.23601   3
   9   3   3 10.5969 1.15717   4
 -10  -3  -3 288.457 9.27094   6
  10   3   3 295.874 9.11197   3
 -11  -3  -3 1.31755 0.85811   6
  11   3   3 1.07974 0.80586   3
   9  -4  -3 72.8753 3.50148   3
   9  -4  -3 76.0944 3.59579   4
  -9   4   3 73.4988 3.64110   1
  -9   4   3 74.0099 3.50217   6
   8  -4  -3 1.61604 0.77843   3
   8  -4  -3 1.73736 0.84719   4
  -8   4   3 1.77495 0.86347   6
  -8   4   3 2.54574 1.02643   1
   7  -4  -3 230.865 7.50973   3
   7  -4  -3 248.746 7.66809   4
  -7   4   3 226.161 7.59124   1
  -7   4   3 237.792 7.52836   6
   6  -4  -3 4.08059 0.85041   4
   6  -4  -3 5.05033 0.87878   3
  -6   4   3 4.36499 0.91151   1
  -6   4   3 4.73942 0.88884   6
   5  -4  -3 -0.0347 0.36806   3
   5  -4  -3 2.91782 0.72966   4
  -5   4   3 0.35607 0.45258   6
  -5   4   3 0.87798 0.56976   1
   4  -4  -3 38.6466 1.83256   4
   4  -4  -3 37.9027 1.76782   3
  -4   4   3 39.8759 1.83608   1
  -4   4   3 39.1839 1.81300   6
   3  -4  -3 277.102 7.24482   5
   3  -4  -3 277.211 7.19867   2
   3  -4  -3 255.037 7.59820   3
   3  -4  -3 263.782 7.68485   4
  -3   4   3 252.241 7.65670   1
  -3   4   3 253.650 7.62193   6
   2  -4  -3 351.560 9.91278   4
   2  -4  -3 344.618 9.83142   3
  -2   4   3 393.368 9.61584   5
  -2   4   3 339.425 9.87756   6
  -2   4   3 336.092 9.87872   1
  -2   4   3 352.402 9.62711   2
   1  -4  -3 1078.11 29.2461   3
   1  -4  -3 1105.65 29.3021   4
  -1   4   3 1113.02 29.2076   2
  -1   4   3 1073.71 29.3177   6
  -1   4   3 1114.66 29.1473   5
  -1   4   3 1092.19 29.2842   1
   0  -4  -3 7.63768 0.57724   3
   0  -4  -3 7.72046 0.54156   4
   0   4   3 7.04643 0.62834   6
   0   4   3 7.51496 0.54951   5
   0   4   3 7.38547 0.59674   2
   0   4   3 6.84866 0.54287   1
  -1  -4  -3 65.9719 2.09331   4
  -1  -4  -3 65.8870 2.17971   3
   1   4   3 68.3217 2.22724   5
   1   4   3 68.4023 2.11412   1
   1   4   3 67.3361 2.28674   2
   1   4   3 68.1420 2.22842   6
  -2  -4  -3 3570.88 90.1477   3
  -2  -4  -3 3372.56 89.0697   4
   2   4   3 3259.15 89.8945   6
   2   4   3 3191.21 89.0112   1
   2   4   3 3254.66 89.3344   2
   2   4   3 3452.87 89.5497   5
  -3  -4  -3 -0.9578 0.15992   3
  -3  -4  -3 -0.6331 0.14817   4
   3   4   3 -0.3112 0.26500   6
   3   4   3 -0.1675 0.21146   1
   3   4   3 -0.3505 0.31655   2
   3   4   3 0.01846 0.31644   5
  -4  -4  -3 546.488 14.3086   4
  -4  -4  -3 542.038 14.4297   3
   4   4   3 522.449 14.2929   1
   4   4   3 519.787 14.4883   6
   4   4   3 522.196 14.5712   2
   4   4   3 519.129 14.4834   5
   5   4   3 410.106 11.4515   6
   5   4   3 378.969 11.1628   4
   5   4   3 423.797 11.4697   2
   5   4   3 418.846 11.2412   1
  -6  -4  -3 81.1698 2.98017   5
   6   4   3 85.7100 3.07763   6
   6   4   3 85.7680 3.01967   2
   6   4   3 90.1913 2.98932   3
   6   4   3 84.4875 2.81588   4
  -7  -4  -3 111.249 3.64807   1
  -7  -4  -3 114.365 3.71512   5
   7   4   3 105.526 3.68050   2
   7   4   3 113.113 3.88145   6
   7   4   3 107.274 3.71852   3
   7   4   3 109.494 3.62095   4
  -8  -4  -3 243.888 7.61301   1
  -8  -4  -3 269.570 8.24090   5
   8   4   3 272.261 7.67964   4
   8   4   3 264.292 7.94307   2
   8   4   3 238.367 7.84442   6
   8   4   3 251.965 7.74826   3
  -9  -4  -3 36.2528 2.14800   6
   9   4   3 36.2481 1.98264   3
 -10  -4  -3 5.98250 1.13703   6
  10   4   3 7.66857 1.12401   3
 -11  -4  -3 32.5766 2.23997   6
  11   4   3 30.4295 2.14120   3
   9  -5  -3 186.769 7.21384   3
   8  -5  -3 15.8546 1.79865   4
   8  -5  -3 17.1467 1.67004   3
  -8   5   3 15.4698 1.80556   1
  -8   5   3 14.9642 1.61471   6
   7  -5  -3 26.9339 1.93307   4
   7  -5  -3 19.8235 1.68020   3
  -7   5   3 22.7485 1.88345   1
  -7   5   3 20.5749 1.74668   6
   6  -5  -3 111.058 4.14033   3
   6  -5  -3 117.070 4.29263   4
  -6   5   3 115.021 4.30407   1
  -6   5   3 112.064 4.16315   6
   5  -5  -3 12.3046 1.20622   3
   5  -5  -3 12.6535 1.29936   4
  -5   5   3 11.5651 1.12593   6
  -5   5   3 13.0491 1.32560   1
   4  -5  -3 386.852 10.9293   4
   4  -5  -3 370.595 10.7801   3
  -4   5   3 369.285 10.7905   6
  -4   5   3 377.510 10.9100   1
   3  -5  -3 0.53260 0.36698   3
   3  -5  -3 0.73606 0.46385   4
   3  -5  -3 1.14602 0.29646   2
  -3   5   3 0.77817 0.45403   6
  -3   5   3 1.26231 0.54365   1
   2  -5  -3 20.7748 1.18430   4
   2  -5  -3 17.8641 1.03818   3
  -2   5   3 21.3039 1.15912   6
  -2   5   3 20.0525 1.16164   1
  -2   5   3 20.3469 0.96731   2
  -2   5   3 22.3846 0.94843   5
   1  -5  -3 39.0691 1.62562   4
   1  -5  -3 39.3215 1.56194   3
  -1   5   3 41.4634 1.65086   1
  -1   5   3 41.2409 1.50160   5
  -1   5   3 39.2983 1.63324   6
  -1   5   3 42.4629 1.56486   2
   0  -5  -3 5.62666 0.56932   4
   0  -5  -3 4.65780 0.49824   3
   0   5   3 2.97456 0.41571   5
   0   5   3 5.18135 0.58057   2
   0   5   3 3.30163 0.46494   1
   0   5   3 4.05695 0.52822   6
  -1  -5  -3 816.916 21.6925   4
  -1  -5  -3 802.695 21.7002   3
   1   5   3 826.042 21.8929   2
   1   5   3 802.350 21.7638   6
   1   5   3 784.046 21.7649   5
   1   5   3 820.256 21.7095   1
  -2  -5  -3 220.787 6.23594   4
  -2  -5  -3 212.489 6.28482   3
   2   5   3 221.368 6.50563   2
   2   5   3 224.280 6.24474   1
   2   5   3 217.429 6.39206   5
   2   5   3 230.188 6.35745   6
  -3  -5  -3 234.467 6.41062   4
  -3  -5  -3 224.475 6.46848   3
   3   5   3 213.518 6.65594   2
   3   5   3 223.345 6.38727   1
   3   5   3 227.231 6.52186   6
   3   5   3 234.383 6.62853   5
  -4  -5  -3 21.2008 0.95752   4
  -4  -5  -3 19.8839 0.98423   3
   4   5   3 19.1902 1.22464   2
   4   5   3 20.4831 1.09809   6
   4   5   3 20.1451 1.15470   5
   4   5   3 19.8309 0.96688   1
  -5  -5  -3 786.354 20.9211   3
  -5  -5  -3 802.097 20.8431   4
   5   5   3 766.950 20.8464   1
   5   5   3 752.090 21.0132   5
   5   5   3 769.977 21.1362   2
   5   5   3 754.469 21.0005   6
  -6  -5  -3 29.2207 1.40329   3
   6   5   3 29.6528 1.59636   2
   6   5   3 30.0972 1.39254   1
   6   5   3 32.1327 1.59310   6
   6   5   3 29.9575 1.47463   5
  -7  -5  -3 474.604 13.6892   5
   7   5   3 486.355 13.4724   4
   7   5   3 494.763 13.7093   2
   7   5   3 482.340 13.7572   6
  -8  -5  -3 23.9634 1.37911   5
  -8  -5  -3 23.6790 1.44074   1
   8   5   3 24.6174 1.52963   4
   8   5   3 21.9435 1.46043   2
   8   5   3 23.9373 1.57983   6
   8   5   3 22.5620 1.48871   3
   9   5   3 287.861 8.74366   3
 -10  -5  -3 185.767 6.42339   6
  10   5   3 185.919 6.23154   3
 -11  -5  -3 1.93368 0.84234   6
  11   5   3 -0.1827 0.70645   3
   8  -6  -3 17.8079 1.79655   3
   8  -6  -3 24.5408 2.09148   4
  -8   6   3 22.7104 1.97703   6
  -8   6   3 20.6330 2.07841   1
   7  -6  -3 117.813 4.49397   3
   7  -6  -3 117.634 4.62566   4
  -7   6   3 121.937 4.57734   6
  -7   6   3 114.987 4.67174   1
   6  -6  -3 25.9399 1.93849   4
   6  -6  -3 28.5257 1.85990   3
  -6   6   3 28.4627 1.89176   6
  -6   6   3 28.8399 2.02698   1
   5  -6  -3 54.6259 2.46516   3
   5  -6  -3 57.2328 2.65561   4
  -5   6   3 57.1506 2.53628   6
  -5   6   3 53.5173 2.61835   1
   4  -6  -3 2.94295 0.72909   4
   4  -6  -3 1.94444 0.56890   3
  -4   6   3 2.74601 0.74926   1
  -4   6   3 2.77306 0.69985   6
   3  -6  -3 39.7447 1.93568   4
   3  -6  -3 38.4703 1.78169   3
  -3   6   3 42.3869 1.97499   1
  -3   6   3 42.3716 1.93561   6
   2  -6  -3 47.3929 2.03339   4
   2  -6  -3 45.1539 1.86390   3
   2  -6  -3 46.0521 1.73938   2
  -2   6   3 48.3916 1.74255   5
  -2   6   3 45.6944 1.96122   6
  -2   6   3 48.0649 2.01654   1
   1  -6  -3 11.3543 0.89518   4
   1  -6  -3 10.3991 0.77846   3
  -1   6   3 11.3836 0.77176   5
  -1   6   3 14.2940 0.95160   1
  -1   6   3 10.1426 0.86278   6
  -1   6   3 9.96016 0.79703   2
   0  -6  -3 37.4424 1.46921   3
   0  -6  -3 37.8493 1.58110   4
   0   6   3 37.2690 1.59915   2
   0   6   3 35.3980 1.56481   1
   0   6   3 36.9913 1.56433   6
   0   6   3 37.6029 1.53908   5
  -1  -6  -3 818.771 22.2136   4
  -1  -6  -3 842.715 22.1633   3
   1   6   3 806.644 22.2201   6
   1   6   3 804.311 22.2791   5
   1   6   3 828.658 22.4019   2
   1   6   3 842.140 22.2438   1
  -2  -6  -3 0.31073 0.27915   4
  -2  -6  -3 0.06422 0.27216   3
   2   6   3 0.59104 0.30884   1
   2   6   3 0.25910 0.34275   5
   2   6   3 1.67569 0.46439   2
   2   6   3 0.22998 0.29364   6
  -3  -6  -3 5.77941 0.57817   4
  -3  -6  -3 4.85747 0.55019   3
   3   6   3 5.07197 0.57799   6
   3   6   3 4.97228 0.72726   2
   3   6   3 5.01459 0.67204   5
   3   6   3 4.72136 0.56283   1
  -4  -6  -3 1498.63 38.6049   3
  -4  -6  -3 1495.58 38.5782   4
   4   6   3 1421.62 38.9003   2
   4   6   3 1394.74 38.7715   5
   4   6   3 1467.13 38.5702   1
   4   6   3 1400.56 38.6319   6
  -5  -6  -3 32.6190 1.41387   3
  -5  -6  -3 32.5235 1.38869   4
   5   6   3 33.0712 1.45079   1
   5   6   3 31.8784 1.69087   2
   5   6   3 30.7178 1.57243   5
   5   6   3 32.5737 1.53936   6
  -6  -6  -3 66.2143 2.36561   4
  -6  -6  -3 65.0494 2.39030   3
   6   6   3 66.7241 2.67928   2
   6   6   3 65.7816 2.42322   1
   6   6   3 63.9609 2.55244   5
   6   6   3 65.3530 2.54150   6
  -7  -6  -3 17.9908 1.09517   4
  -7  -6  -3 15.8321 1.09347   3
   7   6   3 18.4260 1.29628   6
   7   6   3 17.7726 1.18635   1
   7   6   3 16.2878 1.32863   2
  -8  -6  -3 -0.0451 0.45546   5
  -8  -6  -3 -0.6402 0.29819   3
   8   6   3 -0.0868 0.54119   2
   8   6   3 -0.2019 0.50801   6
  -9  -6  -3 51.7716 2.38189   3
 -10  -6  -3 45.7216 2.43863   3
 -10  -6  -3 52.3075 2.68470   6
   8  -7  -3 3.56940 1.16853   3
  -8   7   3 2.09789 1.55846   6
   7  -7  -3 9.69359 1.30806   3
   7  -7  -3 12.5668 1.61164   4
  -7   7   3 9.95042 1.39770   6
  -7   7   3 10.6908 1.46145   1
   6  -7  -3 25.9102 1.82446   3
   6  -7  -3 26.9386 1.97211   4
  -6   7   3 26.0604 1.97421   1
  -6   7   3 24.4872 1.88673   6
   5  -7  -3 2.70436 0.85501   4
   5  -7  -3 0.37562 0.55016   3
  -5   7   3 0.15915 0.64941   1
  -5   7   3 -0.3097 0.60888   6
   4  -7  -3 134.252 4.54731   3
   4  -7  -3 135.597 4.76652   4
  -4   7   3 134.229 4.75165   1
  -4   7   3 135.974 4.64868   6
   3  -7  -3 2.22572 0.57334   3
   3  -7  -3 0.96904 0.57213   4
  -3   7   3 0.38896 0.52845   6
  -3   7   3 1.51924 0.62598   1
   2  -7  -3 68.3275 2.73871   4
   2  -7  -3 70.2049 2.44292   2
   2  -7  -3 66.3483 2.51596   3
  -2   7   3 69.4329 2.75401   1
  -2   7   3 70.2791 2.66992   6
  -2   7   3 67.1872 2.39120   5
   1  -7  -3 23.5197 1.17783   3
   1  -7  -3 21.6759 1.32243   4
  -1   7   3 20.7497 1.27554   6
  -1   7   3 22.1851 1.32739   1
  -1   7   3 23.3840 1.20514   5
   0  -7  -3 87.1615 2.80640   3
   0  -7  -3 88.1251 3.02111   4
   0   7   3 82.4106 2.96729   1
   0   7   3 81.9259 2.98450   2
   0   7   3 84.7834 2.90828   6
   0   7   3 85.2748 2.93064   5
  -1  -7  -3 129.775 3.99281   4
  -1  -7  -3 126.244 3.82141   3
   1   7   3 115.647 3.95759   5
   1   7   3 122.535 3.96503   1
   1   7   3 128.520 3.92530   6
   1   7   3 120.356 4.08459   2
  -2  -7  -3 96.8905 3.03024   3
  -2  -7  -3 96.2657 3.13285   4
   2   7   3 90.7912 3.32064   2
   2   7   3 85.7442 3.17854   5
   2   7   3 97.2428 3.09972   6
   2   7   3 92.3407 3.10269   1
  -3  -7  -3 302.794 8.68333   3
  -3  -7  -3 310.616 8.77347   4
   3   7   3 299.076 9.05199   2
   3   7   3 307.083 8.95206   5
   3   7   3 317.389 8.75404   6
   3   7   3 307.911 8.77105   1
  -4  -7  -3 393.931 10.9367   4
  -4  -7  -3 390.082 10.8637   3
   4   7   3 382.372 11.1380   5
   4   7   3 380.434 11.2612   2
   4   7   3 390.280 10.9316   6
   4   7   3 396.690 10.9415   1
  -5  -7  -3 16.3987 1.00586   3
  -5  -7  -3 20.9361 1.11740   4
   5   7   3 17.8760 1.24058   5
   5   7   3 18.4634 1.37939   2
   5   7   3 18.5698 1.11741   1
   5   7   3 19.0042 1.15158   6
  -6  -7  -3 7.34683 0.75215   3
  -6  -7  -3 7.89263 0.73922   4
   6   7   3 6.45462 0.96071   2
   6   7   3 7.72584 0.83862   1
   6   7   3 8.91788 1.01152   5
   6   7   3 6.76804 0.84570   6
  -7  -7  -3 156.928 5.00173   3
   7   7   3 155.567 5.19087   5
   7   7   3 152.481 5.32112   2
   7   7   3 168.967 5.22880   6
  -8  -7  -3 14.4957 1.44391   5
   8   7   3 15.9756 1.48263   2
   7  -8  -3 3.13543 1.59217   4
   7  -8  -3 1.53165 0.89780   3
  -7   8   3 2.10798 1.31491   1
  -7   8   3 1.36924 0.98946   6
   6  -8  -3 13.9899 1.50379   3
   6  -8  -3 14.8004 1.67767   4
  -6   8   3 13.7929 1.59437   1
  -6   8   3 13.3452 1.53910   6
   5  -8  -3 7.52159 1.22795   4
   5  -8  -3 6.41710 1.00801   3
  -5   8   3 7.23141 1.15570   1
  -5   8   3 7.12651 1.13486   6
   4  -8  -3 16.0420 1.49528   4
   4  -8  -3 13.4510 1.26527   3
  -4   8   3 14.6282 1.52089   1
  -4   8   3 14.9277 1.39224   6
   3  -8  -3 24.3297 1.67852   4
   3  -8  -3 23.1343 1.44506   3
  -3   8   3 24.4436 1.70902   1
  -3   8   3 26.4142 1.65000   6
   2  -8  -3 4.07291 0.80720   4
   2  -8  -3 4.19689 0.66770   3
   2  -8  -3 3.70052 0.58839   2
  -2   8   3 2.60423 0.66157   6
  -2   8   3 3.83474 0.77666   1
  -2   8   3 3.30330 0.58112   5
   1  -8  -3 3.84405 0.59721   3
   1  -8  -3 3.18294 0.59357   2
   1  -8  -3 3.16179 0.70483   4
  -1   8   3 4.17865 0.73506   1
  -1   8   3 4.63804 0.65867   5
  -1   8   3 3.88649 0.67349   6
   0  -8  -3 0.31589 0.32478   3
   0  -8  -3 -0.0679 0.43074   4
   0   8   3 0.31790 0.44240   1
   0   8   3 -0.1815 0.44852   5
   0   8   3 1.34917 0.44283   6
  -1  -8  -3 16.4267 0.97884   3
  -1  -8  -3 16.8897 1.16562   4
   1   8   3 16.2346 1.26921   2
   1   8   3 17.5740 1.09455   6
   1   8   3 17.2878 1.20538   5
   1   8   3 15.3604 1.14313   1
  -2  -8  -3 -0.2176 0.39830   4
  -2  -8  -3 0.12217 0.31215   3
   2   8   3 -0.3809 0.43907   2
   2   8   3 -0.2083 0.36374   1
   2   8   3 0.03784 0.20138   6
   2   8   3 0.10687 0.45323   5
  -3  -8  -3 220.318 6.35639   4
   3   8   3 197.971 6.56449   2
   3   8   3 206.507 6.48789   5
   3   8   3 212.050 6.32261   1
  -4  -8  -3 1.46857 0.49949   4
   4   8   3 1.48586 0.49029   1
   4   8   3 0.74337 0.48423   5
   4   8   3 1.00860 0.63708   2
  -5  -8  -3 21.2898 1.26722   4
   5   8   3 18.6701 1.41983   5
   5   8   3 18.9618 1.22471   1
   5   8   3 16.2753 1.46474   2
   6   8   3 38.9373 2.17647   2
   6   8   3 42.1624 2.12434   5
   7   8   3 3.12079 0.74483   5
   7   8   3 2.93301 0.83547   2
  -9  -8  -3 1.50226 0.79747   2
  -9  -8  -3 -0.5018 0.67018   5
   6  -9  -3 3.77041 1.14251   4
   6  -9  -3 4.60043 1.09392   3
  -6   9   3 2.31104 1.03945   6
  -6   9   3 3.25321 1.13806   1
   5  -9  -3 9.10130 1.20931   3
   5  -9  -3 8.57161 1.32882   4
  -5   9   3 8.81005 1.40181   1
  -5   9   3 10.1362 1.33535   6
   4  -9  -3 -0.0851 0.62926   4
   4  -9  -3 0.38638 0.60973   3
  -4   9   3 -0.2426 0.60029   6
  -4   9   3 1.16624 0.81493   1
   3  -9  -3 3.73640 0.89486   4
  -3   9   3 7.39086 1.07627   6
  -3   9   3 5.28442 1.00813   1
   2  -9  -3 1.42528 0.68686   4
  -2   9   3 1.03909 0.67939   1
   1  -9  -3 36.2930 1.97293   4
   1  -9  -3 35.7326 1.81329   2
  -1   9   3 35.4220 1.94882   1
  -1   9   3 36.1489 1.75250   5
   0  -9  -3 1.04444 0.61121   4
   0  -9  -3 1.40902 0.58579   2
   0   9   3 1.05283 0.54589   1
   0   9   3 1.52980 0.59924   5
  -1  -9  -3 39.5794 1.98953   2
  -1  -9  -3 39.2448 1.95637   4
   1   9   3 40.0637 1.95066   1
   1   9   3 42.5208 2.00863   5
  -2  -9  -3 19.7574 1.37886   4
   2   9   3 19.3955 1.28214   1
   2   9   3 19.7576 1.44281   5
  -3  -9  -3 0.45685 0.49664   4
   3   9   3 0.76179 0.47032   1
   3   9   3 0.46639 0.59778   5
   3   9   3 0.53971 0.59872   2
  -4  -9  -3 26.3226 1.50348   4
   4   9   3 25.0410 1.48116   1
   4   9   3 25.5795 1.67494   5
   4   9   3 25.3508 1.77563   2
   5   9   3 1.32153 0.71723   5
   5   9   3 1.97218 0.77140   2
   6   9   3 11.8762 1.29679   5
   6   9   3 6.78436 1.12946   2
   7   9   3 0.54596 0.63563   5
  -8  -9  -3 7.69307 1.18758   2
  -9  -9  -3 2.41403 0.94015   5
  -9  -9  -3 3.54524 0.97024   2
   5 -10  -3 2.75266 1.13800   4
  -5  10   3 1.89201 1.08066   1
   4 -10  -3 17.7648 1.79305   4
  -4  10   3 17.4225 1.84247   1
   3 -10  -3 81.9930 3.58555   4
  -3  10   3 82.5322 3.64945   1
   2 -10  -3 0.67531 0.74019   4
  -2  10   3 -0.3380 0.56424   1
   1 -10  -3 8.44467 1.15035   4
   1 -10  -3 8.83096 1.06163   2
  -1  10   3 9.11966 1.04387   5
  -1  10   3 10.0434 1.21637   1
   0 -10  -3 7.93945 1.07259   4
   0 -10  -3 8.56514 1.05827   2
   0  10   3 6.63587 0.92375   5
   0  10   3 6.21501 0.97390   1
  -1 -10  -3 45.4933 2.23541   4
  -1 -10  -3 38.5681 2.15098   2
   1  10   3 49.2371 2.25535   5
   1  10   3 42.9486 2.13285   1
  -2 -10  -3 3.33178 0.76946   4
  -2 -10  -3 2.91184 0.80786   2
   2  10   3 1.69279 0.71373   5
   2  10   3 3.51894 0.74780   1
  -3 -10  -3 30.4470 1.93583   2
  -3 -10  -3 30.4523 1.81408   4
   3  10   3 26.5412 1.65039   1
   3  10   3 29.3318 1.85418   5
  -4 -10  -3 0.73140 0.69924   2
   4  10   3 0.72510 0.67358   5
  -5 -10  -3 109.154 4.29260   2
   5  10   3 112.670 4.29307   5
  -6 -10  -3 2.47559 0.84840   2
   6  10   3 2.43202 0.82690   5
  -7 -10  -3 23.8223 1.96217   2
   7  10   3 24.0960 1.88236   5
  -8 -10  -3 5.35491 1.16124   2
   3 -11  -3 80.5011 3.70017   4
  -3  11   3 82.4399 3.71824   1
   2 -11  -3 5.06769 1.10085   4
  -2  11   3 6.80650 1.15615   1
   1 -11  -3 86.4806 3.72989   4
  -1  11   3 88.2584 3.65009   1
   0 -11  -3 0.12653 0.69972   4
   0 -11  -3 0.52271 0.67439   2
   0  11   3 0.16334 0.63074   1
   0  11   3 0.29484 0.64959   5
  -1 -11  -3 29.2899 1.96300   2
  -1 -11  -3 35.1477 2.05870   4
   1  11   3 34.6827 2.03996   5
   1  11   3 34.7028 1.97965   1
  -2 -11  -3 17.9693 1.66032   2
   2  11   3 17.4512 1.59663   5
   2  11   3 19.4820 2.37417   1
  -3 -11  -3 22.1829 1.86122   2
   3  11   3 23.9066 1.81483   5
  -4 -11  -3 46.7472 2.65939   2
   4  11   3 47.4542 2.52266   5
  -5 -11  -3 2.42427 0.95743   2
   5  11   3 2.10424 0.90027   5
  -6 -11  -3 1.11976 0.88169   2
   6  11   3 1.79738 0.91421   5
   2 -12  -3 45.9374 2.82660   4
  -2  12   3 46.2845 2.71207   1
   1 -12  -3 53.1327 2.91520   4
  -1  12   3 47.6842 2.65987   1
   0 -12  -3 -0.6781 0.62275   2
   0 -12  -3 -0.1157 0.75356   4
   0  12   3 -0.1103 0.66284   1
   0  12   3 0.61548 0.73540   5
  -1 -12  -3 0.18251 0.74651   2
   1  12   3 1.29182 0.78824   5
  -2 -12  -3 16.0364 1.64224   2
   2  12   3 18.4632 1.76734   5
  -3 -12  -3 41.2647 2.56217   2
   3  12   3 48.8363 2.66289   5
  -4 -12  -3 57.8090 3.13958   2
   4  12   3 62.9055 3.15798   5
   2  12  -4 59.6502 4.34387   1
  -2 -12   4 51.8274 4.14989   4
   1  12  -4 6.11765 1.26683   5
   1  12  -4 5.09878 1.34120   1
  -1 -12   4 3.42621 1.06221   2
  -1 -12   4 3.04332 1.34736   4
   0  12  -4 7.53753 1.20722   5
   0 -12   4 8.35779 1.32790   2
  -1  12  -4 0.55202 0.73980   5
   1 -12   4 -0.3850 0.67804   2
   5  11  -4 36.0744 2.31104   5
   5  11  -4 40.9235 2.52673   1
  -5 -11   4 33.2894 2.36415   4
  -5 -11   4 35.3657 2.41734   2
   4  11  -4 6.69723 1.21350   1
   4  11  -4 7.15573 1.21745   5
  -4 -11   4 5.97970 1.17643   4
  -4 -11   4 6.24176 1.22292   2
   3  11  -4 138.984 5.30178   1
   3  11  -4 139.426 5.15348   5
  -3 -11   4 143.461 5.35735   4
  -3 -11   4 147.003 5.38336   2
   2  11  -4 54.2958 2.72804   5
   2  11  -4 46.7124 2.70687   1
  -2 -11   4 51.4625 2.83065   2
  -2 -11   4 53.5333 2.85778   4
   1  11  -4 37.6349 2.33701   1
   1  11  -4 36.9452 2.20796   5
  -1 -11   4 34.4231 2.25189   2
  -1 -11   4 35.6461 2.39515   4
   0  11  -4 152.620 5.33262   5
   0  11  -4 152.521 5.60107   1
   0 -11   4 155.182 5.68909   4
   0 -11   4 145.202 5.41925   2
  -1  11  -4 1.61842 0.73586   5
  -1  11  -4 2.04934 0.93514   1
   1 -11   4 1.36567 0.94705   4
   1 -11   4 2.27339 0.87477   2
  -2  11  -4 132.969 4.64430   5
  -2  11  -4 121.251 4.95109   1
   2 -11   4 125.163 4.71054   2
   2 -11   4 124.115 5.11182   4
  -3  11  -4 0.18244 1.31330   1
   3 -11   4 -0.0124 1.38696   4
   7  10  -4 41.5897 2.40449   5
   7  10  -4 42.6750 3.04609   1
  -7 -10   4 35.7648 2.37409   2
  -7 -10   4 37.3208 2.75231   4
   6  10  -4 115.227 4.73462   1
   6  10  -4 120.972 4.58868   5
  -6 -10   4 117.590 4.64901   2
  -6 -10   4 122.007 4.73576   4
   5  10  -4 5.16427 1.00342   5
   5  10  -4 2.25091 0.90477   1
  -5 -10   4 3.89657 1.02480   4
  -5 -10   4 2.09940 0.89063   2
   4  10  -4 419.732 12.8271   1
   4  10  -4 442.179 12.7455   5
  -4 -10   4 431.970 12.8379   2
  -4 -10   4 422.779 12.8309   4
   3  10  -4 6.29426 1.07979   5
   3  10  -4 6.08064 1.10454   1
  -3 -10   4 5.23085 1.01996   2
  -3 -10   4 8.25137 1.26714   4
   2  10  -4 24.1498 1.82127   1
   2  10  -4 22.1423 1.68929   5
  -2 -10   4 22.1519 1.78001   2
  -2 -10   4 22.2677 1.80353   4
   1  10  -4 181.032 6.21381   1
   1  10  -4 178.334 6.03699   5
  -1 -10   4 185.618 6.20116   2
  -1 -10   4 183.906 6.28089   4
   0  10  -4 92.5639 3.85386   1
   0  10  -4 101.477 3.73658   5
   0 -10   4 94.0463 3.79632   2
   0 -10   4 93.3133 3.90413   4
  -1  10  -4 95.5740 3.94635   1
  -1  10  -4 94.4925 3.66226   5
   1 -10   4 96.9216 3.80245   2
   1 -10   4 94.6961 4.01295   4
  -2  10  -4 10.8513 1.39195   1
  -2  10  -4 15.7769 1.34053   5
   2 -10   4 11.9556 1.31254   2
   2 -10   4 13.8664 1.65286   4
  -3  10  -4 -0.6424 0.64632   1
   3 -10   4 -0.2779 0.77053   4
  -4  10  -4 28.6344 2.20855   1
   4 -10   4 28.2189 2.29743   4
   8   9  -4 0.70764 0.96842   1
  -8  -9   4 1.61872 1.05914   4
   7   9  -4 238.660 7.91834   1
   7   9  -4 245.050 7.61901   5
  -7  -9   4 223.778 7.72389   4
  -7  -9   4 231.200 7.58680   2
   6   9  -4 6.41928 1.03376   5
   6   9  -4 6.06455 1.16255   1
  -6  -9   4 8.57318 1.26571   4
  -6  -9   4 7.12070 1.11315   2
   5   9  -4 136.038 5.00470   1
   5   9  -4 136.240 4.84017   5
  -5  -9   4 131.250 4.93580   4
  -5  -9   4 141.304 4.94824   2
   4   9  -4 23.2192 1.59028   5
   4   9  -4 22.9125 1.70911   1
  -4  -9   4 23.3402 1.76638   4
  -4  -9   4 21.4987 1.69177   2
   3   9  -4 132.745 4.80578   1
   3   9  -4 133.581 4.70657   5
  -3  -9   4 137.244 4.83099   2
  -3  -9   4 134.530 4.86389   4
   2   9  -4 0.95601 0.63505   5
   2   9  -4 0.89242 0.61861   1
  -2  -9   4 0.23658 0.62304   4
  -2  -9   4 -0.2716 0.52462   2
   1   9  -4 190.762 6.35491   1
   1   9  -4 202.658 6.28627   5
  -1  -9   4 187.998 6.30876   2
  -1  -9   4 194.587 6.44676   4
   0   9  -4 5.32184 0.86250   5
   0   9  -4 4.16355 0.83060   1
   0  -9   4 5.37274 0.92159   2
   0  -9   4 4.84321 0.99229   4
  -1   9  -4 266.084 8.30268   1
  -1   9  -4 254.572 7.95486   5
   1  -9   4 272.428 8.37886   4
   1  -9   4 259.403 8.09712   2
  -2   9  -4 144.718 4.75741   5
  -2   9  -4 140.365 5.10811   1
   2  -9   4 140.774 4.86645   2
   2  -9   4 138.773 5.15879   4
  -3   9  -4 1.70387 0.83835   1
  -3   9  -4 1.16990 0.56916   5
   3  -9   4 0.64950 0.78032   4
   3  -9   4 1.02524 0.59985   2
  -4   9  -4 99.8130 4.08062   1
   4  -9   4 91.3642 4.06701   4
  -5   9  -4 3.96196 1.12452   1
   5  -9   4 3.42319 1.13379   4
  -6   9  -4 135.493 5.44425   1
   6  -9   4 141.842 5.57693   4
   8   8  -4 23.5045 2.01599   1
  -8  -8   4 22.5082 1.94265   4
   7   8  -4 155.263 5.42173   5
   7   8  -4 167.100 5.85028   1
  -7  -8   4 162.301 5.71204   4
  -7  -8   4 156.224 5.43504   2
   6   8  -4 3.75075 0.79103   5
   6   8  -4 3.37636 0.88892   1
  -6  -8   4 4.05155 0.86417   2
  -6  -8   4 3.76067 0.89039   4
   5   8  -4 90.2504 3.48606   5
   5   8  -4 92.2181 3.65580   1
  -5  -8   4 87.5454 3.50200   2
  -5  -8   4 92.0400 3.63806   4
   4   8  -4 109.396 4.11384   1
   4   8  -4 113.890 4.01498   5
  -4  -8   4 112.602 4.08461   2
  -4  -8   4 110.449 4.11992   4
   3   8  -4 6.66213 0.93972   5
   3   8  -4 8.55544 1.08350   1
  -3  -8   4 7.87603 1.03563   2
  -3  -8   4 6.70123 0.95244   4
   2   8  -4 873.239 24.0761   1
   2   8  -4 870.284 23.9392   5
  -2  -8   4 842.379 23.9977   2
  -2  -8   4 899.211 24.1489   4
   1   8  -4 5.47203 0.86556   5
   1   8  -4 3.39503 0.78242   1
  -1  -8   4 4.10676 0.80064   4
  -1  -8   4 3.41794 0.75435   2
   0   8  -4 111.727 3.86882   5
   0   8  -4 106.289 3.97876   1
   0  -8   4 110.073 3.94465   2
   0  -8   4 115.126 4.10889   4
  -1   8  -4 37.7727 2.05214   1
  -1   8  -4 38.6301 1.87359   5
   1  -8   4 38.8192 2.10723   4
   1  -8   4 36.9567 1.92572   2
  -2   8  -4 18.9192 1.50151   1
  -2   8  -4 17.5799 1.27244   5
   2  -8   4 17.5656 1.43605   4
   2  -8   4 16.0347 1.33063   2
  -3   8  -4 0.43966 0.47534   5
  -3   8  -4 -0.2188 0.58597   1
   3  -8   4 0.71939 0.51212   2
   3  -8   4 0.22793 0.64397   4
  -4   8  -4 188.526 6.42776   1
   4  -8   4 191.051 6.52664   4
  -5   8  -4 328.310 10.2047   1
   5  -8   4 325.260 10.2865   4
  -6   8  -4 56.8253 3.08545   1
   6  -8   4 56.4155 3.07193   4
  -7   8  -4 26.0595 2.26051   1
   7  -8   4 23.6311 2.19289   4
   9   7  -4 66.3600 3.33459   1
  -9  -7   4 60.4331 3.15807   4
   8   7  -4 209.032 7.12381   1
  -8  -7   4 206.900 6.99795   4
   7   7  -4 34.9837 2.17292   1
   7   7  -4 36.6490 1.95186   5
  -7  -7   4 34.2169 1.90313   2
  -7  -7   4 36.1751 2.15088   4
   6   7  -4 58.4850 2.50327   5
   6   7  -4 55.0345 2.65514   1
  -6  -7   4 55.6163 2.49538   2
  -6  -7   4 56.7059 2.64702   4
   5   7  -4 30.0187 1.79764   1
   5   7  -4 31.1619 1.68141   5
  -5  -7   4 30.1029 1.70405   2
  -5  -7   4 30.4870 1.77638   4
   4   7  -4 31.9016 1.81090   1
   4   7  -4 32.2271 1.67932   5
  -4  -7   4 35.8777 1.90326   4
  -4  -7   4 33.3566 1.78433   2
   3   7  -4 26.7143 1.56879   1
   3   7  -4 22.6611 1.39820   5
  -3  -7   4 24.2860 1.53344   2
  -3  -7   4 27.9961 1.62494   4
   2   7  -4 17.0857 1.25835   1
   2   7  -4 15.6921 1.19332   5
  -2  -7   4 14.3547 1.19448   2
  -2  -7   4 14.3083 1.17826   4
   1   7  -4 2.68025 0.58327   5
   1   7  -4 2.63063 0.59178   1
  -1  -7   4 3.30277 0.66950   2
  -1  -7   4 3.03857 0.65063   4
   0   7  -4 28.5022 1.61696   1
   0   7  -4 31.0237 1.57819   5
   0  -7   4 33.1320 1.74454   4
   0  -7   4 28.9605 1.61471   2
  -1   7  -4 153.689 5.10798   1
  -1   7  -4 152.913 4.89027   5
   1  -7   4 158.923 5.02839   2
   1  -7   4 156.386 5.14715   4
  -2   7  -4 1.34600 0.48333   5
  -2   7  -4 2.50427 0.69022   1
   2  -7   4 2.46588 0.59777   2
   2  -7   4 3.39693 0.79120   4
  -3   7  -4 129.313 4.54665   1
  -3   7  -4 125.917 4.13719   5
   3  -7   4 127.625 4.60145   4
   3  -7   4 131.765 4.31141   2
  -4   7  -4 362.135 10.1392   5
  -4   7  -4 356.930 10.6868   1
   4  -7   4 346.969 10.7156   4
   4  -7   4 357.581 10.2768   2
  -5   7  -4 0.14658 0.68715   1
   5  -7   4 0.13186 0.70158   4
  -6   7  -4 88.4214 3.81521   1
   6  -7   4 90.5065 3.86805   4
  -7   7  -4 2.49120 0.95250   1
   7  -7   4 3.46985 1.10473   4
  -8   7  -4 -0.8998 0.74401   1
   8  -7   4 -0.6188 0.83345   4
   8   6  -4 1.02315 0.78439   1
   7   6  -4 2.18595 0.60862   5
   7   6  -4 3.17321 0.83229   1
  -7  -6   4 1.79658 0.67763   4
  -7  -6   4 2.20110 0.62553   2
   6   6  -4 6.36099 0.83016   5
   6   6  -4 5.38420 0.89725   1
  -6  -6   4 5.02258 0.76430   2
  -6  -6   4 4.18191 0.84212   4
   5   6  -4 9.66848 0.93543   5
  -5  -6   4 13.4621 1.08091   2
  -5  -6   4 8.24786 0.98476   4
   4   6  -4 139.526 4.49771   5
   4   6  -4 140.389 4.66377   1
  -4  -6   4 137.621 4.64184   4
  -4  -6   4 138.805 4.53607   2
   3   6  -4 466.244 13.0260   5
   3   6  -4 469.945 13.1714   1
  -3  -6   4 456.723 13.0764   2
   2   6  -4 379.228 10.8922   5
   2   6  -4 385.646 11.0186   1
  -2  -6   4 381.860 10.9716   2
  -2  -6   4 394.363 11.0596   4
   1   6  -4 28.6202 1.43684   1
   1   6  -4 28.1113 1.42356   5
  -1  -6   4 28.0981 1.52279   4
  -1  -6   4 27.1198 1.46048   2
   0   6  -4 86.9382 3.05667   1
   0   6  -4 81.9318 2.90803   5
   0  -6   4 84.4844 3.00098   2
   0  -6   4 84.5738 3.07599   4
  -1   6  -4 0.04700 0.34624   5
  -1   6  -4 0.05680 0.38723   1
   1  -6   4 -0.4695 0.39224   4
   1  -6   4 0.24363 0.34069   2
  -2   6  -4 8.85156 0.81840   5
  -2   6  -4 8.45052 0.94408   1
   2  -6   4 8.39307 0.94974   4
   2  -6   4 6.76818 0.75541   2
  -3   6  -4 5.17913 0.66211   5
  -3   6  -4 5.66838 0.82561   1
  -3   6  -4 6.29472 0.60821   6
   3  -6   4 4.00449 0.76241   4
   3  -6   4 6.13537 0.76388   2
   3  -6   4 6.50218 0.62621   3
  -4   6  -4 301.366 8.64806   6
  -4   6  -4 309.583 8.61451   5
  -4   6  -4 293.487 9.04336   1
   4  -6   4 308.153 8.63219   3
   4  -6   4 303.176 8.73974   2
   4  -6   4 293.606 9.11851   4
  -5   6  -4 13.8643 1.13761   6
  -5   6  -4 15.9660 1.44408   1
   5  -6   4 15.2518 1.15397   3
   5  -6   4 14.2900 1.42874   4
  -6   6  -4 9.84718 1.08185   6
  -6   6  -4 9.01351 1.20340   1
   6  -6   4 11.8439 1.15367   3
   6  -6   4 11.0461 1.38476   4
  -7   6  -4 29.3176 1.84088   6
  -7   6  -4 34.1153 2.17411   1
   7  -6   4 33.6300 1.94322   3
   7  -6   4 31.9875 2.17781   4
  -8   6  -4 1.66498 0.91562   1
  -8   6  -4 0.51111 0.71454   6
   8  -6   4 0.94544 0.84395   4
   8  -6   4 1.90447 0.82820   3
  -9   6  -4 21.3760 1.92962   6
   9  -6   4 25.9905 2.02462   3
  10   5  -4 24.7307 2.11298   4
 -10  -5   4 23.0963 2.22836   1
   9   5  -4 10.9394 1.37931   4
  -9  -5   4 13.1075 1.60249   1
   8   5  -4 0.72327 0.67780   1
   8   5  -4 0.75445 0.68372   4
   7   5  -4 0.45383 0.56395   4
   7   5  -4 0.01430 0.53315   1
   6   5  -4 0.66528 0.54218   4
   6   5  -4 1.21317 0.59166   1
   6   5  -4 0.30875 0.41354   5
  -6  -5   4 1.14234 0.49502   2
   5   5  -4 24.2109 1.29604   5
   5   5  -4 26.3644 1.53652   1
  -5  -5   4 23.7088 1.32973   2
   4   5  -4 228.658 6.65650   5
   4   5  -4 224.264 6.82490   1
  -4  -5   4 220.309 6.78705   4
  -4  -5   4 225.285 6.69099   2
   2   5  -4 39.6500 1.67261   5
   2   5  -4 39.8715 1.74002   1
  -2  -5   4 40.9189 1.77474   4
  -2  -5   4 39.6617 1.71684   2
   1   5  -4 0.48875 0.33584   1
   1   5  -4 0.91837 0.37364   5
  -1  -5   4 0.33952 0.34094   4
  -1  -5   4 0.32530 0.34155   2
   0   5  -4 13.6845 0.93544   1
   0   5  -4 11.7640 0.83700   5
   0  -5   4 13.2175 0.92349   2
   0  -5   4 13.6659 0.98336   4
  -1   5  -4 54.6032 2.01572   5
  -1   5  -4 51.2944 2.09384   1
  -1   5  -4 56.2004 1.64980   6
   1  -5   4 56.1037 1.62171   3
   1  -5   4 50.8110 2.11934   4
   1  -5   4 53.6411 2.07324   2
  -2   5  -4 158.144 4.32699   6
  -2   5  -4 143.888 4.51384   5
  -2   5  -4 134.563 4.63947   1
   2  -5   4 154.406 4.61670   2
   2  -5   4 149.867 4.25410   3
   2  -5   4 151.757 4.75608   4
  -3   5  -4 271.012 8.37277   1
  -3   5  -4 291.414 8.15050   5
   3  -5   4 292.777 8.02847   3
   3  -5   4 287.781 8.22319   2
   3  -5   4 288.317 8.47867   4
  -4   5  -4 30.9584 1.36515   5
  -4   5  -4 30.6136 1.45996   6
  -4   5  -4 30.6689 1.66784   1
   4  -5   4 29.6924 1.69510   4
   4  -5   4 31.0799 1.46527   2
   4  -5   4 29.5799 1.39956   3
  -5   5  -4 17.5840 1.37119   1
  -5   5  -4 18.1904 1.21337   6
   5  -5   4 17.5163 1.41922   4
   5  -5   4 18.8857 1.18708   3
  -6   5  -4 0.45485 0.58850   1
  -6   5  -4 -0.5637 0.44681   6
   6  -5   4 0.86734 0.66405   4
   6  -5   4 -0.1137 0.49581   3
  -7   5  -4 -0.0268 0.55696   6
  -7   5  -4 0.23415 0.64626   1
   7  -5   4 0.32401 0.57085   3
   7  -5   4 0.35637 0.61826   4
  -8   5  -4 10.9458 1.31165   6
  -8   5  -4 8.18633 1.22054   1
   8  -5   4 9.94190 1.24097   3
   8  -5   4 8.32133 1.30308   4
  -9   5  -4 7.38319 1.28553   1
  -9   5  -4 7.75000 1.24954   6
   9  -5   4 6.26231 1.22218   4
   9  -5   4 6.66674 1.14399   3
  10   4  -4 4.49887 1.15363   4
 -10  -4   4 4.86485 1.16662   1
   9   4  -4 0.79646 0.72121   4
  -9  -4   4 0.27950 0.75402   1
   8   4  -4 25.0731 2.00867   3
   8   4  -4 21.3251 1.66707   4
  -8  -4   4 22.7323 1.78219   1
   7   4  -4 12.6854 1.04522   3
   7   4  -4 9.46940 1.09977   4
   7   4  -4 9.20696 1.13129   1
  -7  -4   4 12.3360 0.95020   6
   6   4  -4 5.70230 0.85916   1
   6   4  -4 8.42418 0.80821   3
   6   4  -4 7.52875 0.93637   4
   6   4  -4 6.66390 0.70570   5
  -6  -4   4 6.61705 0.65340   6
  -6  -4   4 7.07039 0.75294   2
   5   4  -4 1.11805 0.50606   1
   5   4  -4 1.16618 0.38205   5
   5   4  -4 1.60221 0.40247   3
   5   4  -4 1.29235 0.52048   4
  -5  -4   4 0.88595 0.29840   6
  -5  -4   4 0.98182 0.40085   2
   4   4  -4 128.732 4.04543   5
   4   4  -4 133.780 3.85735   3
  -4  -4   4 126.534 4.09340   2
  -4  -4   4 135.526 3.85404   6
   3   4  -4 12.1263 0.82007   5
   3   4  -4 12.0254 0.91045   1
   3   4  -4 11.8364 0.57485   3
  -3  -4   4 11.2882 0.84074   2
  -3  -4   4 12.2832 0.91524   4
  -3  -4   4 11.6586 0.55024   6
   2   4  -4 41.0736 1.73952   1
   2   4  -4 43.8790 1.70770   5
   2   4  -4 45.3216 1.29361   3
  -2  -4   4 44.2642 1.79914   4
  -2  -4   4 48.4562 1.30329   6
  -2  -4   4 44.1038 1.75545   2
   1   4  -4 10.7752 0.77381   5
   1   4  -4 10.3275 0.73741   1
  -1  -4   4 10.5688 0.79565   4
   0   4  -4 293.844 8.29175   5
   0   4  -4 298.868 8.34117   1
   0  -4   4 290.716 8.37134   4
  -1   4  -4 0.87903 0.31924   5
  -1   4  -4 0.45903 0.31688   1
  -1   4  -4 0.78640 0.19371   6
   1  -4   4 0.82749 0.17456   3
   1  -4   4 1.13630 0.36460   4
   1  -4   4 0.63875 0.29501   2
  -2   4  -4 0.47678 0.22829   6
  -2   4  -4 0.54319 0.35489   1
  -2   4  -4 0.54017 0.28933   5
   2  -4   4 0.41562 0.20311   3
   2  -4   4 0.28210 0.31634   4
   2  -4   4 0.73220 0.33494   2
  -3   4  -4 7.13434 0.64719   5
  -3   4  -4 6.21624 0.62722   6
  -3   4  -4 6.15173 0.69935   1
   3  -4   4 6.21217 0.73714   4
   3  -4   4 7.79923 0.67934   2
   3  -4   4 7.09942 0.58483   3
  -4   4  -4 2.07743 0.46777   6
  -4   4  -4 3.35595 0.46633   5
  -4   4  -4 1.51056 0.49084   1
   4  -4   4 2.32588 0.45418   3
   4  -4   4 3.25915 0.51274   2
   4  -4   4 2.66593 0.60144   4
  -5   4  -4 5.94537 0.57453   5
  -5   4  -4 4.62608 0.74265   1
  -5   4  -4 4.91072 0.69966   6
   5  -4   4 7.13861 0.70151   2
   5  -4   4 4.72221 0.67366   3
   5  -4   4 4.14849 0.73715   4
  -6   4  -4 10.8588 1.15648   1
  -6   4  -4 9.16920 1.02232   6
   6  -4   4 10.7597 1.16988   4
   6  -4   4 7.23603 0.88134   3
  -7   4  -4 32.3388 1.91518   1
  -7   4  -4 30.7772 1.84938   6
   7  -4   4 34.5679 1.88253   3
   7  -4   4 32.6949 1.95059   4
  -8   4  -4 33.8898 2.05679   1
  -8   4  -4 28.8413 1.94951   6
   8  -4   4 31.5247 2.06044   4
   8  -4   4 34.5908 2.01962   3
  -9   4  -4 0.74589 0.76234   1
  -9   4  -4 -0.3367 0.76275   6
   9  -4   4 0.96822 0.79438   3
   9  -4   4 0.64445 0.81056   4
 -10   4  -4 4.89306 1.14874   1
 -10   4  -4 2.94265 1.19667   6
  10  -4   4 2.52527 1.09578   3
  10  -4   4 4.24407 1.09551   4
  10   3  -4 11.5387 1.53118   4
  10   3  -4 12.4927 1.45687   3
 -10  -3   4 11.6131 1.64597   1
 -10  -3   4 12.4102 1.39710   6
   9   3  -4 60.1153 2.74822   3
   9   3  -4 61.7427 2.98518   4
  -9  -3   4 58.8904 3.06744   1
  -9  -3   4 56.8821 2.67501   6
   8   3  -4 60.0419 2.58080   3
   8   3  -4 59.9374 2.78002   4
  -8  -3   4 58.4710 2.51835   6
  -8  -3   4 54.5574 2.78732   1
   7   3  -4 1.92433 0.72765   4
   7   3  -4 1.61890 0.58616   3
  -7  -3   4 2.66025 0.58629   6
   6   3  -4 25.2410 1.54881   1
   6   3  -4 27.6615 1.60146   4
   6   3  -4 27.1806 1.41587   3
  -6  -3   4 30.1052 1.33347   2
  -6  -3   4 28.2695 1.37716   6
   5   3  -4 33.7678 1.67845   4
   5   3  -4 35.4508 1.75331   1
   5   3  -4 35.3118 1.42914   5
   5   3  -4 37.2402 1.53849   3
  -5  -3   4 36.9796 1.48950   6
  -5  -3   4 36.8965 1.48966   2
   4   3  -4 1018.12 27.9962   1
   4   3  -4 1040.34 27.6774   3
   4   3  -4 1039.13 27.9765   4
   4   3  -4 990.373 27.6934   5
  -4  -3   4 1069.90 27.7829   2
  -4  -3   4 1059.90 27.6739   6
   3   3  -4 49.6764 1.86733   4
   3   3  -4 48.7003 1.71721   5
   3   3  -4 46.9643 1.57410   3
  -3  -3   4 44.2668 1.72598   2
  -3  -3   4 46.7069 1.54525   6
   2   3  -4 31.6781 1.32802   5
   2   3  -4 35.3419 1.11401   3
   2   3  -4 32.6378 1.39831   1
  -2  -3   4 35.5663 1.10291   6
  -2  -3   4 34.0693 1.42662   4
  -2  -3   4 31.4102 1.34518   2
   1   3  -4 187.348 5.64326   5
   1   3  -4 207.337 5.30391   3
  -1  -3   4 199.157 5.72904   4
  -1  -3   4 196.411 5.70373   2
  -1  -3   4 196.195 5.29662   6
   0   3  -4 20.8949 0.67251   3
   0   3  -4 19.4549 0.93276   1
   0   3  -4 20.4404 0.96318   5
   0  -3   4 19.2965 0.65285   6
   0  -3   4 20.0392 0.97370   4
   0  -3   4 19.3741 0.97643   2
  -1   3  -4 510.423 13.8341   1
  -1   3  -4 492.825 13.7870   5
   1  -3   4 494.714 13.8461   4
   1  -3   4 499.014 13.8354   2
   1  -3   4 540.417 13.5845   6
  -2   3  -4 5.76519 0.54771   5
  -2   3  -4 6.16409 0.60311   1
   2  -3   4 5.75929 0.44559   3
   2  -3   4 7.01983 0.63234   4
   2  -3   4 5.62847 0.48229   6
   2  -3   4 6.34221 0.58371   2
  -3   3  -4 20.2433 1.07185   1
  -3   3  -4 20.4057 0.95197   5
   3  -3   4 20.0388 0.93975   3
   3  -3   4 20.1255 1.08417   4
   3  -3   4 18.9648 0.98069   2
   3  -3   4 20.2440 0.98543   6
  -4   3  -4 11.1292 0.85418   1
  -4   3  -4 10.7709 0.70509   5
  -4   3  -4 10.2462 0.84823   6
   4  -3   4 10.7479 0.76130   2
   4  -3   4 11.7370 0.79972   3
   4  -3   4 16.1447 1.01616   4
  -5   3  -4 136.080 4.46929   6
  -5   3  -4 146.097 4.51153   1
  -5   3  -4 138.603 4.12859   5
   5  -3   4 138.849 4.22509   2
   5  -3   4 133.327 4.37819   3
   5  -3   4 144.742 4.55712   4
  -6   3  -4 0.25397 0.48257   6
  -6   3  -4 -0.4170 0.41066   1
   6  -3   4 0.37654 0.48632   4
   6  -3   4 0.01511 0.40543   3
  -7   3  -4 67.4350 2.85332   1
  -7   3  -4 69.2300 2.88284   6
   7  -3   4 71.2166 2.85924   3
   7  -3   4 68.6846 2.87032   4
  -8   3  -4 1.38727 0.68981   1
  -8   3  -4 1.21582 0.72404   6
   8  -3   4 0.77241 0.63446   4
   8  -3   4 0.96345 0.65343   3
  -9   3  -4 8.69505 1.31783   6
  -9   3  -4 11.3015 1.40379   1
   9  -3   4 9.09059 1.26724   3
   9  -3   4 10.1439 1.30170   4
 -10   3  -4 0.40557 0.88545   6
 -10   3  -4 2.44385 0.94415   1
  10  -3   4 2.00923 0.90869   3
  10  -3   4 0.95993 0.79252   4
  10   2  -4 55.2075 2.80871   3
  10   2  -4 59.2039 3.07173   4
 -10  -2   4 53.2447 2.78193   6
 -10  -2   4 57.0255 3.09402   1
   9   2  -4 7.43143 1.25565   4
   9   2  -4 8.01435 1.11785   3
  -9  -2   4 7.42546 1.09353   6
  -9  -2   4 6.97028 1.21349   1
   8   2  -4 51.5840 2.52347   4
   8   2  -4 49.0380 2.34901   3
  -8  -2   4 48.6892 2.56761   1
  -8  -2   4 50.7956 2.34378   6
   7   2  -4 241.853 7.50484   4
   7   2  -4 243.659 7.33886   3
  -7  -2   4 244.699 7.60848   1
  -7  -2   4 234.106 7.25889   6
   6   2  -4 56.2216 2.29368   3
   6   2  -4 56.2070 2.40262   4
  -6  -2   4 62.1565 2.30919   6
   5   2  -4 208.415 5.93964   5
   5   2  -4 200.561 6.35247   4
   5   2  -4 213.508 6.22077   3
   5   2  -4 201.972 6.39032   1
  -5  -2   4 225.193 6.01556   2
  -5  -2   4 212.336 6.19133   6
   4   2  -4 17.3257 1.07033   4
   4   2  -4 17.4471 0.93738   3
   4   2  -4 15.6984 1.01929   1
  -4  -2   4 19.2442 0.93556   6
  -4  -2   4 18.0018 0.87772   2
   3   2  -4 1037.76 26.8217   3
   3   2  -4 1022.58 27.0260   4
   3   2  -4 974.063 27.0145   1
   3   2  -4 968.217 26.8020   5
  -3  -2   4 1024.31 26.8001   6
  -3  -2   4 1009.37 26.8495   2
   2   2  -4 0.27482 0.21329   5
   2   2  -4 0.34561 0.24703   1
   2   2  -4 0.52460 0.27330   4
   2   2  -4 0.14953 0.16587   3
  -2  -2   4 -0.0466 0.20279   2
   1   2  -4 3250.03 84.9798   1
   1   2  -4 3183.58 84.0863   3
   1   2  -4 3059.70 84.5530   5
  -1  -2   4 3170.09 84.7932   4
  -1  -2   4 3150.45 84.7455   2
  -1  -2   4 3214.98 84.1989   6
   0   2  -4 242.833 6.02557   3
   0   2  -4 218.991 6.22011   5
   0   2  -4 222.360 6.19816   1
   0  -2   4 221.330 6.00617   6
   0  -2   4 214.205 6.23794   2
   0  -2   4 210.936 6.20441   4
  -1   2  -4 436.333 11.6341   5
  -1   2  -4 439.829 11.4475   3
  -1   2  -4 433.161 11.5963   1
   1  -2   4 418.995 11.6412   2
   1  -2   4 409.250 11.6053   4
   1  -2   4 424.795 11.4603   6
  -2   2  -4 112.156 3.31790   1
  -2   2  -4 108.838 3.30140   5
   2  -2   4 107.580 3.25043   6
   2  -2   4 113.737 3.22184   3
   2  -2   4 105.543 3.31845   4
   2  -2   4 111.364 3.33985   2
  -3   2  -4 1.39156 0.29718   5
  -3   2  -4 0.67785 0.28989   1
   3  -2   4 1.16625 0.33454   4
   3  -2   4 1.30485 0.32900   6
   3  -2   4 1.04067 0.29053   3
   3  -2   4 0.70534 0.27484   2
  -4   2  -4 242.627 6.84785   5
  -4   2  -4 246.729 7.02102   1
   4  -2   4 242.054 7.05384   6
   4  -2   4 248.510 6.92708   2
   4  -2   4 249.207 7.08355   4
   4  -2   4 236.513 6.97134   3
  -5   2  -4 160.251 4.53405   5
  -5   2  -4 151.106 4.78887   1
   5  -2   4 155.893 4.82607   4
   5  -2   4 149.375 4.76348   3
   5  -2   4 158.500 4.61045   2
  -6   2  -4 229.316 6.69307   1
  -6   2  -4 215.862 6.76726   6
   6  -2   4 215.044 6.66734   4
   6  -2   4 222.168 6.66996   3
  -7   2  -4 39.9434 2.14050   6
  -7   2  -4 43.7939 2.09849   1
   7  -2   4 45.7807 2.10108   4
   7  -2   4 44.7320 2.10503   3
  -8   2  -4 140.112 4.79527   1
  -8   2  -4 140.811 4.91966   6
   8  -2   4 137.899 4.79938   3
   8  -2   4 130.488 4.72503   4
  -9   2  -4 2.33551 0.80851   1
  -9   2  -4 1.28134 0.82353   6
   9  -2   4 1.24198 0.72392   3
   9  -2   4 1.96415 0.77088   4
 -10   2  -4 23.5945 2.04966   6
 -10   2  -4 23.3263 1.85818   1
  10  -2   4 23.5071 1.86018   4
  10  -2   4 23.9019 1.93366   3
 -11   2  -4 6.19358 1.21337   1
  11  -2   4 8.04755 1.37146   4
  10   1  -4 -0.2956 0.71237   3
  10   1  -4 0.62487 0.83766   4
 -10  -1   4 0.46742 0.80384   1
 -10  -1   4 0.17838 0.74127   6
   9   1  -4 211.520 6.83707   3
   9   1  -4 206.041 6.93646   4
  -9  -1   4 197.991 6.67417   6
  -9  -1   4 205.593 7.01271   1
   8   1  -4 80.3792 3.34230   4
   8   1  -4 77.4675 3.23007   3
  -8  -1   4 77.9588 3.42724   1
  -8  -1   4 81.2785 3.21353   6
   7   1  -4 188.315 6.08321   3
   7   1  -4 193.893 6.25133   4
  -7  -1   4 189.871 6.05721   6
  -7  -1   4 198.678 6.31139   1
   6   1  -4 24.4647 1.49228   4
   6   1  -4 24.2403 1.38115   3
  -6  -1   4 23.5534 1.37158   6
  -6  -1   4 21.7906 1.46699   1
   5   1  -4 500.655 14.4296   4
   5   1  -4 534.047 14.3396   3
   5   1  -4 522.482 13.8748   5
  -5  -1   4 529.150 14.3136   6
  -5  -1   4 550.139 13.9158   2
  -5  -1   4 463.936 14.4015   1
   4   1  -4 144.755 4.56904   1
   4   1  -4 150.012 4.18547   5
   4   1  -4 141.329 4.54561   4
   4   1  -4 144.063 4.44665   3
  -4  -1   4 153.121 4.21409   2
  -4  -1   4 149.665 4.44121   6
   3   1  -4 124.663 3.86503   1
   3   1  -4 126.165 3.84979   4
   3   1  -4 121.416 3.71773   3
  -3  -1   4 126.150 3.72785   6
  -3  -1   4 124.789 3.61960   2
   2   1  -4 3096.55 89.7736   4
   2   1  -4 3385.21 90.6370   3
   2   1  -4 3481.41 91.4396   1
   2   1  -4 3418.30 90.7776   5
  -2  -1   4 3673.04 91.1466   2
  -2  -1   4 3383.15 90.8438   6
   1   1  -4 16.8032 0.74416   4
   1   1  -4 16.5727 0.67591   3
   1   1  -4 17.1001 0.75645   1
   1   1  -4 16.4103 0.73836   5
  -1  -1   4 16.5959 0.70448   6
  -1  -1   4 17.3527 0.76292   2
   0   1  -4 36.6080 1.17955   3
   0   1  -4 33.9390 1.25365   5
   0  -1   4 35.8695 1.17837   6
   0  -1   4 35.0552 1.20889   4
   0  -1   4 33.7199 1.27304   2
  -1   1  -4 82.8199 2.32519   1
  -1   1  -4 80.3509 2.31172   3
  -1   1  -4 79.5088 2.41725   5
   1  -1   4 79.3525 2.44168   2
   1  -1   4 64.9411 2.28835   4
   1  -1   4 79.1911 2.33290   6
  -2   1  -4 71.5033 2.18424   1
  -2   1  -4 72.5044 2.25540   5
   2  -1   4 70.8250 2.28805   2
   2  -1   4 70.6559 2.19350   3
   2  -1   4 68.4265 2.18665   4
   2  -1   4 74.2875 2.25236   6
  -3   1  -4 581.507 15.5118   5
  -3   1  -4 568.346 15.4876   1
   3  -1   4 574.014 15.5482   3
   3  -1   4 584.583 15.5701   2
   3  -1   4 573.959 15.6103   6
   3  -1   4 570.392 15.5287   4
  -4   1  -4 191.937 5.61030   1
  -4   1  -4 193.246 5.53526   5
   4  -1   4 187.535 5.65918   3
   4  -1   4 200.983 5.61392   2
   4  -1   4 204.696 5.67664   4
   4  -1   4 190.580 5.72994   6
  -5   1  -4 171.712 4.93078   5
  -5   1  -4 170.738 5.12550   1
   5  -1   4 170.644 5.26883   6
   5  -1   4 166.551 5.17035   3
   5  -1   4 176.693 5.03468   2
   5  -1   4 169.685 5.13540   4
  -6   1  -4 6.98349 0.78077   1
  -6   1  -4 7.13188 0.59643   5
   6  -1   4 7.16706 0.78964   3
   6  -1   4 5.30429 0.75348   6
   6  -1   4 7.40776 0.67565   2
   6  -1   4 5.66348 0.72718   4
  -7   1  -4 293.480 8.65366   6
  -7   1  -4 288.247 8.40076   1
   7  -1   4 269.063 8.34163   4
   7  -1   4 281.728 8.44507   3
  -8   1  -4 6.61627 1.00272   6
  -8   1  -4 8.57001 1.06154   1
   8  -1   4 8.17894 1.06541   3
   8  -1   4 9.25447 1.09202   4
  -9   1  -4 94.8590 3.75280   1
  -9   1  -4 95.7619 3.94870   6
   9  -1   4 97.5988 3.77631   4
   9  -1   4 99.3957 3.86868   3
 -10   1  -4 18.7006 1.69549   1
 -10   1  -4 15.6135 1.72559   6
  10  -1   4 18.3525 1.76113   3
  10  -1   4 19.4002 1.70674   4
  10   0  -4 169.071 6.05902   4
  10   0  -4 159.911 5.85915   3
 -10   0   4 160.039 6.07397   1
 -10   0   4 156.231 5.77176   6
   9   0  -4 9.41294 1.22137   3
   9   0  -4 12.8243 1.55534   4
  -9   0   4 8.91142 1.33459   1
  -9   0   4 10.6110 1.31392   6
   8   0  -4 477.200 13.9808   3
   8   0  -4 478.513 14.1161   4
  -8   0   4 488.797 13.9409   6
  -8   0   4 485.020 14.1713   1
   7   0  -4 26.1781 1.68134   4
   7   0  -4 24.5886 1.59386   3
  -7   0   4 24.9403 1.68513   1
  -7   0   4 23.9235 1.56473   6
   6   0  -4 68.6145 2.80856   4
   6   0  -4 72.9735 2.77065   3
  -6   0   4 70.8380 2.88045   1
  -6   0   4 69.7141 2.70508   6
   5   0  -4 544.985 14.7327   3
   5   0  -4 514.501 14.7754   4
  -5   0   4 525.443 14.8242   1
  -5   0   4 533.481 14.6828   6
   4   0  -4 585.738 14.9586   5
   4   0  -4 566.804 15.4753   4
   4   0  -4 548.625 15.3754   3
  -4   0   4 583.129 14.9772   2
  -4   0   4 527.562 15.4439   1
  -4   0   4 554.404 15.3650   6
   3   0  -4 18.7300 0.95007   3
   3   0  -4 19.8910 0.76107   5
   3   0  -4 19.2542 1.01572   4
  -3   0   4 19.8515 0.97602   6
  -3   0   4 19.7110 0.77564   2
  -3   0   4 20.1570 1.04461   1
   2   0  -4 677.727 18.4771   1
   2   0  -4 702.338 18.4434   3
   2   0  -4 667.532 18.4673   4
  -2   0   4 712.099 18.3390   2
  -2   0   4 675.406 18.4341   6
   1   0  -4 1388.36 37.4025   5
   1   0  -4 1364.40 37.1482   4
   1   0  -4 1432.44 37.7086   3
   1   0  -4 1413.83 37.3136   1
  -1   0   4 1401.08 37.1926   6
  -1   0   4 1424.11 37.1645   2
   0   0  -4 10.0917 0.55550   5
   0   0  -4 10.8788 0.55051   3
   0   0  -4 10.0844 0.46403   1
   0   0  -4 10.8272 0.47159   4
   0   0   4 10.5886 0.55782   6
   0   0   4 9.86083 0.57169   2
  -1   0  -4 3906.23 104.805   5
  -1   0  -4 3941.83 104.790   3
  -1   0  -4 4154.02 104.028   1
   1   0   4 3919.43 104.133   4
   1   0   4 3824.04 104.314   2
   1   0   4 3821.86 104.575   6
  -2   0  -4 0.48396 0.25790   5
  -2   0  -4 0.55363 0.23252   3
  -2   0  -4 0.77973 0.19173   1
   2   0   4 0.46394 0.26100   2
   2   0   4 0.77024 0.20069   4
   2   0   4 0.18903 0.22210   6
  -3   0  -4 1642.85 43.4159   1
  -3   0  -4 1639.06 43.4437   5
   3   0   4 1652.30 43.4932   2
   3   0   4 1628.94 43.4519   3
   3   0   4 1632.13 43.5243   6
  -4   0  -4 548.733 14.7982   1
  -4   0  -4 534.896 14.8218   5
   4   0   4 565.217 15.0307   6
   4   0   4 565.928 14.9027   2
   4   0   4 541.534 14.9302   3
   4   0   4 529.043 14.7927   4
  -5   0  -4 96.7183 3.06597   1
  -5   0  -4 96.6377 2.99485   5
   5   0   4 93.7926 3.05153   4
   5   0   4 95.2523 3.25007   6
   5   0   4 94.7344 3.16847   3
   5   0   4 96.2918 3.05058   2
  -6   0  -4 340.674 9.18765   5
  -6   0  -4 319.569 9.34890   1
   6   0   4 318.804 9.33796   4
   6   0   4 345.861 9.26702   2
   6   0   4 329.628 9.59442   6
   6   0   4 323.126 9.47952   3
  -7   0  -4 119.305 3.97101   1
   7   0   4 116.529 4.17866   6
   7   0   4 121.269 3.97799   4
   7   0   4 119.086 4.09496   3
  -8   0  -4 96.2025 3.46045   1
  -8   0  -4 93.1909 3.72515   6
   8   0   4 85.0669 3.47419   3
   8   0   4 98.8900 3.46033   4
  -9   0  -4 11.3682 1.25345   1
  -9   0  -4 10.8095 1.39044   6
   9   0   4 12.7460 1.27005   4
   9   0   4 11.1392 1.29635   3
 -10   0  -4 192.705 6.39828   1
 -10   0  -4 194.034 6.68706   6
  10   0   4 192.958 6.38735   4
  10   0   4 184.893 6.47942   3
  11   0   4 0.82668 1.35931   3
  10  -1  -4 55.9396 3.14234   4
  10  -1  -4 53.2020 2.97342   3
 -10   1   4 53.0610 2.93479   6
 -10   1   4 56.8044 3.14015   1
   9  -1  -4 55.8589 2.82844   3
   9  -1  -4 57.7417 2.95020   4
  -9   1   4 54.3975 2.78313   6
  -9   1   4 55.0016 2.96813   1
   8  -1  -4 1.40428 0.81742   4
   8  -1  -4 3.45456 0.84170   3
  -8   1   4 3.23962 0.89223   6
  -8   1   4 1.87359 0.84394   1
   7  -1  -4 244.317 7.56420   4
   7  -1  -4 233.275 7.42068   3
  -7   1   4 246.185 7.59636   1
  -7   1   4 230.288 7.37405   6
   6  -1  -4 49.0472 2.22676   4
   6  -1  -4 45.8555 2.14382   3
  -6   1   4 49.2229 2.19515   6
  -6   1   4 48.9108 2.28824   1
   5  -1  -4 250.767 7.89748   4
   5  -1  -4 266.945 7.90290   3
  -5   1   4 276.262 7.89997   6
  -5   1   4 279.413 7.99515   1
   4  -1  -4 1.74071 0.46750   4
   4  -1  -4 0.82847 0.37196   3
   4  -1  -4 1.74783 0.17256   5
  -4   1   4 1.38762 0.39194   6
  -4   1   4 2.29611 0.22754   2
  -4   1   4 0.64035 0.38381   1
   3  -1  -4 1465.51 37.9879   5
   3  -1  -4 1373.31 38.1644   3
   3  -1  -4 1377.65 38.1874   4
  -3   1   4 1585.84 37.8518   2
  -3   1   4 1411.71 38.2112   1
  -3   1   4 1381.48 38.1646   6
   2  -1  -4 739.834 19.2265   3
   2  -1  -4 722.277 18.9890   5
   2  -1  -4 647.167 19.1597   4
  -2   1   4 770.026 19.0379   2
  -2   1   4 689.550 19.2020   1
  -2   1   4 717.337 19.2235   6
   1  -1  -4 45.9043 1.55646   5
   1  -1  -4 47.0552 1.64342   3
   1  -1  -4 47.4032 1.58481   4
  -1   1   4 51.3674 1.60394   2
  -1   1   4 49.3313 1.60348   1
  -1   1   4 46.0003 1.66691   6
   0  -1  -4 2031.28 51.5091   4
   0  -1  -4 1865.76 51.4182   5
   0   1   4 1900.81 51.6709   6
   0   1   4 1888.64 51.2000   2
   0   1   4 1999.39 51.6164   1
  -1  -1  -4 0.06723 0.17399   3
  -1  -1  -4 -0.2071 0.17157   5
   1   1   4 0.14715 0.21205   6
   1   1   4 0.01764 0.19631   2
  -2  -1  -4 696.193 18.2069   1
  -2  -1  -4 691.534 18.5280   5
  -2  -1  -4 694.782 18.4821   3
   2   1   4 682.196 18.5518   2
   2   1   4 699.868 18.1885   4
   2   1   4 654.756 18.4976   6
  -3  -1  -4 497.458 13.2964   5
  -3  -1  -4 498.118 13.0381   1
   3   1   4 501.873 13.2867   3
   3   1   4 460.268 13.2788   2
   3   1   4 474.186 13.3164   6
   3   1   4 493.279 13.0360   4
  -4  -1  -4 1108.31 29.1138   1
  -4  -1  -4 1093.64 29.2604   5
   4   1   4 1075.41 29.2849   2
   4   1   4 1104.17 29.3871   6
   4   1   4 1094.79 29.2998   3
  -5  -1  -4 258.839 7.22564   5
  -5  -1  -4 265.126 7.19788   1
   5   1   4 253.446 7.44789   6
   5   1   4 246.330 7.16333   4
   5   1   4 260.658 7.28266   2
   5   1   4 241.578 7.31803   3
  -6  -1  -4 678.963 18.0672   5
  -6  -1  -4 658.297 18.1272   1
   6   1   4 652.748 18.2948   3
   6   1   4 650.168 18.3977   6
   6   1   4 679.358 18.1207   2
   6   1   4 673.078 18.1333   4
  -7  -1  -4 481.895 13.5649   1
  -7  -1  -4 509.399 13.4016   5
   7   1   4 474.341 13.5521   4
   7   1   4 470.539 13.7120   3
   7   1   4 502.463 13.4386   2
   7   1   4 474.729 13.8285   6
  -8  -1  -4 66.2728 2.63024   1
   8   1   4 65.0876 2.61789   4
   8   1   4 63.9149 2.74466   3
  -9  -1  -4 230.386 7.42962   6
  -9  -1  -4 218.773 7.00507   1
   9   1   4 219.737 7.19364   3
   9   1   4 230.024 7.05453   4
 -10  -1  -4 -0.0814 0.72945   6
  10   1   4 -0.2173 0.62452   3
 -11  -1  -4 244.298 8.35934   6
  11   1   4 247.656 8.16936   3
   9  -2  -4 52.0729 2.75044   3
   9  -2  -4 50.4789 2.82288   4
  -9   2   4 46.3831 2.80230   1
  -9   2   4 50.0135 2.73195   6
   8  -2  -4 92.5920 3.69858   3
   8  -2  -4 93.1642 3.80396   4
  -8   2   4 84.9225 3.61076   6
  -8   2   4 85.6445 3.74046   1
   7  -2  -4 4.21653 0.90693   4
   7  -2  -4 4.81845 0.93729   3
  -7   2   4 2.95716 0.80118   6
  -7   2   4 3.45368 0.90704   1
   6  -2  -4 917.644 24.6594   4
   6  -2  -4 905.980 24.6253   3
  -6   2   4 900.621 24.5799   6
  -6   2   4 855.768 24.6452   1
   5  -2  -4 93.0719 3.45191   4
   5  -2  -4 96.5639 3.43916   3
  -5   2   4 102.539 3.55078   1
  -5   2   4 98.5451 3.43905   6
   4  -2  -4 9.90539 0.83609   4
   4  -2  -4 10.5293 0.88276   3
  -4   2   4 10.7763 0.89939   6
  -4   2   4 12.4688 0.98620   1
   3  -2  -4 434.280 12.4451   3
   3  -2  -4 457.418 12.0136   5
   3  -2  -4 439.683 12.4435   4
  -3   2   4 469.797 12.0372   2
  -3   2   4 446.185 12.4862   1
  -3   2   4 454.816 12.4863   6
   2  -2  -4 474.762 12.0674   5
   2  -2  -4 428.389 12.2788   3
   2  -2  -4 418.747 12.2500   4
  -2   2   4 475.131 12.0822   2
  -2   2   4 444.234 12.2952   1
  -2   2   4 451.681 12.3374   6
   1  -2  -4 175.720 5.12748   3
   1  -2  -4 179.553 5.04576   4
  -1   2   4 174.692 5.16521   6
  -1   2   4 184.569 5.04643   2
  -1   2   4 180.263 5.06799   1
   0  -2  -4 377.482 10.7781   3
   0  -2  -4 414.634 10.6103   4
   0  -2  -4 381.254 10.7592   5
   0   2   4 417.348 10.6184   1
   0   2   4 389.180 10.8337   6
   0   2   4 392.639 10.7810   2
  -1  -2  -4 92.4007 3.05469   5
  -1  -2  -4 103.894 2.75543   4
  -1  -2  -4 105.282 3.07242   3
   1   2   4 104.099 2.75860   1
   1   2   4 100.964 3.09301   6
  -2  -2  -4 620.905 16.5214   3
  -2  -2  -4 617.934 16.5799   5
   2   2   4 602.162 16.5852   2
   2   2   4 613.022 16.5556   6
  -3  -2  -4 3783.70 99.0899   3
  -3  -2  -4 3763.20 99.4687   5
  -3  -2  -4 4150.47 98.3571   1
   3   2   4 3704.47 99.5013   2
   3   2   4 3510.69 99.3504   6
   3   2   4 3361.49 98.0306   4
  -4  -2  -4 0.13246 0.21728   1
  -4  -2  -4 0.13178 0.32275   5
   4   2   4 0.30663 0.32332   3
   4   2   4 0.02735 0.33943   6
   4   2   4 -0.4048 0.30097   2
   4   2   4 0.43949 0.24781   4
  -5  -2  -4 856.540 22.8541   5
  -5  -2  -4 886.796 22.7049   1
   5   2   4 852.110 23.0001   6
   5   2   4 807.978 22.8574   3
   5   2   4 827.029 22.8470   2
  -6  -2  -4 387.090 10.5470   5
  -6  -2  -4 374.403 10.4816   1
   6   2   4 380.274 10.4588   4
   6   2   4 381.027 10.5705   2
   6   2   4 361.344 10.6436   3
   6   2   4 370.095 10.7725   6
  -7  -2  -4 106.414 3.54548   1
  -7  -2  -4 107.473 3.47520   5
   7   2   4 108.702 3.54580   4
   7   2   4 106.296 3.81233   6
   7   2   4 106.087 3.50611   2
   7   2   4 105.089 3.70484   3
  -8  -2  -4 200.317 6.07987   1
   8   2   4 190.067 6.21631   3
   8   2   4 197.208 6.05241   4
   8   2   4 195.950 6.38390   6
  -9  -2  -4 126.551 4.74420   6
  -9  -2  -4 126.682 4.40794   1
   9   2   4 127.564 4.42446   4
   9   2   4 128.956 4.59118   3
 -10  -2  -4 8.07225 1.31867   6
  10   2   4 7.12642 1.15744   3
 -11  -2  -4 2.28848 1.00207   6
  11   2   4 2.78023 0.96737   3
   9  -3  -4 37.1621 2.45484   4
   9  -3  -4 31.9798 2.30949   3
  -9   3   4 37.6583 2.49004   1
  -9   3   4 32.3340 2.21221   6
   8  -3  -4 62.8611 3.02855   3
   8  -3  -4 60.7317 3.01563   4
  -8   3   4 62.6589 2.99055   6
  -8   3   4 60.9931 3.04914   1
   7  -3  -4 114.805 4.49109   4
   7  -3  -4 123.601 4.54907   3
  -7   3   4 132.280 4.68325   1
  -7   3   4 128.046 4.55028   6
   6  -3  -4 4.57037 0.85496   3
   6  -3  -4 3.63459 0.79396   4
  -6   3   4 4.86057 0.92294   1
  -6   3   4 3.32146 0.80176   6
   5  -3  -4 156.675 5.12223   3
   5  -3  -4 164.618 5.17383   4
  -5   3   4 147.701 5.04488   6
  -5   3   4 166.128 5.23135   1
   4  -3  -4 0.74107 0.41133   3
   4  -3  -4 0.15787 0.37898   4
  -4   3   4 0.41038 0.43836   1
  -4   3   4 0.79260 0.42242   6
   3  -3  -4 572.050 16.5059   4
   3  -3  -4 648.551 16.1082   5
   3  -3  -4 600.427 16.5440   3
  -3   3   4 610.350 16.5703   6
  -3   3   4 615.393 16.0837   2
  -3   3   4 572.143 16.5401   1
   2  -3  -4 285.874 8.16301   4
   2  -3  -4 308.093 7.97377   5
   2  -3  -4 282.164 8.17968   3
  -2   3   4 286.382 8.17803   1
  -2   3   4 289.975 8.24492   6
  -2   3   4 287.858 7.93850   2
   1  -3  -4 1569.84 40.1226   5
   1  -3  -4 1459.76 40.1220   4
   1  -3  -4 1509.84 40.2139   3
  -1   3   4 1501.60 40.1072   2
  -1   3   4 1496.65 40.1378   1
  -1   3   4 1541.77 40.2898   6
   0  -3  -4 529.354 14.1286   5
   0  -3  -4 516.862 13.9725   4
   0  -3  -4 512.209 14.1396   3
   0   3   4 522.529 14.1282   2
   0   3   4 531.498 14.2105   6
   0   3   4 513.645 13.9683   1
  -1  -3  -4 93.1529 3.00384   3
  -1  -3  -4 92.2695 3.02961   5
  -1  -3  -4 102.548 2.78081   4
   1   3   4 101.938 2.78359   1
   1   3   4 99.0426 3.06446   6
   1   3   4 98.9636 3.07424   2
  -2  -3  -4 1263.99 33.1671   5
  -2  -3  -4 1283.33 32.8837   4
  -2  -3  -4 1156.86 33.0418   3
   2   3   4 1202.82 33.1503   2
   2   3   4 1265.18 33.1192   6
   2   3   4 1280.60 32.9746   1
  -3  -3  -4 153.495 4.10805   4
  -3  -3  -4 148.442 4.48692   5
  -3  -3  -4 145.724 4.38750   3
   3   3   4 142.852 4.47920   2
   3   3   4 145.148 4.44218   6
   3   3   4 153.461 4.11396   1
  -4  -3  -4 140.103 4.37499   5
  -4  -3  -4 143.114 4.31419   3
   4   3   4 140.171 4.36640   6
   4   3   4 148.215 4.03950   4
   4   3   4 137.284 4.38221   2
  -5  -3  -4 0.04521 0.23084   1
  -5  -3  -4 0.09087 0.32259   5
   5   3   4 0.16916 0.22558   4
   5   3   4 -0.2292 0.34454   2
   5   3   4 0.33507 0.33702   3
   5   3   4 0.34606 0.36276   6
  -6  -3  -4 2305.23 59.8311   1
  -6  -3  -4 2291.32 59.9805   5
   6   3   4 2236.73 59.9771   2
   6   3   4 2204.23 60.1383   6
   6   3   4 2241.61 59.9977   3
  -7  -3  -4 4.69672 0.60834   5
  -7  -3  -4 3.99888 0.57616   1
   7   3   4 6.22962 0.82292   3
   7   3   4 4.70930 0.74982   6
   7   3   4 3.58336 0.57681   4
   7   3   4 5.11129 0.70632   2
  -8  -3  -4 165.887 5.22781   1
   8   3   4 171.826 5.21892   4
   8   3   4 164.593 5.56560   6
   8   3   4 161.711 5.39382   3
   9   3   4 70.5648 2.99447   3
 -10  -3  -4 116.516 4.54299   6
  10   3   4 107.251 4.24755   3
 -11  -3  -4 71.1233 3.48498   6
  11   3   4 69.2513 3.28329   3
   9  -4  -4 4.23518 1.07774   3
   9  -4  -4 4.26658 1.16103   4
  -9   4   4 5.65435 1.25101   6
  -9   4   4 3.51073 1.22624   1
   8  -4  -4 17.3639 1.73594   3
   8  -4  -4 17.6325 1.77026   4
  -8   4   4 20.4222 1.88120   1
  -8   4   4 16.6459 1.61554   6
   7  -4  -4 111.429 4.27825   4
   7  -4  -4 107.662 4.21692   3
  -7   4   4 112.434 4.32134   1
  -7   4   4 111.003 4.23442   6
   6  -4  -4 243.320 7.58106   3
   6  -4  -4 237.255 7.57342   4
  -6   4   4 248.340 7.58987   6
  -6   4   4 239.242 7.63558   1
   5  -4  -4 16.8697 1.28944   3
   5  -4  -4 19.2707 1.39050   4
  -5   4   4 15.4891 1.32917   1
  -5   4   4 18.5352 1.38885   6
   4  -4  -4 233.269 7.18483   3
   4  -4  -4 234.535 7.21833   4
  -4   4   4 246.171 7.27039   1
  -4   4   4 247.150 7.24375   6
   3  -4  -4 6.61454 0.49580   5
   3  -4  -4 5.14473 0.65861   3
   3  -4  -4 6.98592 0.77204   4
  -3   4   4 5.96379 0.44488   2
  -3   4   4 3.60228 0.58600   6
  -3   4   4 4.84933 0.70437   1
   2  -4  -4 68.7051 2.44761   4
   2  -4  -4 71.3850 2.47725   3
   2  -4  -4 68.8501 2.25741   5
  -2   4   4 71.6427 2.53423   6
  -2   4   4 71.9073 2.25580   2
  -2   4   4 72.1903 2.48695   1
   1  -4  -4 526.134 14.7163   4
   1  -4  -4 550.162 14.7765   3
   1  -4  -4 556.286 14.6984   5
  -1   4   4 555.191 14.6988   2
  -1   4   4 507.245 14.7022   1
  -1   4   4 553.440 14.8667   6
   0  -4  -4 13.7902 0.80681   3
   0  -4  -4 13.0843 0.70856   4
   0   4   4 14.3379 0.81516   2
   0   4   4 12.1515 0.84273   6
   0   4   4 13.4247 0.70761   1
  -1  -4  -4 1.55228 0.34117   3
  -1  -4  -4 0.28055 0.18735   4
   1   4   4 0.26359 0.19865   1
   1   4   4 0.05814 0.24349   5
   1   4   4 1.08074 0.34553   2
   1   4   4 0.71814 0.28398   6
  -2  -4  -4 469.549 12.2669   4
  -2  -4  -4 449.727 12.5007   3
   2   4   4 440.168 12.6171   2
   2   4   4 454.623 12.5369   5
   2   4   4 459.964 12.5657   6
   2   4   4 466.172 12.2655   1
  -3  -4  -4 15.4820 0.67317   4
  -3  -4  -4 15.6995 0.86678   3
   3   4   4 14.2970 0.92815   2
   3   4   4 16.2262 0.68123   1
   3   4   4 15.9857 0.91891   6
  -4  -4  -4 163.130 4.95887   3
  -4  -4  -4 176.362 4.75336   4
   4   4   4 165.163 5.04831   6
   4   4   4 162.181 5.10834   2
   4   4   4 168.509 4.74968   1
  -5  -4  -4 789.977 20.8463   3
  -5  -4  -4 745.140 20.9281   5
   5   4   4 757.891 20.9488   2
   5   4   4 770.035 20.5509   4
   5   4   4 748.591 20.9318   6
   5   4   4 790.427 20.6155   1
  -6  -4  -4 1.30093 0.47917   5
  -6  -4  -4 1.18666 0.38041   1
   6   4   4 0.84534 0.49637   6
   6   4   4 1.10069 0.49016   2
  -7  -4  -4 237.996 7.19420   5
  -7  -4  -4 252.962 7.06441   1
   7   4   4 245.559 7.23401   2
   7   4   4 241.982 6.99866   4
   7   4   4 224.896 7.32471   6
   7   4   4 239.936 7.23812   3
  -8  -4  -4 39.6737 1.83473   5
   8   4   4 40.6615 1.95425   2
   8   4   4 38.7982 1.99836   3
   8   4   4 39.9753 2.10427   6
   9   4   4 0.84670 0.71332   6
   9   4   4 0.56350 0.58481   3
 -10  -4  -4 36.7641 2.37483   6
  10   4   4 35.3737 2.19010   3
 -11  -4  -4 25.6111 2.14395   6
  11   4   4 28.2072 2.03378   3
   8  -5  -4 10.2890 1.46061   4
   8  -5  -4 10.0546 1.40771   3
  -8   5   4 10.9108 1.52122   1
  -8   5   4 9.08055 1.33831   6
   7  -5  -4 3.89239 1.00869   4
   7  -5  -4 4.47002 1.00654   3
  -7   5   4 3.32701 0.93627   6
  -7   5   4 5.54104 1.15627   1
   6  -5  -4 6.19917 0.96100   3
   6  -5  -4 6.84792 1.04095   4
  -6   5   4 7.38284 1.14861   6
  -6   5   4 9.30238 1.18757   1
   5  -5  -4 22.3261 1.49330   3
   5  -5  -4 20.8023 1.43886   4
  -5   5   4 19.9020 1.51554   1
  -5   5   4 19.9326 1.50980   6
   4  -5  -4 8.85549 0.98239   3
   4  -5  -4 9.35808 1.02499   4
  -4   5   4 7.29774 0.90989   6
  -4   5   4 8.11389 0.98183   1
   3  -5  -4 453.123 11.5365   5
   3  -5  -4 412.634 11.7644   4
   3  -5  -4 398.295 11.6942   3
  -3   5   4 399.503 11.7559   6
  -3   5   4 409.781 11.7701   1
   2  -5  -4 359.326 10.3279   3
   2  -5  -4 367.519 10.3903   4
  -2   5   4 361.160 10.4241   6
  -2   5   4 369.683 10.1261   2
  -2   5   4 377.752 10.4056   1
   1  -5  -4 421.782 11.7063   3
   1  -5  -4 435.835 11.7482   4
  -1   5   4 418.390 11.6524   2
  -1   5   4 414.532 11.7032   1
  -1   5   4 427.333 11.8296   6
  -1   5   4 417.810 11.5654   5
   0  -5  -4 8.34974 0.63588   4
   0  -5  -4 8.69414 0.68398   3
   0   5   4 8.84241 0.74191   2
   0   5   4 8.91914 0.77117   6
   0   5   4 9.00866 0.67325   5
   0   5   4 9.22046 0.67889   1
  -1  -5  -4 46.8343 1.80128   3
  -1  -5  -4 51.7619 1.73502   4
   1   5   4 49.2974 1.85830   5
   1   5   4 52.4873 1.90691   6
   1   5   4 48.0837 1.91274   2
   1   5   4 49.7249 1.72864   1
  -2  -5  -4 102.253 2.98143   4
  -2  -5  -4 96.4182 3.13978   3
   2   5   4 98.9984 2.97534   1
   2   5   4 95.5471 3.28368   2
   2   5   4 97.3836 3.20780   5
   2   5   4 100.756 3.20213   6
  -3  -5  -4 7.93634 0.50177   4
  -3  -5  -4 7.08443 0.63850   3
   3   5   4 6.37192 0.73105   2
   3   5   4 6.36106 0.69106   5
   3   5   4 8.67378 0.71012   6
   3   5   4 7.43438 0.53540   1
  -4  -5  -4 189.532 5.16726   4
  -4  -5  -4 174.813 5.32141   3
   4   5   4 176.048 5.53458   2
   4   5   4 180.110 5.14148   1
   4   5   4 177.034 5.42801   5
   4   5   4 179.406 5.41322   6
  -5  -5  -4 583.333 16.4527   3
  -5  -5  -4 622.447 16.2800   4
   5   5   4 600.389 16.2795   1
   5   5   4 593.398 16.5916   6
   5   5   4 603.449 16.6806   2
  -6  -5  -4 24.8231 1.12574   4
  -6  -5  -4 20.7325 1.35677   5
  -6  -5  -4 19.5711 1.21000   3
   6   5   4 21.2215 1.11241   1
   6   5   4 19.8300 1.34717   2
   6   5   4 22.9346 1.37229   6
  -7  -5  -4 0.68549 0.48859   3
  -7  -5  -4 -0.0721 0.42210   5
   7   5   4 -0.2901 0.52443   2
   7   5   4 0.20767 0.49413   6
  -8  -5  -4 137.853 4.62019   5
   8   5   4 139.038 4.80594   6
   8   5   4 135.825 4.65004   2
   9   5   4 1.02928 0.73428   6
 -10  -5  -4 43.1002 2.58112   6
 -11  -5  -4 7.73731 1.30867   6
   8  -6  -4 3.18462 1.12336   4
   8  -6  -4 1.43489 0.86238   3
  -8   6   4 1.29451 0.92330   6
  -8   6   4 1.57798 0.99656   1
   7  -6  -4 -0.0163 0.65878   4
   7  -6  -4 -0.5233 0.63565   3
  -7   6   4 0.38220 0.67798   6
  -7   6   4 1.01534 0.84195   1
   6  -6  -4 0.32830 0.60112   4
   6  -6  -4 0.01942 0.62388   3
  -6   6   4 0.22515 0.71246   1
  -6   6   4 -0.1944 0.67829   6
   5  -6  -4 1.73009 0.75798   4
   5  -6  -4 2.87518 0.71868   3
  -5   6   4 2.98080 0.76111   6
  -5   6   4 4.04109 0.92530   1
   4  -6  -4 1.97056 0.67612   4
   4  -6  -4 2.74140 0.64415   3
  -4   6   4 2.93308 0.71712   1
  -4   6   4 2.15217 0.71126   6
   3  -6  -4 190.905 5.93926   3
   3  -6  -4 187.350 6.02235   4
  -3   6   4 198.165 6.07161   1
  -3   6   4 196.164 6.04898   6
   2  -6  -4 20.3408 1.16871   3
   2  -6  -4 16.4752 1.13670   4
  -2   6   4 17.5855 1.00408   2
  -2   6   4 19.0150 1.21606   1
  -2   6   4 18.4190 1.24347   6
   1  -6  -4 0.79666 0.36233   3
   1  -6  -4 0.57598 0.38885   4
  -1   6   4 1.74735 0.50675   6
  -1   6   4 1.05193 0.35620   5
  -1   6   4 1.06414 0.38105   2
  -1   6   4 1.07958 0.40856   1
   0  -6  -4 8.53301 0.71852   4
   0  -6  -4 7.70564 0.69272   3
   0   6   4 7.10350 0.68449   5
   0   6   4 9.36662 0.75484   1
   0   6   4 8.13849 0.80773   6
   0   6   4 8.40055 0.80026   2
  -1  -6  -4 27.5863 1.20533   4
  -1  -6  -4 27.0738 1.23124   3
   1   6   4 24.0126 1.25928   5
   1   6   4 22.6880 1.31576   2
   1   6   4 24.1076 1.24462   6
   1   6   4 28.2938 1.21983   1
  -2  -6  -4 65.3624 2.33505   3
  -2  -6  -4 66.5575 2.23843   4
   2   6   4 65.8061 2.37893   6
   2   6   4 66.2139 2.43930   5
   2   6   4 66.6774 2.54737   2
   2   6   4 68.4082 2.25008   1
  -3  -6  -4 92.9794 2.93020   4
  -3  -6  -4 95.2589 3.07630   3
   3   6   4 89.4168 3.28506   2
   3   6   4 93.8162 2.94932   1
   3   6   4 95.6223 3.21430   5
   3   6   4 90.0761 3.09637   6
  -4  -6  -4 1.04373 0.31074   4
  -4  -6  -4 1.41838 0.40541   3
   4   6   4 1.29538 0.42699   6
   4   6   4 0.73214 0.47442   5
   4   6   4 0.92115 0.57732   2
  -5  -6  -4 40.3356 1.70807   3
  -5  -6  -4 39.4741 1.56892   4
   5   6   4 39.8713 1.59196   1
   5   6   4 42.3425 1.81917   6
   5   6   4 39.0610 1.91311   2
   5   6   4 37.3842 1.80953   5
  -6  -6  -4 44.7540 1.88907   3
   6   6   4 42.3468 2.11143   2
   6   6   4 44.2810 2.01695   6
  -7  -6  -4 4.46871 0.74213   3
  -7  -6  -4 4.18414 0.78195   5
   7   6   4 4.33354 0.79799   6
   7   6   4 4.35427 0.82281   2
  -8  -6  -4 -1.0242 0.40978   3
  -8  -6  -4 -0.0031 0.49822   5
   8   6   4 0.10667 0.60547   6
   8   6   4 0.78546 0.61544   2
  -9  -6  -4 0.39987 0.57068   3
   9   6   4 -0.8851 0.54582   6
 -10  -6  -4 -0.5370 0.68845   3
 -10  -6  -4 -0.8232 0.63555   6
 -11  -6  -4 1.18657 1.00599   3
 -11  -6  -4 -0.2319 0.92708   6
   7  -7  -4 3.56594 0.99457   3
   7  -7  -4 3.36653 1.04571   4
  -7   7   4 2.86008 1.05834   1
  -7   7   4 3.41710 1.09133   6
   6  -7  -4 -0.0816 0.63937   3
   6  -7  -4 0.07363 0.70942   4
  -6   7   4 -1.2225 0.66467   6
  -6   7   4 -0.4249 0.68858   1
   5  -7  -4 29.5196 1.94640   4
   5  -7  -4 28.5660 1.84394   3
  -5   7   4 28.7218 1.93473   6
  -5   7   4 31.2369 1.99995   1
   4  -7  -4 5.82472 0.98534   4
   4  -7  -4 4.05014 0.75626   3
  -4   7   4 5.59304 0.97700   6
  -4   7   4 4.02846 0.86030   1
   3  -7  -4 90.8123 3.39723   4
   3  -7  -4 87.5029 3.24288   3
  -3   7   4 90.1597 3.39478   1
  -3   7   4 88.5607 3.36302   6
   2  -7  -4 16.6053 1.25973   4
   2  -7  -4 20.4495 1.22735   3
  -2   7   4 19.0856 1.05887   5
  -2   7   4 18.0094 1.31749   1
  -2   7   4 18.6780 1.33704   6
   1  -7  -4 46.8066 1.99637   4
   1  -7  -4 46.1604 1.88943   3
  -1   7   4 47.3791 2.03453   6
  -1   7   4 45.2709 1.90543   2
  -1   7   4 45.3801 1.83079   5
  -1   7   4 44.5637 1.99132   1
   0  -7  -4 16.3572 1.09977   4
   0  -7  -4 17.7256 1.05696   3
   0   7   4 16.8312 1.14138   2
   0   7   4 19.4375 1.12884   5
   0   7   4 18.4581 1.15641   6
   0   7   4 17.8379 1.08881   1
  -1  -7  -4 81.3093 2.74775   3
  -1  -7  -4 82.7267 2.78769   4
   1   7   4 79.0373 2.77380   1
   1   7   4 78.4085 2.95382   2
   1   7   4 81.2979 2.84488   6
   1   7   4 80.1515 2.87552   5
  -2  -7  -4 1.11814 0.39037   4
  -2  -7  -4 1.00804 0.37994   3
   2   7   4 0.98272 0.46331   5
   2   7   4 0.47504 0.46069   2
   2   7   4 1.00092 0.41680   6
   2   7   4 2.37284 0.47640   1
  -3  -7  -4 1.58720 0.40597   4
  -3  -7  -4 2.71777 0.50568   3
   3   7   4 1.09849 0.50934   5
   3   7   4 2.01115 0.46248   1
   3   7   4 2.16355 0.62884   2
   3   7   4 1.88211 0.47379   6
  -4  -7  -4 1.14048 0.36650   4
  -4  -7  -4 0.62403 0.37822   3
   4   7   4 0.37192 0.53617   2
   4   7   4 0.66282 0.34634   1
   4   7   4 0.31475 0.37469   6
   4   7   4 0.31007 0.44899   5
  -5  -7  -4 4.08273 0.60898   3
   5   7   4 4.44818 0.77692   5
   5   7   4 3.90747 0.64356   6
   5   7   4 3.04408 0.74099   2
  -6  -7  -4 8.49093 0.85081   3
   6   7   4 7.77532 0.91986   6
   6   7   4 10.1566 1.17973   2
   6   7   4 6.50111 0.85541   5
  -7  -7  -4 -0.1032 0.57000   5
  -7  -7  -4 -0.0510 0.39924   3
   7   7   4 0.79663 0.61446   2
   7   7   4 1.03577 0.62251   6
  -8  -7  -4 1.34423 0.56584   3
  -8  -7  -4 1.79320 0.73913   5
   8   7   4 3.10972 0.83232   6
   8   7   4 3.03137 0.84638   2
  -9  -7  -4 6.44236 1.06700   5
   9   7   4 8.95593 1.21658   2
   7  -8  -4 6.41942 1.17720   3
  -7   8   4 5.21103 1.20208   6
   6  -8  -4 0.91047 0.74979   3
   6  -8  -4 1.26106 0.85448   4
  -6   8   4 0.54942 0.86099   1
  -6   8   4 0.86194 0.85591   6
   5  -8  -4 38.3935 2.14651   3
   5  -8  -4 37.7059 2.32772   4
  -5   8   4 41.6560 2.40345   6
  -5   8   4 40.5076 2.38344   1
   4  -8  -4 15.2282 1.44661   4
   4  -8  -4 15.6913 1.33992   3
  -4   8   4 15.8753 1.59547   1
  -4   8   4 16.0245 1.49898   6
   3  -8  -4 100.370 3.80528   4
   3  -8  -4 97.6487 3.59147   3
  -3   8   4 95.2565 3.77218   1
  -3   8   4 104.537 3.79558   6
   2  -8  -4 140.349 4.73874   4
   2  -8  -4 138.429 4.52327   3
  -2   8   4 139.738 4.68385   6
  -2   8   4 135.305 4.71038   1
   1  -8  -4 20.8836 1.23875   3
   1  -8  -4 20.8065 1.36269   4
  -1   8   4 20.3729 1.35688   1
  -1   8   4 19.3892 1.35631   6
  -1   8   4 19.9293 1.22785   5
   0  -8  -4 38.8107 1.80942   4
   0  -8  -4 39.5239 1.69593   3
   0   8   4 37.5039 1.77154   5
   0   8   4 38.0364 1.86782   2
   0   8   4 37.1215 1.77697   6
   0   8   4 39.7673 1.82645   1
  -1  -8  -4 45.2823 1.93465   4
  -1  -8  -4 45.5115 1.83043   3
   1   8   4 44.5565 1.91016   6
   1   8   4 44.4615 2.09307   2
   1   8   4 41.3902 1.93485   5
   1   8   4 44.6962 1.92666   1
  -2  -8  -4 154.058 4.83536   4
  -2  -8  -4 157.906 4.78367   3
   2   8   4 161.081 4.84832   1
   2   8   4 142.703 4.94942   5
   2   8   4 162.219 4.89551   6
   2   8   4 151.417 5.11762   2
  -3  -8  -4 27.5563 1.40524   4
  -3  -8  -4 27.2213 1.37217   3
   3   8   4 25.6452 1.59197   5
   3   8   4 27.0358 1.67954   2
   3   8   4 27.6771 1.39198   1
   3   8   4 26.0133 1.41661   6
  -4  -8  -4 92.2894 3.10711   3
   4   8   4 88.0024 3.48213   2
   4   8   4 86.6749 3.13282   6
   4   8   4 89.0188 3.35887   5
  -5  -8  -4 118.953 3.98900   3
   5   8   4 119.652 4.16329   6
   5   8   4 120.057 4.34206   2
   5   8   4 111.288 4.14186   5
   6   8   4 158.435 5.49500   2
   6   8   4 160.963 5.37294   5
   7   8   4 10.3712 1.31388   2
  -8  -8  -4 4.79692 1.00700   5
   8   8   4 6.82030 1.11825   2
  -9  -8  -4 9.95941 1.36144   5
   9   8   4 10.4144 1.36750   2
   6  -9  -4 161.293 8.00412   4
   6  -9  -4 164.267 5.86295   3
  -6   9   4 167.009 6.02407   6
  -6   9   4 167.488 8.03055   1
   5  -9  -4 0.41064 0.76539   4
   5  -9  -4 0.50811 0.66792   3
  -5   9   4 0.30333 0.77112   1
  -5   9   4 0.86163 0.81200   6
   4  -9  -4 12.7517 1.32306   3
   4  -9  -4 12.9501 1.43981   4
  -4   9   4 15.3894 1.55678   6
  -4   9   4 13.4661 1.55080   1
   3  -9  -4 47.6892 2.50514   4
   3  -9  -4 48.8339 2.27510   3
  -3   9   4 49.3633 2.54576   1
  -3   9   4 47.3901 2.40711   6
   2  -9  -4 219.750 6.91787   4
   2  -9  -4 214.051 6.59266   3
  -2   9   4 209.570 6.86632   1
  -2   9   4 213.960 6.77262   6
   1  -9  -4 1.51843 0.52083   3
   1  -9  -4 1.60521 0.67745   4
   1  -9  -4 2.17144 0.59398   2
  -1   9   4 0.69232 0.48536   5
  -1   9   4 0.73436 0.56660   1
  -1   9   4 1.36027 0.58444   6
   0  -9  -4 305.275 9.10167   4
   0   9   4 311.017 9.05159   5
   0   9   4 299.876 9.07399   1
   0   9   4 310.907 9.19596   6
  -1  -9  -4 77.7388 2.96599   4
   1   9   4 77.3668 3.10244   2
   1   9   4 76.6844 2.99991   5
   1   9   4 74.8867 2.90541   1
  -2  -9  -4 26.1613 1.51368   4
   2   9   4 27.9358 1.50164   1
   2   9   4 24.6084 1.68958   2
   2   9   4 27.2103 1.67045   5
   3   9   4 38.6878 2.13121   2
   3   9   4 34.3681 1.96942   5
   4   9   4 3.59666 0.89328   2
   4   9   4 4.57506 0.81047   5
   5   9   4 168.016 5.62920   5
   5   9   4 163.856 5.75779   2
   6   9   4 4.19634 0.93929   5
   6   9   4 4.92208 1.08320   2
   7   9   4 1.45872 0.83888   2
  -8  -9  -4 11.2514 1.47589   5
   8   9   4 9.49144 1.36410   2
  -9  -9  -4 57.1492 2.91857   2
  -9  -9  -4 56.7991 3.00133   5
   4 -10  -4 4.28672 1.04635   4
  -4  10   4 3.88243 1.09528   1
   3 -10  -4 123.497 4.76760   4
  -3  10   4 129.193 4.84595   1
   2 -10  -4 0.54037 0.68371   4
  -2  10   4 0.47892 0.66365   1
   1 -10  -4 111.800 4.26989   4
   1 -10  -4 118.178 4.09929   2
  -1  10   4 121.125 4.13781   5
  -1  10   4 109.738 4.19693   1
   0 -10  -4 173.549 5.76772   2
   0 -10  -4 181.515 5.87786   4
   0  10   4 182.598 5.77764   5
   0  10   4 172.523 5.79397   1
  -1 -10  -4 6.40121 0.97802   4
  -1 -10  -4 8.81588 1.09211   2
   1  10   4 7.59658 1.03976   5
   1  10   4 8.28593 1.03068   1
   2  10   4 21.8302 1.62021   5
   3  10   4 3.20319 0.86353   2
   3  10   4 3.05557 0.84469   5
   4  10   4 113.300 4.47208   2
   4  10   4 118.725 4.36423   5
   5  10   4 0.93610 0.79542   2
   5  10   4 0.03023 0.62770   5
   6  10   4 156.871 5.57420   5
  -8 -10  -4 68.2010 3.41399   5
  -8 -10  -4 63.4886 3.24074   2
   3 -11  -4 7.61282 1.31041   4
  -3  11   4 8.39549 1.32466   1
   2 -11  -4 0.83555 0.80576   4
  -2  11   4 1.12319 0.81772   1
   1 -11  -4 0.98556 0.76910   4
  -1  11   4 1.09031 0.67041   1
   0 -11  -4 86.4298 3.94578   4
   0 -11  -4 76.1502 3.26607   2
   0  11   4 75.8453 3.25040   5
   0  11   4 83.9668 3.57928   1
  -1 -11  -4 8.52124 1.17098   2
   1  11   4 6.21891 0.99884   5
  -2 -11  -4 60.6289 2.94482   2
   2  11   4 62.5928 2.89352   5
  -3 -11  -4 124.333 4.75623   2
   3  11   4 128.252 4.72551   5
  -4 -11  -4 39.4556 2.39644   2
   4  11   4 39.0755 2.36351   5
  -5 -11  -4 335.412 10.3736   2
   5  11   4 326.037 10.2730   5
  -6 -11  -4 8.65018 1.37095   2
   6  11   4 7.56758 1.22625   5
   2 -12  -4 4.67514 1.71594   4
  -2  12   4 6.37606 1.37018   1
   0 -12  -4 -0.4695 0.69011   2
   0  12   4 -0.0066 0.98234   5
  -1 -12  -4 11.3542 1.42001   2
   1  12   4 9.74792 1.29373   5
  -2 -12  -4 69.2334 3.30459   2
   2  12   4 71.1234 3.26493   5
  -3 -12  -4 0.38762 0.81392   2
   3  12   4 -0.0608 0.75830   5
  -4 -12  -4 238.177 8.25180   2
   4  12   4 253.457 8.25437   5
   4  11  -5 123.037 4.86449   1
   4  11  -5 120.548 4.69558   5
  -4 -11   5 117.584 4.83278   4
  -4 -11   5 120.497 4.83023   2
   3  11  -5 1.20981 0.80871   5
   3  11  -5 1.33178 0.84991   1
  -3 -11   5 0.60301 0.78788   4
  -3 -11   5 0.31898 0.81338   2
   2  11  -5 13.1934 1.49825   5
  -2 -11   5 11.4971 1.50234   2
  -2 -11   5 13.3414 1.66025   4
   1  11  -5 4.13077 0.95510   5
   1  11  -5 4.99283 1.14640   1
  -1 -11   5 4.76064 1.18770   4
  -1 -11   5 3.86190 1.03473   2
   0  11  -5 133.255 5.03225   1
   0  11  -5 126.346 4.71204   5
   0 -11   5 122.621 4.85210   2
   0 -11   5 127.643 5.07476   4
  -1  11  -5 0.53738 0.62935   5
  -1  11  -5 -0.0063 0.70812   1
   1 -11   5 0.49603 0.72779   2
   1 -11   5 0.67951 0.91839   4
  -2  11  -5 81.2495 3.33074   5
  -2  11  -5 77.5861 3.69847   1
   2 -11   5 76.9935 3.44798   2
   2 -11   5 80.2586 3.86844   4
  -7 -10   5 15.5357 1.81876   2
   6  10  -5 170.338 6.00943   5
   6  10  -5 174.807 6.33708   1
  -6 -10   5 169.499 6.08863   2
  -6 -10   5 173.256 6.23948   4
   5  10  -5 47.4892 2.50698   5
   5  10  -5 43.3082 2.56557   1
  -5 -10   5 41.6819 2.52132   2
  -5 -10   5 41.6971 2.54259   4
   4  10  -5 10.7744 1.45709   1
   4  10  -5 9.39339 1.26576   5
  -4 -10   5 10.2998 1.44667   4
  -4 -10   5 10.4848 1.35953   2
   3  10  -5 71.0581 3.28131   1
   3  10  -5 76.3104 3.24202   5
  -3 -10   5 71.3115 3.28194   2
  -3 -10   5 70.0525 3.32335   4
   2  10  -5 3.66154 0.92205   1
   2  10  -5 3.74546 0.87887   5
  -2 -10   5 2.17655 0.86927   2
  -2 -10   5 3.57806 0.95872   4
   1  10  -5 120.233 4.69603   1
   1  10  -5 124.857 4.53742   5
  -1 -10   5 125.389 4.72121   2
  -1 -10   5 127.856 4.81659   4
   0  10  -5 36.1748 2.05543   5
   0  10  -5 32.9968 2.14848   1
   0 -10   5 35.1176 2.30032   4
   0 -10   5 32.5745 2.10925   2
  -1  10  -5 5.15678 0.93793   5
  -1  10  -5 7.58053 1.24390   1
   1 -10   5 5.69567 1.03827   2
   1 -10   5 7.26431 1.30184   4
  -2  10  -5 1.48453 0.68501   5
  -2  10  -5 0.38373 0.72945   1
   2 -10   5 1.09801 0.67605   2
   2 -10   5 0.95038 0.86111   4
  -3  10  -5 5.58958 1.13140   1
   3 -10   5 5.38400 1.22348   4
   3 -10   5 3.67655 1.10970   2
  -4  10  -5 2.52961 0.98917   1
   4 -10   5 2.06505 1.02807   4
   7   9  -5 105.493 4.11211   5
   7   9  -5 100.939 4.39760   1
  -7  -9   5 104.116 4.31910   4
  -7  -9   5 99.7221 4.05068   2
   6   9  -5 25.1908 1.96502   1
   6   9  -5 26.3384 1.83071   5
  -6  -9   5 23.3276 1.94521   4
  -6  -9   5 28.1276 1.91597   2
   5   9  -5 48.3515 2.63601   1
   5   9  -5 48.9156 2.48138   5
  -5  -9   5 47.8891 2.53489   2
  -5  -9   5 50.2179 2.65289   4
   4   9  -5 24.3951 1.77337   1
   4   9  -5 23.3486 1.67917   5
  -4  -9   5 21.5165 1.78715   2
  -4  -9   5 21.2103 1.75527   4
   3   9  -5 1.52251 0.69246   5
   3   9  -5 1.09562 0.65595   1
  -3  -9   5 1.42602 0.78819   4
  -3  -9   5 -0.0502 0.60656   2
   2   9  -5 55.3091 2.55926   5
   2   9  -5 54.9650 2.64582   1
  -2  -9   5 54.5965 2.64227   2
  -2  -9   5 50.9647 2.59704   4
   1   9  -5 11.0926 1.21181   5
   1   9  -5 9.92423 1.23603   1
  -1  -9   5 7.97081 1.14479   4
  -1  -9   5 11.8815 1.32307   2
   0   9  -5 1.40546 0.64234   1
   0   9  -5 0.90749 0.57082   5
   0  -9   5 0.86350 0.63698   2
   0  -9   5 1.07070 0.75001   4
  -1   9  -5 1.16570 0.71852   1
  -1   9  -5 -0.9908 0.52437   5
   1  -9   5 0.36724 0.70070   4
   1  -9   5 -0.4242 0.56181   2
  -2   9  -5 20.7031 1.71483   1
  -2   9  -5 20.4080 1.47886   5
   2  -9   5 20.2186 1.58609   2
   2  -9   5 21.0161 1.80487   4
  -3   9  -5 3.85315 0.95355   1
  -3   9  -5 2.62563 0.69627   5
   3  -9   5 4.46643 0.85565   2
   3  -9   5 4.20707 1.09377   4
  -4   9  -5 18.2185 1.78498   1
   4  -9   5 20.8134 1.94345   4
  -5   9  -5 120.123 4.84627   1
   5  -9   5 121.903 4.98441   4
  -6   9  -5 39.1803 3.81113   1
   6  -9   5 35.5357 3.84183   4
   8   8  -5 1.81436 0.89683   1
  -8  -8   5 1.54924 0.88221   4
   7   8  -5 14.6507 1.70400   1
   7   8  -5 13.9574 1.38950   5
  -7  -8   5 13.9123 1.40248   2
  -7  -8   5 14.4841 1.59013   4
   6   8  -5 16.2820 1.68150   1
   6   8  -5 14.3276 1.33978   5
  -6  -8   5 13.0818 1.46360   4
  -6  -8   5 11.3941 1.25932   2
   5   8  -5 4.74575 0.87494   5
   5   8  -5 3.04280 0.82355   1
  -5  -8   5 2.94324 0.83535   4
  -5  -8   5 3.90607 0.85313   2
   4   8  -5 0.63576 0.58415   5
   4   8  -5 0.88781 0.59832   1
  -4  -8   5 0.90127 0.67151   4
  -4  -8   5 0.11992 0.55726   2
   3   8  -5 72.4270 2.97613   5
   3   8  -5 76.1396 3.11165   1
  -3  -8   5 72.3716 3.04895   2
  -3  -8   5 75.6035 3.14819   4
   2   8  -5 0.42885 0.59716   1
   2   8  -5 0.15404 0.52056   5
  -2  -8   5 0.59854 0.65499   4
  -2  -8   5 -0.3456 0.53597   2
   1   8  -5 128.326 4.48049   1
   1   8  -5 123.296 4.30082   5
  -1  -8   5 127.512 4.54377   4
  -1  -8   5 125.604 4.43585   2
   0   8  -5 0.88895 0.59597   1
   0   8  -5 0.73695 0.55802   5
   0  -8   5 -0.2417 0.50554   2
   0  -8   5 0.56364 0.63227   4
  -1   8  -5 1.74210 0.61896   1
  -1   8  -5 0.86702 0.56934   5
   1  -8   5 0.79104 0.57425   2
   1  -8   5 1.47406 0.65171   4
  -2   8  -5 0.83289 0.61389   1
  -2   8  -5 -0.4413 0.43665   5
   2  -8   5 0.55168 0.62704   4
   2  -8   5 0.63359 0.53584   2
  -3   8  -5 4.10049 0.73923   5
  -3   8  -5 5.09505 0.99049   1
   3  -8   5 4.89925 0.84092   2
   3  -8   5 6.19141 1.11169   4
  -4   8  -5 3.83272 0.93835   1
   4  -8   5 4.80848 1.09081   4
  -5   8  -5 2.34189 0.90874   1
   5  -8   5 1.26332 0.79919   4
  -6   8  -5 14.1486 1.69862   1
   6  -8   5 13.0023 1.65697   4
  -7   8  -5 1.93474 1.00930   1
   7  -8   5 2.45534 1.11369   4
   8   7  -5 1.35196 0.85441   1
  -8  -7   5 1.84202 0.82034   4
   7   7  -5 10.2575 1.40160   1
   7   7  -5 10.1125 1.14056   5
  -7  -7   5 11.9856 1.43756   4
  -7  -7   5 10.2852 1.16096   2
   6   7  -5 0.23709 0.52479   5
   6   7  -5 0.12958 0.57469   1
  -6  -7   5 0.43465 0.66165   4
  -6  -7   5 0.21194 0.54770   2
   5   7  -5 17.8906 1.46451   1
   5   7  -5 17.5548 1.31600   5
  -5  -7   5 16.1817 1.44519   4
  -5  -7   5 18.0000 1.39486   2
   4   7  -5 0.42239 0.52657   1
  -4  -7   5 0.38032 0.51683   4
  -4  -7   5 1.24137 0.57040   2
   3   7  -5 110.276 3.98680   1
   3   7  -5 110.023 3.87155   5
  -3  -7   5 110.573 3.95199   2
  -3  -7   5 113.559 4.03832   4
   2   7  -5 266.351 7.98591   5
   2   7  -5 270.403 8.13423   1
  -2  -7   5 262.697 8.06670   2
  -2  -7   5 271.393 8.17132   4
   1   7  -5 2.77783 0.67912   1
   1   7  -5 2.36334 0.55635   5
  -1  -7   5 1.62520 0.64418   4
  -1  -7   5 2.88873 0.63729   2
   0   7  -5 24.3923 1.42441   5
   0   7  -5 20.0389 1.36261   1
   0  -7   5 22.7228 1.46938   2
   0  -7   5 22.7871 1.50827   4
  -1   7  -5 12.0827 1.07280   5
  -1   7  -5 13.4705 1.19299   1
   1  -7   5 12.0432 1.20052   4
   1  -7   5 11.9695 1.14028   2
  -2   7  -5 0.12956 0.52382   1
  -2   7  -5 -0.5820 0.37525   5
   2  -7   5 0.17891 0.43988   2
   2  -7   5 -0.1785 0.52033   4
  -3   7  -5 6.79455 1.00354   1
  -3   7  -5 6.14356 0.79185   5
   3  -7   5 6.38840 1.02960   4
   3  -7   5 7.64153 0.92370   2
  -4   7  -5 18.3789 1.22439   5
  -4   7  -5 20.2939 1.60098   1
   4  -7   5 17.9365 1.35192   2
   4  -7   5 16.1177 1.45815   4
  -5   7  -5 18.2270 1.64889   1
   5  -7   5 18.8648 1.67541   4
  -6   7  -5 27.1704 2.01001   1
   6  -7   5 28.2321 2.11521   4
  -7   7  -5 -0.2132 0.76271   1
   7  -7   5 0.04843 0.79082   4
  -8   7  -5 0.56583 0.85621   1
   8  -7   5 0.39338 0.89583   4
   8   6  -5 37.3612 2.34683   1
  -8  -6   5 39.3758 2.36835   4
   7   6  -5 8.94047 1.28747   1
  -7  -6   5 9.19914 1.30184   4
   6   6  -5 12.8328 1.14190   5
   6   6  -5 14.6996 1.37730   1
  -6  -6   5 14.5017 1.19353   2
  -6  -6   5 9.90160 1.17125   4
   5   6  -5 -0.6473 0.44635   1
   5   6  -5 0.14787 0.43005   5
  -5  -6   5 0.47428 0.48019   2
  -5  -6   5 0.96112 0.58601   4
   4   6  -5 7.36138 0.86172   5
   4   6  -5 5.80377 0.88025   1
  -4  -6   5 5.47530 0.77629   2
  -4  -6   5 5.76790 0.91523   4
   3   6  -5 24.0395 1.46945   1
   3   6  -5 24.5311 1.36562   5
  -3  -6   5 26.3084 1.54303   4
  -3  -6   5 22.6512 1.42992   2
   2   6  -5 125.619 4.10348   5
   2   6  -5 125.161 4.21793   1
  -2  -6   5 124.194 4.16212   2
  -2  -6   5 123.283 4.21836   4
   1   6  -5 8.74611 0.84665   1
   1   6  -5 6.24501 0.71443   5
  -1  -6   5 8.91122 0.92673   2
  -1  -6   5 6.07569 0.80013   4
   0   6  -5 23.1369 1.36320   5
   0   6  -5 30.0540 1.48881   1
   0  -6   5 25.2964 1.49171   4
   0  -6   5 24.8275 1.43384   2
  -1   6  -5 170.669 5.45503   1
  -1   6  -5 177.202 5.34648   5
   1  -6   5 173.927 5.52132   4
   1  -6   5 170.526 5.39936   2
  -2   6  -5 5.81294 0.70918   5
  -2   6  -5 5.63321 0.81985   1
   2  -6   5 5.81107 0.85110   4
   2  -6   5 4.87836 0.71494   2
  -3   6  -5 4.53144 0.66204   5
  -3   6  -5 5.27386 0.84443   1
   3  -6   5 4.32916 0.76664   4
   3  -6   5 3.72762 0.65607   2
  -4   6  -5 145.838 5.02914   1
  -4   6  -5 148.351 4.65100   5
   4  -6   5 150.336 5.11453   4
   4  -6   5 151.118 4.81420   2
  -5   6  -5 65.4724 2.58159   6
  -5   6  -5 64.8345 2.89585   1
   5  -6   5 67.8351 2.99445   4
   5  -6   5 64.9631 2.59056   3
  -6   6  -5 0.30002 0.64290   1
  -6   6  -5 0.20277 0.51638   6
   6  -6   5 0.78169 0.56065   3
   6  -6   5 0.26704 0.62859   4
  -7   6  -5 9.30607 1.31023   1
  -7   6  -5 9.54047 1.12561   6
   7  -6   5 11.4763 1.42402   4
   7  -6   5 10.7889 1.19380   3
  -8   6  -5 28.7053 2.19090   1
  -8   6  -5 28.1349 1.90635   6
   8  -6   5 28.9809 1.92366   3
   8  -6   5 24.9538 2.06856   4
  -9   6  -5 21.8935 1.92693   6
   9  -6   5 21.6685 1.97207   3
   9   5  -5 35.9380 2.31335   4
  -9  -5   5 34.6660 2.44160   1
   8   5  -5 90.2641 3.80147   1
   8   5  -5 85.5452 3.62409   4
   7   5  -5 104.433 3.90877   4
   7   5  -5 96.5666 3.92690   1
   6   5  -5 11.9108 1.01115   5
   6   5  -5 12.7569 1.34849   1
  -6  -5   5 11.2417 1.05612   2
   5   5  -5 242.648 6.96083   5
   5   5  -5 230.195 7.22822   1
  -5  -5   5 229.525 6.97323   2
  -5  -5   5 230.068 7.20002   4
   4   5  -5 0.67791 0.47272   1
   4   5  -5 0.32767 0.37409   5
  -4  -5   5 0.73541 0.43125   4
  -4  -5   5 0.39485 0.42253   2
   3   5  -5 1405.68 38.6167   5
   3   5  -5 1481.46 38.8126   1
  -3  -5   5 1442.43 38.7993   4
  -3  -5   5 1440.85 38.6954   2
   2   5  -5 38.5460 1.71844   1
   2   5  -5 39.3736 1.69029   5
  -2  -5   5 37.8449 1.74223   4
  -2  -5   5 37.8873 1.71422   2
   1   5  -5 52.2932 2.03611   5
   1   5  -5 50.8687 2.07114   1
  -1  -5   5 51.2919 2.12032   4
  -1  -5   5 55.2424 2.13829   2
   0   5  -5 306.951 8.77654   5
   0   5  -5 301.665 8.79491   1
   0  -5   5 310.021 8.88315   4
   0  -5   5 308.234 8.84068   2
  -1   5  -5 202.170 5.24928   6
  -1   5  -5 175.266 5.48805   5
   1  -5   5 182.091 5.58473   2
   1  -5   5 173.477 5.61076   4
  -2   5  -5 27.1867 1.45015   1
  -2   5  -5 29.2503 1.38871   5
  -2   5  -5 32.5705 1.17221   6
   2  -5   5 26.9669 1.45703   4
   2  -5   5 29.1526 1.08607   3
   2  -5   5 27.0501 1.41705   2
  -3   5  -5 28.1252 1.33947   5
  -3   5  -5 25.0750 1.41603   1
   3  -5   5 26.9459 1.16379   3
   3  -5   5 26.9668 1.53986   4
   3  -5   5 26.5071 1.41255   2
  -4   5  -5 0.38785 0.37160   5
  -4   5  -5 0.52878 0.49310   1
  -4   5  -5 0.23385 0.36167   6
   4  -5   5 -0.1851 0.47197   4
   4  -5   5 0.54094 0.35833   3
   4  -5   5 0.12074 0.38733   2
  -5   5  -5 25.8037 1.48586   6
  -5   5  -5 28.4923 1.68600   1
  -5   5  -5 26.9931 1.32228   5
   5  -5   5 26.7367 1.43375   3
   5  -5   5 28.2328 1.74144   4
   5  -5   5 26.9936 1.43184   2
  -6   5  -5 124.461 4.45915   1
  -6   5  -5 119.801 4.21698   6
   6  -5   5 126.088 4.50549   4
   6  -5   5 122.790 4.16779   3
  -7   5  -5 -0.2799 0.62074   1
  -7   5  -5 0.19195 0.59360   6
   7  -5   5 -0.1723 0.61182   4
   7  -5   5 0.84351 0.60159   3
  -8   5  -5 20.9327 1.82321   1
  -8   5  -5 19.7186 1.67422   6
   8  -5   5 22.2527 1.74356   3
   8  -5   5 24.6569 1.90522   4
  -9   5  -5 6.65597 1.19464   6
  -9   5  -5 5.41838 1.22616   1
   9  -5   5 7.69948 1.31792   4
   9  -5   5 5.62262 1.11571   3
   9   4  -5 104.287 4.27960   4
  -9  -4   5 105.559 4.46889   1
   8   4  -5 55.8812 2.73409   4
  -8  -4   5 51.0325 2.75985   1
   7   4  -5 7.23183 1.05696   1
   7   4  -5 11.8434 1.27846   4
   6   4  -5 494.798 13.2618   3
   6   4  -5 433.189 13.2679   4
   6   4  -5 457.755 13.4386   1
   6   4  -5 468.403 12.9073   5
  -6  -4   5 467.204 12.9677   2
   5   4  -5 65.8878 2.80153   1
   5   4  -5 71.6816 2.54332   5
   5   4  -5 74.5138 2.45950   3
   5   4  -5 71.2131 2.81135   4
  -5  -4   5 74.1043 2.44015   6
  -5  -4   5 70.2076 2.59435   2
   4   4  -5 0.42354 0.35928   1
   4   4  -5 0.13518 0.33023   5
   4   4  -5 0.99420 0.32404   3
  -4  -4   5 0.02018 0.35103   2
  -4  -4   5 1.20703 0.27915   6
   3   4  -5 153.887 4.89482   1
   3   4  -5 160.600 4.40639   3
   3   4  -5 153.702 4.73776   5
  -3  -4   5 153.967 4.90032   4
  -3  -4   5 152.207 4.79572   2
  -3  -4   5 162.344 4.40040   6
   2   4  -5 286.425 8.33239   5
   2   4  -5 270.833 8.37302   1
   2   4  -5 309.494 7.86425   3
  -2  -4   5 289.570 8.39015   2
  -2  -4   5 312.233 7.86201   6
  -2  -4   5 287.212 8.43003   4
   1   4  -5 -0.0604 0.25975   1
   1   4  -5 -0.4299 0.24756   5
  -1  -4   5 0.74943 0.37042   4
  -1  -4   5 0.09269 0.30545   2
   0   4  -5 1428.39 37.4010   5
   0   4  -5 1353.74 37.3767   1
   0  -4   5 1407.18 37.4670   4
   0  -4   5 1412.45 37.4414   2
  -1   4  -5 9.84500 0.49518   3
  -1   4  -5 8.99021 0.75614   1
  -1   4  -5 10.2372 0.77363   5
   1  -4   5 8.92867 0.78099   2
   1  -4   5 8.67328 0.77993   4
  -2   4  -5 122.338 3.84157   5
  -2   4  -5 120.755 3.91089   1
   2  -4   5 117.534 3.87979   2
   2  -4   5 127.902 3.98749   4
   2  -4   5 128.249 3.58876   3
  -3   4  -5 71.0605 2.43426   6
  -3   4  -5 74.2785 2.49814   5
  -3   4  -5 68.3560 2.59328   1
   3  -4   5 77.8240 2.72184   4
   3  -4   5 68.8792 2.54931   2
   3  -4   5 73.5957 2.36890   3
  -4   4  -5 152.327 4.74553   1
  -4   4  -5 148.326 4.57871   6
  -4   4  -5 145.331 4.47008   5
   4  -4   5 147.886 4.79047   4
   4  -4   5 148.471 4.58706   2
   4  -4   5 144.572 4.48391   3
  -5   4  -5 254.168 7.65790   1
  -5   4  -5 254.681 7.29528   5
  -5   4  -5 249.324 7.53514   6
   5  -4   5 248.337 7.44835   3
   5  -4   5 265.287 7.78708   4
   5  -4   5 258.234 7.43168   2
  -6   4  -5 12.1154 1.19457   1
  -7   4  -5 79.9988 3.22518   6
  -7   4  -5 78.5080 3.25329   1
   7  -4   5 80.5120 3.30551   4
   7  -4   5 81.8374 3.18006   3
  -8   4  -5 0.19003 0.65700   1
  -8   4  -5 0.85411 0.69729   6
   8  -4   5 1.75780 0.80538   4
   8  -4   5 1.18407 0.70386   3
  -9   4  -5 58.2654 2.93776   6
  -9   4  -5 58.3503 2.92629   1
   9  -4   5 60.1860 2.93112   3
   9  -4   5 56.9783 2.91143   4
 -10   4  -5 1.95347 0.94680   1
  10  -4   5 0.57710 1.05194   3
  10  -4   5 2.11755 0.94909   4
  10   3  -5 42.9730 2.92388   4
 -10  -3   5 45.4014 2.91092   1
   9   3  -5 1.28838 0.85643   4
   9   3  -5 0.86887 0.65611   3
  -9  -3   5 0.16286 0.79138   1
  -9  -3   5 0.72204 0.69592   6
   8   3  -5 212.869 6.93246   4
   8   3  -5 206.646 6.60740   3
  -8  -3   5 207.046 6.55763   6
  -8  -3   5 208.949 7.02181   1
   7   3  -5 56.2147 2.67474   4
   7   3  -5 59.7581 2.45930   3
  -7  -3   5 62.2511 2.46819   6
   6   3  -5 427.890 12.8490   1
   6   3  -5 424.183 12.7897   4
   6   3  -5 462.343 12.5481   3
  -6  -3   5 468.091 12.5240   6
   5   3  -5 18.6679 1.05381   3
   5   3  -5 17.8100 1.25524   1
   5   3  -5 16.8846 0.96161   5
   5   3  -5 16.7746 1.23200   4
  -5  -3   5 18.2737 1.05706   2
  -5  -3   5 19.8794 1.05359   6
   4   3  -5 253.407 8.00857   1
   4   3  -5 269.263 7.76749   5
   4   3  -5 275.130 8.02468   4
   4   3  -5 286.210 7.74269   3
  -4  -3   5 282.556 7.70741   6
  -4  -3   5 279.400 7.83807   2
   3   3  -5 1040.58 26.3986   3
   3   3  -5 932.187 26.6796   4
   3   3  -5 993.670 26.5652   5
   3   3  -5 978.990 26.7366   1
  -3  -3   5 1002.65 26.3606   6
  -3  -3   5 993.134 26.6108   2
   2   3  -5 49.5932 1.52055   3
   2   3  -5 45.6172 1.81667   1
   2   3  -5 44.5905 1.74942   5
  -2  -3   5 46.0907 1.79488   2
  -2  -3   5 45.3871 1.82277   4
  -2  -3   5 48.2977 1.52255   6
   1   3  -5 2580.43 66.6499   3
   1   3  -5 2589.55 67.0159   5
   1   3  -5 2398.58 66.4583   1
  -1  -3   5 2479.13 66.4886   2
  -1  -3   5 2467.04 66.4926   4
  -1  -3   5 2551.77 66.5389   6
   0   3  -5 25.2423 1.16370   5
   0   3  -5 22.3880 1.10173   1
   0   3  -5 27.7714 0.88855   3
   0  -3   5 25.4712 1.20257   2
   0  -3   5 25.2917 0.85837   6
   0  -3   5 24.4196 1.16751   4
  -1   3  -5 118.100 3.59739   5
  -1   3  -5 111.412 3.55336   1
  -1   3  -5 120.202 3.31221   3
   1  -3   5 111.859 3.59059   4
   1  -3   5 117.676 3.32680   6
  -2   3  -5 157.958 4.71048   5
  -2   3  -5 157.129 4.72777   1
   2  -3   5 160.131 4.51571   3
   2  -3   5 163.546 4.78965   2
   2  -3   5 156.294 4.76671   4
   2  -3   5 158.097 4.56670   6
  -3   3  -5 17.1966 0.94190   5
  -3   3  -5 18.2773 1.02179   1
   3  -3   5 18.9228 1.02791   2
   3  -3   5 18.7023 0.89720   3
   3  -3   5 18.2667 0.95654   6
   3  -3   5 19.2020 1.07578   4
  -4   3  -5 89.2029 2.89464   5
  -4   3  -5 87.3513 3.04503   1
   4  -3   5 87.9355 3.00302   6
   4  -3   5 90.2473 2.98410   2
   4  -3   5 91.0746 2.95258   3
   4  -3   5 94.1370 3.13464   4
  -5   3  -5 199.969 5.85720   5
  -5   3  -5 201.571 6.15744   6
  -5   3  -5 200.060 6.12335   1
   5  -3   5 201.681 6.06425   3
   5  -3   5 202.137 5.97752   2
   5  -3   5 208.280 6.23271   4
  -6   3  -5 86.2849 3.24389   6
  -6   3  -5 88.3315 3.20762   1
   6  -3   5 87.0544 3.15022   3
   6  -3   5 85.8707 3.22990   4
  -7   3  -5 0.55093 0.60723   1
  -7   3  -5 2.62237 0.72759   6
   7  -3   5 1.31214 0.62051   3
   7  -3   5 1.87488 0.68735   4
  -8   3  -5 57.4114 2.64323   1
  -8   3  -5 55.6245 2.67429   6
   8  -3   5 52.4848 2.56603   3
   8  -3   5 53.5321 2.57018   4
  -9   3  -5 3.29881 0.98123   6
  -9   3  -5 4.34685 0.99039   1
   9  -3   5 3.00748 0.90233   4
   9  -3   5 3.18341 0.90826   3
 -10   3  -5 61.5562 3.01556   1
 -10   3  -5 58.1878 3.11792   6
  10  -3   5 58.6324 3.00179   4
  10  -3   5 56.8077 2.96456   3
  10   2  -5 5.16750 1.01490   3
  10   2  -5 4.74107 1.17963   4
 -10  -2   5 4.20361 1.16187   1
 -10  -2   5 5.66202 1.09769   6
   9   2  -5 284.191 8.88252   3
   9   2  -5 286.161 9.14236   4
  -9  -2   5 295.027 9.30820   1
  -9  -2   5 276.440 8.77722   6
   8   2  -5 0.64197 0.72166   4
   8   2  -5 1.54808 0.62787   3
  -8  -2   5 0.94128 0.80619   1
  -8  -2   5 0.91420 0.64077   6
   7   2  -5 535.518 15.9385   4
   7   2  -5 558.532 15.7487   3
  -7  -2   5 572.570 15.7289   6
  -7  -2   5 573.631 16.1079   1
   6   2  -5 74.1598 2.90886   4
   6   2  -5 70.5034 2.70452   3
  -6  -2   5 69.7757 2.65267   6
   5   2  -5 4.46719 0.68961   4
   5   2  -5 0.32013 0.43334   1
   5   2  -5 2.08826 0.48353   3
  -5  -2   5 0.37859 0.35912   6
   4   2  -5 603.817 17.0887   4
   4   2  -5 620.948 16.8900   3
   4   2  -5 612.248 17.1328   1
   4   2  -5 612.358 16.7733   5
  -4  -2   5 643.790 16.8374   2
  -4  -2   5 634.194 16.8756   6
   3   2  -5 93.4694 2.89340   3
   3   2  -5 93.4187 2.92348   5
   3   2  -5 90.3908 3.09024   1
   3   2  -5 94.5989 3.11035   4
  -3  -2   5 95.0745 2.89243   6
  -3  -2   5 96.1149 2.96660   2
   2   2  -5 1.08775 0.31555   5
   2   2  -5 1.22164 0.36195   4
   2   2  -5 1.45733 0.37126   1
  -2  -2   5 2.16635 0.31230   6
  -2  -2   5 1.12304 0.33715   2
   1   2  -5 101.584 2.83392   3
   1   2  -5 93.8244 3.02202   1
  -1  -2   5 90.4706 3.03007   2
  -1  -2   5 101.505 2.86220   6
  -1  -2   5 99.4844 3.05599   4
   0   2  -5 114.776 3.52778   1
   0   2  -5 116.056 3.59505   5
   0   2  -5 123.990 3.39755   3
   0  -2   5 114.889 3.55781   4
   0  -2   5 120.071 3.63120   2
   0  -2   5 124.701 3.39794   6
  -1   2  -5 -0.0391 0.17077   1
  -1   2  -5 0.05728 0.15914   3
  -1   2  -5 0.14469 0.23587   5
   1  -2   5 -0.0140 0.15451   6
   1  -2   5 -0.2058 0.23178   2
   1  -2   5 0.13627 0.20055   4
  -2   2  -5 1969.80 53.2392   1
  -2   2  -5 2058.74 53.3190   5
   2  -2   5 2000.69 53.3507   2
   2  -2   5 2032.85 54.2375   4
   2  -2   5 1996.15 53.6933   6
  -3   2  -5 69.6410 2.28868   1
  -3   2  -5 67.1558 2.27496   5
   3  -2   5 70.2475 2.32110   4
   3  -2   5 67.0589 2.32642   2
   3  -2   5 66.7363 2.29287   6
   3  -2   5 66.6398 2.22231   3
  -4   2  -5 760.885 20.7974   1
  -4   2  -5 744.243 20.7116   5
   4  -2   5 773.700 20.8683   4
   4  -2   5 784.873 20.8153   3
   4  -2   5 775.029 20.8871   6
   4  -2   5 779.327 20.8173   2
  -5   2  -5 900.501 23.8393   5
  -5   2  -5 860.998 23.9925   1
   5  -2   5 903.320 24.0481   3
   5  -2   5 887.923 24.1241   6
   5  -2   5 917.458 23.9501   2
   5  -2   5 854.295 24.0512   4
  -6   2  -5 0.60743 0.45135   1
  -6   2  -5 0.21312 0.32206   5
   6  -2   5 0.12661 0.40118   3
   6  -2   5 0.73234 0.45049   4
   6  -2   5 0.01613 0.33522   2
  -7   2  -5 520.127 15.2150   6
  -7   2  -5 541.523 15.0547   1
   7  -2   5 522.517 15.0652   3
   7  -2   5 551.248 15.0880   4
  -8   2  -5 15.0819 1.51120   6
  -8   2  -5 16.7811 1.37792   1
   8  -2   5 11.1484 1.24249   4
   8  -2   5 15.3958 1.42197   3
  -9   2  -5 4.55980 0.98892   6
  -9   2  -5 9.22766 1.21221   1
   9  -2   5 6.22175 1.04476   4
   9  -2   5 6.80131 1.12404   3
 -10   2  -5 3.92232 0.96602   1
 -10   2  -5 2.93766 1.05905   6
  10  -2   5 1.75028 0.84878   4
  10  -2   5 3.23685 0.96829   3
  10   1  -5 47.5521 2.81137   4
  10   1  -5 43.1371 2.52976   3
 -10  -1   5 45.4855 2.90002   1
 -10  -1   5 41.8931 2.51612   6
   9   1  -5 10.2950 1.43253   4
   9   1  -5 11.2116 1.33048   3
  -9  -1   5 6.94167 1.13989   6
  -9  -1   5 10.3101 1.49022   1
   8   1  -5 29.2684 1.84185   3
   8   1  -5 27.6822 1.96364   4
  -8  -1   5 31.2051 1.86044   6
  -8  -1   5 30.2782 2.07053   1
   7   1  -5 27.9405 1.73455   4
   7   1  -5 22.2458 1.51601   3
  -7  -1   5 23.0485 1.53007   6
  -7  -1   5 20.4725 1.65000   1
   6   1  -5 210.793 6.74128   4
   6   1  -5 221.196 6.65630   3
  -6  -1   5 221.147 6.61728   6
  -6  -1   5 215.785 6.82397   1
   5   1  -5 272.302 8.12765   4
   5   1  -5 294.232 7.67261   5
   5   1  -5 270.854 7.99256   3
  -5  -1   5 261.495 8.14988   1
  -5  -1   5 275.210 7.97523   6
   4   1  -5 1177.95 31.4498   4
   4   1  -5 1101.40 31.4124   1
   4   1  -5 1200.31 31.0494   5
   4   1  -5 1178.48 31.3068   3
  -4  -1   5 1159.53 31.2759   6
  -4  -1   5 1190.02 31.0670   2
   3   1  -5 119.598 3.58384   3
   3   1  -5 115.755 3.70734   1
   3   1  -5 118.029 3.69124   4
  -3  -1   5 117.944 3.49154   2
  -3  -1   5 116.184 3.57029   6
   2   1  -5 836.135 21.7205   4
   2   1  -5 802.756 21.5937   5
   2   1  -5 826.482 21.5955   3
   2   1  -5 772.576 21.6891   1
  -2  -1   5 784.952 21.6070   2
  -2  -1   5 821.852 21.6117   6
   1   1  -5 1321.04 34.3219   3
   1   1  -5 1307.97 34.2298   5
   1   1  -5 1269.07 34.2001   1
   1   1  -5 1256.19 34.1997   4
  -1  -1   5 1276.19 34.2461   2
  -1  -1   5 1298.14 34.1646   6
   0   1  -5 553.484 14.5830   1
   0   1  -5 545.391 14.6843   5
   0   1  -5 550.233 14.5714   3
   0  -1   5 567.031 14.5888   6
   0  -1   5 501.067 14.6784   2
   0  -1   5 529.372 14.5852   4
  -1   1  -5 1092.38 28.8276   3
  -1   1  -5 1112.48 28.7995   1
  -1   1  -5 1096.98 28.9599   5
   1  -1   5 1036.85 28.9763   2
   1  -1   5 1087.58 28.8528   6
  -2   1  -5 60.8690 2.09333   5
  -2   1  -5 65.6867 1.99324   1
  -2   1  -5 64.5262 2.04078   3
   2  -1   5 63.6352 2.07156   6
   2  -1   5 62.5470 2.15413   2
  -3   1  -5 86.8166 2.78443   5
  -3   1  -5 88.0372 2.70055   1
   3  -1   5 80.8389 2.70006   4
   3  -1   5 89.8975 2.77405   3
   3  -1   5 87.4031 2.84555   2
   3  -1   5 89.4511 2.83229   6
  -4   1  -5 19.0298 0.91645   1
  -4   1  -5 16.9981 0.91966   5
   4  -1   5 16.7063 1.02445   6
   4  -1   5 17.7184 0.93161   4
   4  -1   5 18.6480 1.00257   2
   4  -1   5 16.8278 0.96360   3
  -5   1  -5 317.173 8.57340   1
  -5   1  -5 296.107 8.44464   5
   5  -1   5 303.570 8.56606   4
   5  -1   5 293.117 8.72547   6
   5  -1   5 295.272 8.63848   3
   5  -1   5 305.145 8.55574   2
  -6   1  -5 196.960 5.70716   1
  -6   1  -5 181.313 5.46644   5
   6  -1   5 184.094 5.77460   3
   6  -1   5 192.875 5.71967   4
   6  -1   5 192.793 5.60298   2
   6  -1   5 179.224 5.85703   6
  -7   1  -5 133.107 4.30695   1
   7  -1   5 130.060 4.29856   4
   7  -1   5 125.839 4.38335   3
  -8   1  -5 216.216 7.04218   6
  -8   1  -5 216.661 6.72627   1
   8  -1   5 213.709 6.83086   3
   8  -1   5 214.353 6.70258   4
  -9   1  -5 2.81884 0.79635   1
  -9   1  -5 1.83204 0.86271   6
   9  -1   5 2.51486 0.77297   4
   9  -1   5 2.95533 0.85297   3
 -10   1  -5 48.3675 2.74289   6
  10  -1   5 45.1399 2.59133   3
  10   0  -5 36.9860 3.40560   4
  10   0  -5 35.4589 2.36448   3
 -10   0   5 36.4490 2.38106   6
 -10   0   5 33.7500 2.89748   1
   9   0  -5 0.00687 0.62661   4
   9   0  -5 0.47577 0.68313   3
  -9   0   5 -0.0923 0.75404   6
  -9   0   5 -0.2807 0.74311   1
   8   0  -5 13.1767 1.38379   3
   8   0  -5 12.3941 1.43263   4
  -8   0   5 10.4307 1.33936   1
  -8   0   5 11.2643 1.28334   6
   7   0  -5 144.747 4.89173   3
   7   0  -5 136.229 4.92268   4
  -7   0   5 144.156 5.03600   1
  -7   0   5 145.257 4.85293   6
   6   0  -5 4.62077 0.74049   3
   6   0  -5 3.20771 0.74946   4
  -6   0   5 2.79423 0.73829   1
  -6   0   5 3.93493 0.70255   6
   5   0  -5 1086.41 29.6285   4
   5   0  -5 1093.82 29.5492   3
  -5   0   5 1093.52 29.6668   1
  -5   0   5 1098.14 29.5252   6
   4   0  -5 338.673 9.53206   3
   4   0  -5 358.250 9.14825   5
   4   0  -5 318.151 9.56660   4
  -4   0   5 346.886 9.16211   2
  -4   0   5 338.915 9.52415   6
  -4   0   5 316.585 9.58826   1
   3   0  -5 16.1669 0.70759   5
   3   0  -5 15.7098 0.88743   3
   3   0  -5 13.6747 0.87919   4
  -3   0   5 12.7477 0.84463   6
  -3   0   5 15.7075 0.71676   2
   2   0  -5 837.192 23.0137   4
   2   0  -5 902.378 23.0522   1
   2   0  -5 882.560 22.9980   3
   2   0  -5 761.673 22.8510   5
  -2   0   5 906.026 22.9279   2
  -2   0   5 863.888 23.0225   6
   1   0  -5 17.4530 0.78362   4
   1   0  -5 18.0060 0.79075   1
   1   0  -5 17.7570 0.79278   5
   1   0  -5 18.1431 0.82758   3
  -1   0   5 16.3462 0.80275   2
  -1   0   5 17.4456 0.84216   6
   0   0  -5 3.22627 0.35277   3
   0   0  -5 4.10394 0.31146   4
   0   0  -5 3.46329 0.38947   5
   0   0  -5 4.03179 0.30860   1
   0   0   5 5.48487 0.44377   6
   0   0   5 3.80078 0.42824   2
  -1   0  -5 382.741 10.2798   1
  -1   0  -5 382.397 10.5330   5
  -1   0  -5 368.327 10.4565   3
   1   0   5 375.051 10.5595   2
   1   0   5 394.793 10.3101   4
   1   0   5 396.539 10.5089   6
  -2   0  -5 9.34443 0.42560   1
  -2   0  -5 8.40817 0.56600   3
  -2   0  -5 8.11858 0.60294   5
   2   0   5 8.43628 0.64466   2
   2   0   5 8.64824 0.43270   4
  -3   0  -5 106.298 3.01223   1
  -3   0  -5 108.596 3.24330   5
   3   0   5 102.663 3.20541   3
   3   0   5 99.3351 3.23737   6
   3   0   5 100.087 3.24824   2
   3   0   5 106.650 3.04153   4
  -4   0  -5 2997.48 77.7803   5
  -4   0  -5 3037.05 78.0091   1
   4   0   5 2935.06 77.8497   6
   4   0   5 2801.38 77.6347   2
   4   0   5 2808.42 77.0843   3
  -5   0  -5 9.24345 0.67453   1
  -5   0  -5 8.88961 0.70061   5
   5   0   5 8.68039 0.72960   2
   5   0   5 8.18195 0.65825   4
   5   0   5 8.19236 0.86537   6
   5   0   5 7.68197 0.74602   3
  -6   0  -5 741.412 19.6608   5
  -6   0  -5 727.710 19.7305   1
   6   0   5 740.079 19.7455   2
   6   0   5 707.786 19.8802   3
   6   0   5 735.637 19.7328   4
   6   0   5 699.146 19.9959   6
  -7   0  -5 417.230 11.4139   1
   7   0   5 398.257 11.6756   6
   7   0   5 394.804 11.3619   4
   7   0   5 395.537 11.5527   3
  -8   0  -5 7.95890 0.96926   1
   8   0   5 8.47577 1.09294   3
   8   0   5 7.36818 0.94023   4
  -9   0  -5 150.094 5.51290   6
  -9   0  -5 151.921 5.13868   1
   9   0   5 155.563 5.32981   3
   9   0   5 151.653 5.13639   4
 -10   0  -5 2.92624 1.01766   6
  10   0   5 3.50266 0.93113   3
   9  -1  -5 0.45429 0.81422   4
   9  -1  -5 1.75296 0.78842   3
  -9   1   5 1.25667 0.83710   1
  -9   1   5 1.08749 0.81525   6
   8  -1  -5 0.98464 0.76933   4
   8  -1  -5 0.00609 0.59867   3
  -8   1   5 0.88217 0.71781   6
  -8   1   5 0.70739 0.79939   1
   7  -1  -5 19.6594 1.53003   3
   7  -1  -5 18.9399 1.56787   4
  -7   1   5 22.0992 1.69652   1
  -7   1   5 20.5882 1.56862   6
   6  -1  -5 132.696 4.48593   3
   6  -1  -5 132.455 4.55055   4
  -6   1   5 129.016 4.43290   6
  -6   1   5 129.900 4.55732   1
   5  -1  -5 144.676 4.53579   3
   5  -1  -5 127.316 4.50231   4
  -5   1   5 137.077 4.53931   1
  -5   1   5 140.772 4.48835   6
   4  -1  -5 383.478 10.9690   3
   4  -1  -5 409.166 10.4418   5
   4  -1  -5 387.764 11.0156   4
  -4   1   5 365.457 10.9942   1
  -4   1   5 362.645 10.9194   6
  -4   1   5 421.838 10.4965   2
   3  -1  -5 80.9330 2.76882   3
   3  -1  -5 74.9326 2.73035   4
   3  -1  -5 84.9725 2.45691   5
  -3   1   5 84.6519 2.80830   1
  -3   1   5 86.9361 2.50070   2
   2  -1  -5 1140.72 31.2604   4
   2  -1  -5 1180.46 31.2929   3
  -2   1   5 1163.16 31.3179   6
  -2   1   5 1178.36 31.2774   1
  -2   1   5 1198.91 31.1268   2
   1  -1  -5 36.4547 1.30415   4
   1  -1  -5 38.3937 1.41973   3
   1  -1  -5 36.9527 1.32521   5
  -1   1   5 38.4961 1.36266   2
  -1   1   5 37.8059 1.33065   1
  -1   1   5 37.3774 1.44912   6
   0  -1  -5 216.018 6.05965   5
   0  -1  -5 216.177 5.85897   4
   0   1   5 213.556 6.09943   6
   0   1   5 214.788 6.08056   2
  -1  -1  -5 672.811 18.5706   3
  -1  -1  -5 690.127 18.6136   5
  -1  -1  -5 719.952 18.2589   1
   1   1   5 678.729 18.6012   6
   1   1   5 677.207 18.6438   2
   1   1   5 711.292 18.2951   4
  -2  -1  -5 27.2236 1.16491   5
  -2  -1  -5 28.0982 1.14710   3
   2   1   5 29.0015 0.82118   4
   2   1   5 25.9305 1.18173   2
   2   1   5 29.3861 1.19424   6
  -3  -1  -5 57.2951 1.94252   3
  -3  -1  -5 54.5785 1.61808   1
  -3  -1  -5 54.0929 1.94615   5
   3   1   5 57.6715 1.64349   4
   3   1   5 52.8104 1.97516   2
   3   1   5 52.2563 1.94610   6
  -4  -1  -5 25.2478 0.96683   1
  -4  -1  -5 26.5706 1.20439   5
   4   1   5 24.5584 1.22119   2
   4   1   5 25.6058 1.21142   3
   4   1   5 27.0767 0.99745   4
   4   1   5 25.4755 1.24482   6
  -5  -1  -5 119.225 3.49211   1
  -5  -1  -5 120.147 3.66134   5
   5   1   5 111.122 3.77997   6
   5   1   5 114.174 3.71338   3
   5   1   5 112.421 3.68015   2
  -6  -1  -5 26.6193 1.22278   1
  -6  -1  -5 27.1410 1.28507   5
   6   1   5 24.1932 1.31268   2
   6   1   5 22.8143 1.16229   4
   6   1   5 24.4527 1.45260   6
   6   1   5 24.8164 1.39306   3
  -7  -1  -5 574.636 15.2612   5
  -7  -1  -5 544.794 15.2829   1
   7   1   5 558.245 15.3058   2
   7   1   5 530.166 15.6358   6
   7   1   5 575.177 15.3316   4
   7   1   5 536.787 15.5078   3
  -8  -1  -5 32.8110 1.66008   1
   8   1   5 31.4997 1.67062   4
   8   1   5 29.7404 1.90359   6
   8   1   5 33.6227 1.86043   3
  -9  -1  -5 20.7847 1.70768   6
   9   1   5 23.3881 1.70037   3
 -10  -1  -5 18.2135 1.81482   6
  10   1   5 18.1291 1.69765   3
 -11  -1  -5 5.40902 1.95613   6
  11   1   5 7.31763 1.42908   3
   9  -2  -5 7.44903 1.21193   3
   9  -2  -5 7.52037 1.29950   4
  -9   2   5 7.89669 1.40084   1
  -9   2   5 7.56272 1.31323   6
   8  -2  -5 1.03479 0.71473   4
   8  -2  -5 0.61204 0.66995   3
  -8   2   5 0.92105 0.74696   6
  -8   2   5 1.56459 0.84768   1
   7  -2  -5 0.78360 0.68595   4
   7  -2  -5 0.22021 0.58133   3
  -7   2   5 -0.0035 0.62176   6
  -7   2   5 -0.2723 0.62963   1
   6  -2  -5 63.2654 2.75380   3
   6  -2  -5 66.5599 2.82310   4
  -6   2   5 69.1671 2.90536   1
  -6   2   5 65.8740 2.76063   6
   5  -2  -5 172.072 5.55936   4
   5  -2  -5 176.937 5.57771   3
  -5   2   5 176.556 5.55706   6
  -5   2   5 175.547 5.61856   1
   4  -2  -5 0.08867 0.31925   3
   4  -2  -5 0.45934 0.39519   4
  -4   2   5 -0.3149 0.37412   6
  -4   2   5 -0.0466 0.34110   1
   3  -2  -5 194.763 6.15314   4
   3  -2  -5 205.716 6.19996   3
   3  -2  -5 211.536 5.78822   5
  -3   2   5 224.289 5.84082   2
  -3   2   5 220.835 6.24074   1
  -3   2   5 203.946 6.20106   6
   2  -2  -5 260.537 7.26329   4
   2  -2  -5 242.326 7.29092   3
   2  -2  -5 254.572 7.07974   5
  -2   2   5 250.800 7.27296   1
  -2   2   5 263.572 7.38412   6
  -2   2   5 269.070 7.12588   2
   1  -2  -5 286.377 7.71906   4
   1  -2  -5 283.495 7.74336   5
   1  -2  -5 271.119 7.84517   3
  -1   2   5 290.360 7.76979   2
  -1   2   5 275.101 7.73279   1
  -1   2   5 271.375 7.89503   6
   0  -2  -5 189.597 5.24944   4
   0  -2  -5 189.259 5.46075   5
   0   2   5 189.817 5.47128   2
   0   2   5 192.141 5.26387   1
   0   2   5 193.670 5.55618   6
  -1  -2  -5 1.95010 0.14609   4
  -1  -2  -5 2.08700 0.36805   3
  -1  -2  -5 1.57251 0.32642   5
   1   2   5 1.19410 0.29301   2
   1   2   5 1.73902 0.34371   6
   1   2   5 2.72528 0.16548   1
  -2  -2  -5 249.374 7.03777   3
   2   2   5 251.539 7.12832   2
   2   2   5 248.443 7.08338   6
  -3  -2  -5 226.026 6.56165   5
  -3  -2  -5 230.449 6.51315   3
  -3  -2  -5 230.403 6.09407   1
   3   2   5 237.483 6.09048   4
   3   2   5 224.128 6.59418   2
   3   2   5 216.815 6.54853   6
  -4  -2  -5 26.9886 0.92963   1
  -4  -2  -5 24.4446 1.18241   5
   4   2   5 23.2529 1.21614   2
   4   2   5 25.1615 0.90749   4
   4   2   5 25.8214 1.26443   6
  -5  -2  -5 82.3736 2.79301   5
  -5  -2  -5 85.0477 2.53938   1
   5   2   5 80.7271 2.50665   4
   5   2   5 76.3842 2.77640   3
   5   2   5 78.7105 2.81632   2
   5   2   5 81.9482 2.89343   6
  -6  -2  -5 489.012 13.0922   1
  -6  -2  -5 479.753 13.2596   5
   6   2   5 474.460 13.2973   2
   6   2   5 471.885 13.3378   3
   6   2   5 467.879 13.4806   6
  -7  -2  -5 79.2771 2.80262   1
  -7  -2  -5 86.4369 2.89961   5
   7   2   5 78.7070 2.78865   4
   7   2   5 79.3414 3.17678   6
   7   2   5 86.4022 2.96644   2
   7   2   5 79.8806 3.04787   3
   8   2   5 139.311 4.81019   3
   8   2   5 145.335 5.00919   6
   9   2   5 85.3335 3.62157   6
   9   2   5 85.2360 3.44544   3
 -10  -2  -5 0.73850 0.86023   6
  10   2   5 -0.2593 0.65957   3
 -11  -2  -5 33.3311 2.56913   6
  11   2   5 32.5908 2.32195   3
   9  -3  -5 18.8742 1.87293   3
   9  -3  -5 20.7590 1.98223   4
  -9   3   5 19.5855 1.96090   1
  -9   3   5 20.9532 1.93996   6
   8  -3  -5 19.7184 1.75572   3
   8  -3  -5 19.5935 1.81142   4
  -8   3   5 22.2420 1.84260   6
  -8   3   5 19.8641 1.84897   1
   7  -3  -5 4.89796 0.94086   3
   7  -3  -5 4.45738 0.95703   4
  -7   3   5 3.69410 0.94856   1
  -7   3   5 4.48509 1.00758   6
   6  -3  -5 16.2739 1.38315   4
   6  -3  -5 16.1969 1.39627   3
  -6   3   5 15.5824 1.40359   6
  -6   3   5 14.4463 1.38961   1
   5  -3  -5 18.6795 1.33101   4
   5  -3  -5 22.4074 1.43470   3
  -5   3   5 16.9268 1.29028   6
  -5   3   5 18.0926 1.37826   1
   4  -3  -5 31.2288 1.55302   4
   4  -3  -5 29.9162 1.53354   3
  -4   3   5 28.4490 1.55526   1
  -4   3   5 29.8436 1.57979   6
   3  -3  -5 59.4158 1.77244   5
   3  -3  -5 55.7263 2.15646   3
   3  -3  -5 47.8921 2.03627   4
  -3   3   5 55.4066 2.14802   1
  -3   3   5 51.5266 2.15099   6
  -3   3   5 56.2171 1.75948   2
   2  -3  -5 103.167 3.00467   5
   2  -3  -5 96.4583 3.14453   4
   2  -3  -5 98.6694 3.21837   3
  -2   3   5 100.143 3.00014   2
  -2   3   5 102.282 3.20555   1
  -2   3   5 93.4688 3.25182   6
   1  -3  -5 10.1892 0.66890   5
   1  -3  -5 10.7091 0.75160   3
  -1   3   5 10.3531 0.66501   1
  -1   3   5 10.2133 0.68096   2
  -1   3   5 10.1630 0.82140   6
   0  -3  -5 256.768 6.99534   4
   0  -3  -5 251.970 7.23385   3
   0  -3  -5 260.814 7.21684   5
   0   3   5 246.193 6.98505   1
   0   3   5 255.402 7.22107   2
   0   3   5 257.606 7.30731   6
  -1  -3  -5 108.790 3.44149   5
  -1  -3  -5 109.215 3.43148   3
  -1  -3  -5 116.713 3.09479   4
   1   3   5 112.482 3.09411   1
   1   3   5 109.996 3.47612   6
   1   3   5 104.108 3.44354   2
  -2  -3  -5 13.9262 0.89784   5
  -2  -3  -5 14.6975 0.83068   3
  -2  -3  -5 15.6786 0.48967   4
   2   3   5 15.5488 0.94866   2
   2   3   5 14.7306 0.89018   6
  -3  -3  -5 192.387 5.00211   4
  -3  -3  -5 184.652 5.51932   5
  -3  -3  -5 173.911 5.39643   3
  -3  -3  -5 206.259 5.01465   1
   3   3   5 180.409 5.47486   6
   3   3   5 170.733 5.50194   2
  -4  -3  -5 8.37960 0.74084   3
  -4  -3  -5 10.7520 0.52080   1
  -4  -3  -5 8.96687 0.75888   5
   4   3   5 8.99488 0.82935   2
   4   3   5 9.18020 0.78758   6
   4   3   5 10.6236 0.49372   4
  -5  -3  -5 97.2950 3.28598   3
  -5  -3  -5 100.016 3.34064   5
  -5  -3  -5 104.359 2.99223   1
   5   3   5 98.3775 2.93173   4
   5   3   5 95.5427 3.33490   2
   5   3   5 94.9193 3.35489   6
  -6  -3  -5 31.9667 1.62463   5
  -6  -3  -5 36.8234 1.42113   1
   6   3   5 35.2423 1.73173   6
   6   3   5 33.6812 1.65950   3
   6   3   5 34.9614 1.36268   4
   6   3   5 34.3437 1.66845   2
  -7  -3  -5 25.0969 1.33286   5
   7   3   5 24.1148 1.55906   6
   7   3   5 22.0910 1.36597   2
   7   3   5 23.1211 1.42104   3
  -8  -3  -5 0.74738 0.37047   5
   8   3   5 -0.1610 0.46085   2
   8   3   5 0.45498 0.51996   3
   8   3   5 0.36706 0.57067   6
   9   3   5 16.5348 1.60751   6
   9   3   5 19.0202 1.50386   3
 -10  -3  -5 8.57115 1.42199   6
  10   3   5 10.4819 1.33164   3
 -11  -3  -5 28.7361 2.29769   6
  11   3   5 28.6943 2.15394   3
   8  -4  -5 3.24339 0.94051   4
   8  -4  -5 3.63744 1.00980   3
  -8   4   5 3.14760 0.98711   1
  -8   4   5 3.00711 0.98477   6
   7  -4  -5 1.88176 0.77950   4
   7  -4  -5 2.32631 0.76981   3
  -7   4   5 1.34470 0.77136   6
  -7   4   5 1.52153 0.81083   1
   6  -4  -5 20.8096 1.61328   3
   6  -4  -5 23.9447 1.67360   4
  -6   4   5 24.9212 1.74703   1
  -6   4   5 26.6388 1.79075   6
   5  -4  -5 -0.2371 0.48819   3
   5  -4  -5 -0.1224 0.48820   4
  -5   4   5 -0.6888 0.51260   6
  -5   4   5 -0.3327 0.48510   1
   4  -4  -5 29.8910 1.60152   4
   4  -4  -5 30.6228 1.60228   3
  -4   4   5 29.2144 1.60348   6
  -4   4   5 30.3419 1.64496   1
   3  -4  -5 10.8309 0.93436   3
   3  -4  -5 10.6336 0.89866   4
   3  -4  -5 11.4938 0.62305   5
  -3   4   5 9.73522 0.61444   2
  -3   4   5 10.2535 0.91672   1
  -3   4   5 10.3977 1.00058   6
   2  -4  -5 135.905 4.42892   3
   2  -4  -5 144.324 4.41815   4
  -2   4   5 144.951 4.56377   6
  -2   4   5 142.425 4.43994   1
  -2   4   5 150.579 4.25108   2
   1  -4  -5 261.660 7.17206   5
   1  -4  -5 249.723 7.25481   3
   1  -4  -5 256.955 7.15200   4
  -1   4   5 250.879 7.15390   2
  -1   4   5 246.403 7.14214   1
  -1   4   5 249.892 7.35263   6
   0  -4  -5 11.3888 0.65818   4
   0  -4  -5 11.4429 0.79405   3
   0  -4  -5 10.6527 0.75859   5
   0   4   5 11.7488 0.83561   6
   0   4   5 11.9704 0.79319   2
   0   4   5 12.3863 0.66327   1
  -1  -4  -5 315.906 8.71817   4
  -1  -4  -5 316.799 9.05872   5
  -1  -4  -5 324.072 9.03021   3
   1   4   5 320.800 9.09056   2
   1   4   5 322.464 9.08706   6
   1   4   5 325.425 8.73175   1
  -2  -4  -5 44.4274 1.36202   4
  -2  -4  -5 42.6931 1.69286   3
   2   4   5 42.4283 1.78506   2
   2   4   5 41.9060 1.71910   6
   2   4   5 44.2613 1.36578   1
  -3  -4  -5 24.5756 1.16496   3
  -3  -4  -5 22.9094 1.25316   5
  -3  -4  -5 24.0019 0.83250   4
   3   4   5 23.6438 0.83115   1
   3   4   5 23.3067 1.20003   6
   3   4   5 24.0402 1.28629   2
  -4  -4  -5 17.0710 0.70325   4
  -4  -4  -5 14.3049 0.93828   3
  -4  -4  -5 15.1121 1.04798   5
   4   4   5 16.0538 1.01505   6
   4   4   5 14.1965 1.04623   2
   4   4   5 16.3909 0.69989   1
  -5  -4  -5 6.05338 0.48236   4
  -5  -4  -5 4.24324 0.63916   5
  -5  -4  -5 5.21545 0.48660   1
  -5  -4  -5 4.16535 0.59671   3
   5   4   5 3.87219 0.59320   6
   5   4   5 4.57815 0.72323   2
  -6  -4  -5 131.468 4.31603   5
  -6  -4  -5 124.642 4.24083   3
   6   4   5 136.210 4.42763   6
   6   4   5 131.481 4.34351   2
  -7  -4  -5 3.43068 0.65759   5
  -7  -4  -5 3.61285 0.73614   3
   7   4   5 3.32580 0.78915   6
   7   4   5 3.19997 0.67200   2
  -8  -4  -5 1.91657 0.48901   5
   8   4   5 1.59111 0.59113   2
   8   4   5 0.79974 0.65904   6
   9   4   5 6.80369 1.03059   3
   9   4   5 7.84779 1.20340   6
  10   4   5 0.30721 0.69793   3
 -11  -4  -5 16.1486 2.00439   6
  11   4   5 18.7668 1.86137   3
   8  -5  -5 23.5002 2.01719   3
   8  -5  -5 31.1906 2.21433   4
  -8   5   5 24.5940 2.11035   6
  -8   5   5 26.8916 2.17325   1
   7  -5  -5 13.1003 1.47084   4
   7  -5  -5 13.7277 1.51649   3
  -7   5   5 14.0468 1.57690   1
  -7   5   5 11.1347 1.40530   6
   6  -5  -5 -0.1594 0.57100   3
   6  -5  -5 0.11237 0.60539   4
  -6   5   5 -0.8435 0.61155   1
  -6   5   5 0.54470 0.72585   6
   5  -5  -5 1.31073 0.62857   3
   5  -5  -5 1.83789 0.62536   4
  -5   5   5 0.42440 0.63641   6
  -5   5   5 0.55468 0.62755   1
   4  -5  -5 157.005 5.00515   4
   4  -5  -5 139.722 4.90160   3
  -4   5   5 151.683 5.04792   6
  -4   5   5 157.312 5.05483   1
   3  -5  -5 63.5168 2.50904   4
   3  -5  -5 63.6652 2.52892   3
  -3   5   5 67.2010 2.63700   6
  -3   5   5 66.4672 2.56663   1
   2  -5  -5 30.5874 1.49704   3
   2  -5  -5 33.6613 1.50297   4
  -2   5   5 30.5445 1.48187   1
  -2   5   5 30.3493 1.59818   6
  -2   5   5 33.2873 1.35108   2
   1  -5  -5 0.98484 0.36076   4
   1  -5  -5 1.07642 0.39609   3
   1  -5  -5 0.60412 0.34336   5
  -1   5   5 1.20999 0.36786   1
  -1   5   5 1.12093 0.45576   6
  -1   5   5 0.84074 0.36703   2
   0  -5  -5 289.031 8.36459   5
   0  -5  -5 297.050 8.37204   3
   0  -5  -5 297.316 8.21833   4
   0   5   5 292.572 8.46241   6
   0   5   5 294.110 8.21497   1
   0   5   5 290.763 8.37909   2
  -1  -5  -5 0.17371 0.27851   3
  -1  -5  -5 0.14550 0.21783   4
  -1  -5  -5 0.04741 0.32978   5
   1   5   5 0.20540 0.22245   1
   1   5   5 0.30266 0.33069   2
   1   5   5 0.18666 0.30867   6
  -2  -5  -5 216.033 6.52712   5
  -2  -5  -5 221.031 6.08266   4
  -2  -5  -5 220.034 6.40274   3
   2   5   5 212.083 6.51115   2
   2   5   5 215.801 6.43880   6
   2   5   5 225.407 6.09576   1
  -3  -5  -5 2.15604 0.27641   4
  -3  -5  -5 1.14493 0.42325   5
  -3  -5  -5 0.96604 0.35754   3
   3   5   5 1.20505 0.40660   6
   3   5   5 1.48222 0.46752   2
   3   5   5 1.87544 0.28490   1
  -4  -5  -5 0.38269 0.31701   3
  -4  -5  -5 0.34554 0.37874   5
  -4  -5  -5 -0.0376 0.17852   4
   4   5   5 0.26846 0.40183   2
   4   5   5 1.09374 0.43579   6
   4   5   5 0.26824 0.19996   1
  -5  -5  -5 400.469 11.1912   3
  -5  -5  -5 392.444 11.3708   5
   5   5   5 388.076 11.3857   2
   5   5   5 404.728 11.3130   6
  -6  -5  -5 56.4405 2.42663   5
  -6  -5  -5 56.5567 2.30627   3
   6   5   5 59.5326 2.46394   2
   6   5   5 57.4556 2.41543   6
  -7  -5  -5 98.2944 3.58361   5
  -7  -5  -5 100.441 3.53796   3
   7   5   5 98.0993 3.65978   6
   7   5   5 96.1483 3.60091   2
  -8  -5  -5 26.5673 1.68894   3
  -8  -5  -5 26.0326 1.62998   5
   8   5   5 27.3317 1.67911   2
   8   5   5 25.4633 1.76235   6
  -9  -5  -5 1.26267 0.70991   3
   9   5   5 1.26877 0.73417   6
 -10  -5  -5 -0.6841 0.61383   3
  10   5   5 0.61760 0.79923   6
 -11  -5  -5 -0.3402 0.76118   3
   8  -6  -5 0.24464 0.83561   3
   8  -6  -5 -0.7537 1.29603   4
  -8   6   5 0.78052 1.58342   6
  -8   6   5 0.74003 1.34194   1
   7  -6  -5 3.71268 1.01274   3
   7  -6  -5 2.73983 0.93236   4
  -7   6   5 3.40363 1.04108   6
  -7   6   5 2.59483 0.90941   1
   6  -6  -5 64.2849 2.95982   3
   6  -6  -5 60.2593 2.94134   4
  -6   6   5 66.5074 3.02036   6
  -6   6   5 62.5218 2.99798   1
   5  -6  -5 0.38193 0.55741   3
   5  -6  -5 0.10924 0.57745   4
  -5   6   5 0.10163 0.65620   6
  -5   6   5 0.56444 0.65023   1
   4  -6  -5 196.230 6.18554   4
   4  -6  -5 194.318 6.16425   3
  -4   6   5 182.927 6.18648   6
  -4   6   5 197.661 6.26179   1
   3  -6  -5 2.79843 0.65460   4
   3  -6  -5 2.82822 0.65176   3
  -3   6   5 1.87657 0.62963   6
  -3   6   5 3.73927 0.72700   1
   2  -6  -5 485.527 13.6528   3
   2  -6  -5 486.047 13.6541   4
  -2   6   5 500.067 13.4407   2
  -2   6   5 487.905 13.6752   1
  -2   6   5 478.884 13.7762   6
   1  -6  -5 461.856 12.9948   5
   1  -6  -5 466.408 13.0504   3
   1  -6  -5 448.648 12.9864   4
  -1   6   5 483.728 13.2297   6
  -1   6   5 469.526 13.0397   1
  -1   6   5 480.465 13.0209   2
   0  -6  -5 117.293 3.84808   3
   0  -6  -5 125.047 3.79392   4
   0   6   5 121.615 3.97392   6
   0   6   5 120.072 3.91954   2
   0   6   5 120.414 3.78180   1
  -1  -6  -5 231.782 6.82053   3
  -1  -6  -5 233.831 6.63709   4
   1   6   5 240.012 6.66761   1
   1   6   5 225.834 6.79114   5
   1   6   5 224.209 6.90835   2
   1   6   5 242.275 6.92673   6
  -2  -6  -5 23.2374 1.25679   3
  -2  -6  -5 26.6122 1.09948   4
   2   6   5 24.1044 1.30195   6
   2   6   5 23.6923 1.37459   2
   2   6   5 22.4935 1.25970   5
   2   6   5 25.9640 1.09136   1
  -3  -6  -5 30.2935 1.19995   4
  -3  -6  -5 27.6062 1.40057   3
   3   6   5 27.9620 1.56101   2
   3   6   5 30.2710 1.46859   6
   3   6   5 31.8517 1.21415   1
  -4  -6  -5 0.10047 0.33875   3
   4   6   5 -0.2318 0.44677   2
   4   6   5 0.68248 0.41616   6
  -5  -6  -5 63.9429 2.65150   5
  -5  -6  -5 65.2304 2.44793   3
   5   6   5 66.8579 2.69907   2
   5   6   5 60.5083 2.50420   6
  -6  -6  -5 18.4266 1.39410   5
  -6  -6  -5 16.7563 1.18928   3
   6   6   5 18.3183 1.40595   2
   6   6   5 18.4757 1.31323   6
  -7  -6  -5 156.396 5.12066   3
  -7  -6  -5 160.786 5.33094   5
   7   6   5 155.756 5.31563   2
   7   6   5 158.588 5.31134   6
  -8  -6  -5 14.3080 1.32069   3
  -8  -6  -5 15.7013 1.41728   5
   8   6   5 15.7752 1.39661   2
   8   6   5 15.1723 1.47003   6
  -9  -6  -5 2.48971 0.75438   3
  -9  -6  -5 1.29031 0.92086   5
   9   6   5 1.66559 0.82384   2
   9   6   5 2.77210 0.85485   6
 -10  -6  -5 2.94402 0.95546   3
  10   6   5 4.92653 1.10105   6
 -11  -6  -5 1.54481 1.51897   3
   7  -7  -5 28.9537 2.21305   3
   7  -7  -5 33.8206 2.31356   4
  -7   7   5 32.9038 2.42851   1
  -7   7   5 34.0324 2.46969   6
   6  -7  -5 3.75850 0.87892   3
   6  -7  -5 4.98760 1.03295   4
  -6   7   5 4.28395 1.01361   1
  -6   7   5 3.21654 1.00454   6
   5  -7  -5 327.439 10.1330   3
   5  -7  -5 319.388 10.1670   4
  -5   7   5 348.328 10.3148   1
  -5   7   5 346.988 10.2886   6
   4  -7  -5 3.69197 0.79266   3
   4  -7  -5 4.59560 0.88780   4
  -4   7   5 4.98878 0.91710   1
  -4   7   5 3.19115 0.87121   6
   3  -7  -5 45.2043 2.14476   4
   3  -7  -5 46.7335 2.10998   3
  -3   7   5 43.0058 2.19414   6
  -3   7   5 43.2549 2.13176   1
   2  -7  -5 42.9165 1.97768   3
   2  -7  -5 40.9751 1.98959   4
   2  -7  -5 45.0691 1.87231   5
  -2   7   5 45.1801 1.87113   2
  -2   7   5 44.8351 2.05642   1
  -2   7   5 47.3142 2.17654   6
   1  -7  -5 245.206 7.43627   3
   1  -7  -5 246.191 7.47835   4
  -1   7   5 257.468 7.51840   1
  -1   7   5 255.332 7.63498   6
  -1   7   5 263.209 7.48994   2
   0  -7  -5 15.8519 1.08527   3
   0  -7  -5 16.7730 1.08738   4
   0   7   5 17.2034 1.10131   5
   0   7   5 17.3944 1.18382   2
   0   7   5 17.1874 1.21069   6
   0   7   5 18.2835 1.10924   1
  -1  -7  -5 282.048 7.87387   4
  -1  -7  -5 274.352 7.96920   3
   1   7   5 280.805 8.08679   6
   1   7   5 259.878 7.99024   5
   1   7   5 279.797 7.88739   1
   1   7   5 271.294 8.15443   2
  -2  -7  -5 76.9581 2.75295   3
  -2  -7  -5 79.5998 2.62101   4
   2   7   5 77.8856 2.60903   1
   2   7   5 76.1712 2.85253   5
   2   7   5 77.3865 2.97969   2
   2   7   5 75.4310 2.81705   6
  -3  -7  -5 3.07633 0.60329   3
   3   7   5 3.62862 0.69124   5
   3   7   5 2.16188 0.66828   2
   3   7   5 3.94076 0.63476   6
  -4  -7  -5 13.7754 1.04390   3
   4   7   5 11.0532 1.18810   2
   4   7   5 11.4161 1.01460   5
   4   7   5 11.0968 1.01408   6
  -5  -7  -5 14.4018 1.06835   3
   5   7   5 13.2758 1.11970   6
   5   7   5 13.2355 1.32894   2
  -6  -7  -5 264.508 8.16875   5
  -6  -7  -5 256.754 7.77893   3
   6   7   5 266.621 7.98672   6
   6   7   5 261.262 8.15045   2
  -7  -7  -5 43.7667 2.06545   3
  -7  -7  -5 40.7120 2.25863   5
   7   7   5 39.8460 2.27661   2
   7   7   5 45.6003 2.23123   6
  -8  -7  -5 8.04055 1.05308   3
  -8  -7  -5 10.4950 1.22186   5
   8   7   5 10.3261 1.28467   2
   8   7   5 10.1147 1.25046   6
  -9  -7  -5 124.586 4.64105   5
  -9  -7  -5 118.059 4.48251   3
   9   7   5 128.253 4.72652   6
   9   7   5 131.873 4.72184   2
   6  -8  -5 10.2969 1.38609   3
   6  -8  -5 11.2625 1.48519   4
  -6   8   5 9.90831 1.46678   1
  -6   8   5 10.1406 1.46435   6
   5  -8  -5 6.11628 1.14819   4
   5  -8  -5 5.44439 0.97794   3
  -5   8   5 6.34316 1.14844   1
  -5   8   5 6.33368 1.17194   6
   4  -8  -5 4.56441 0.93740   4
   4  -8  -5 3.48014 0.79918   3
  -4   8   5 3.96208 0.90893   1
  -4   8   5 4.40392 0.98707   6
   3  -8  -5 1.61106 0.61177   3
   3  -8  -5 1.30985 0.64363   4
  -3   8   5 2.41807 0.82796   6
  -3   8   5 1.83392 0.72633   1
   2  -8  -5 335.131 10.0307   4
   2  -8  -5 342.404 9.93866   3
  -2   8   5 343.222 10.1040   6
  -2   8   5 340.070 10.0599   1
   1  -8  -5 5.98544 0.78897   3
   1  -8  -5 5.94753 0.84698   4
  -1   8   5 6.72134 0.87057   1
  -1   8   5 5.34261 0.77890   2
  -1   8   5 5.79560 0.89126   6
   0  -8  -5 231.477 7.08301   4
   0  -8  -5 236.972 7.03042   3
   0   8   5 239.920 7.21425   2
   0   8   5 238.479 7.08515   5
   0   8   5 238.895 7.09048   1
   0   8   5 235.492 7.16556   6
  -1  -8  -5 330.671 9.23554   4
  -1  -8  -5 328.052 9.24030   3
   1   8   5 322.870 9.23182   1
   1   8   5 318.087 9.34569   6
   1   8   5 310.682 9.33736   5
   1   8   5 315.246 9.47905   2
  -2  -8  -5 10.6319 0.96833   3
  -2  -8  -5 11.7024 1.04381   4
   2   8   5 11.6650 1.02219   1
   2   8   5 8.89322 1.03493   2
   2   8   5 9.58726 0.99920   6
   2   8   5 13.0565 1.13656   5
  -3  -8  -5 183.422 5.81646   3
   3   8   5 193.648 6.08276   5
   3   8   5 199.183 5.94585   6
   3   8   5 189.402 6.21235   2
  -4  -8  -5 18.3435 1.21824   3
   4   8   5 16.4636 1.35568   5
   4   8   5 15.5799 1.37102   2
   4   8   5 16.8956 1.20526   6
  -5  -8  -5 7.58534 0.87662   3
   5   8   5 8.55197 0.99648   5
   5   8   5 6.78659 1.01871   2
   5   8   5 8.62335 0.98745   6
  -6  -8  -5 29.0251 1.96396   5
  -6  -8  -5 27.4047 1.57407   3
   6   8   5 26.4169 1.67518   6
   6   8   5 26.4570 1.91124   2
  -7  -8  -5 239.199 7.78975   5
   7   8   5 240.756 7.77293   2
  -8  -8  -5 102.180 4.19543   5
   8   8   5 112.020 4.31787   2
  -9  -8  -5 18.3180 1.70421   5
   9   8   5 21.7572 1.90341   2
   6  -9  -5 57.3391 2.96553   3
  -6   9   5 60.8046 3.27769   6
   5  -9  -5 57.7329 2.93934   3
   5  -9  -5 62.4247 3.12850   4
  -5   9   5 68.2498 3.25907   6
  -5   9   5 68.7476 3.33777   1
   4  -9  -5 15.1241 1.42138   3
   4  -9  -5 14.5971 1.55126   4
  -4   9   5 14.4859 1.58339   6
  -4   9   5 13.1320 1.56039   1
   3  -9  -5 103.167 4.02710   4
   3  -9  -5 100.098 3.86383   3
  -3   9   5 108.456 4.08499   6
  -3   9   5 110.042 4.17324   1
   2  -9  -5 15.7349 1.46344   4
   2  -9  -5 13.9008 1.28652   3
  -2   9   5 16.0506 1.43135   6
  -2   9   5 19.4424 1.50723   1
   1  -9  -5 9.66449 1.12887   4
   1  -9  -5 11.2994 1.08213   3
  -1   9   5 9.86361 1.10793   1
  -1   9   5 11.7819 1.19179   6
   0  -9  -5 107.647 3.85493   4
   0  -9  -5 109.921 3.69830   3
   0   9   5 108.324 3.83266   1
   0   9   5 107.627 3.85485   6
   0   9   5 109.738 3.81941   5
   0   9   5 110.755 3.95856   2
  -1  -9  -5 51.0770 2.56395   4
  -1  -9  -5 49.8169 2.07684   3
   1   9   5 46.5332 2.33720   2
   1   9   5 45.3956 2.14187   6
   1   9   5 51.1145 2.30385   1
   1   9   5 47.2289 2.21691   5
  -2  -9  -5 83.5479 3.15798   3
   2   9   5 78.4881 3.13733   5
   2   9   5 76.4499 3.23631   2
   2   9   5 81.3114 3.05144   6
   3   9   5 91.7054 3.49952   5
   3   9   5 88.2403 3.59755   2
   4   9   5 111.794 4.28973   2
   4   9   5 113.144 4.15010   5
   5   9   5 21.0200 1.73413   2
   5   9   5 19.5938 1.56170   5
   6   9   5 654.933 18.7909   2
  -7  -9  -5 13.0172 1.46406   5
   7   9   5 11.4930 1.43605   2
  -8  -9  -5 323.889 10.1906   5
   8   9   5 321.284 10.1730   2
  -9  -9  -5 31.3033 2.26862   5
   9   9   5 31.2489 2.26881   2
   4 -10  -5 28.9207 2.14717   4
  -4  10   5 34.7174 2.32611   1
   3 -10  -5 1.79571 0.79940   4
  -3  10   5 1.34024 0.85888   1
   2 -10  -5 163.353 5.65538   4
  -2  10   5 164.700 5.66240   1
   1 -10  -5 1.11052 0.72888   4
  -1  10   5 3.97328 0.84832   1
   0 -10  -5 293.857 8.74358   2
   0  10   5 281.865 8.64023   5
   1  10   5 6.36458 0.93091   5
   2  10   5 34.9382 1.98145   5
   2  10   5 31.4922 2.02630   2
   3  10   5 202.938 6.66598   5
   3  10   5 205.488 6.84821   2
   4  10   5 20.1869 1.81711   2
   4  10   5 21.7056 1.69777   5
   5  10   5 354.391 11.0075   2
   5  10   5 357.487 10.7784   5
   6  10   5 41.9014 2.67837   2
  -7 -10  -5 82.2815 3.82567   5
   7  10   5 84.2036 3.82950   2
  -8 -10  -5 14.9537 1.96357   5
   3 -11  -5 170.270 6.09287   4
  -3  11   5 170.948 6.12280   1
   2 -11  -5 23.2119 2.90852   4
  -2  11   5 18.9454 2.44403   1
   0 -11  -5 23.7939 1.72807   2
   0  11   5 27.2992 1.75206   5
  -1 -11  -5 22.4160 1.70625   2
   1  11   5 20.6877 1.63696   5
  -2 -11  -5 5.91312 1.06838   2
   2  11   5 5.64728 1.05723   5
   3  11   5 96.7581 3.94021   5
   4  11   5 4.54223 0.95991   5
   5  11   5 255.803 8.28903   5
  -1 -12  -5 0.32117 0.71267   2
   1  12   5 0.37135 0.70347   5
  -2 -12  -5 40.6605 2.52279   2
   2  12   5 38.1566 2.32335   5
  -3 -12  -5 6.58874 1.23220   2
   3  12   5 8.19670 1.24132   5
   3  11  -6 19.5186 1.87177   1
   3  11  -6 18.6959 1.70511   5
  -3 -11   6 20.5694 1.94197   4
  -3 -11   6 22.3954 2.03313   2
   2  11  -6 3.86197 0.95578   5
   2  11  -6 2.65539 0.94888   1
  -2 -11   6 2.19274 0.95742   4
  -2 -11   6 3.94592 1.16215   2
   1  11  -6 15.4671 1.57303   5
   1  11  -6 17.0603 1.81703   1
  -1 -11   6 17.7746 1.87046   4
  -1 -11   6 12.4353 1.55470   2
   0  11  -6 7.55365 1.21187   5
   0  11  -6 7.67500 1.27494   1
   0 -11   6 7.40134 1.36987   4
   0 -11   6 6.13269 1.19063   2
  -1  11  -6 0.69058 0.83780   1
  -1  11  -6 0.19065 0.69327   5
   1 -11   6 0.96876 0.94157   4
   1 -11   6 0.68183 0.74710   2
  -2  11  -6 8.65533 1.20458   5
   2 -11   6 11.3032 1.44444   2
   6  10  -6 2.58188 0.90545   5
  -6 -10   6 0.40163 0.81465   2
   5  10  -6 3.46453 0.95281   5
   5  10  -6 4.65929 1.11043   1
  -5 -10   6 5.55433 1.24938   4
  -5 -10   6 5.09521 1.11496   2
   4  10  -6 0.55315 0.73382   5
   4  10  -6 0.02136 0.73351   1
  -4 -10   6 -0.0588 0.81881   4
  -4 -10   6 0.50352 0.80256   2
   3  10  -6 -0.0667 0.58434   5
   3  10  -6 1.51257 0.80209   1
  -3 -10   6 1.14026 0.80651   2
  -3 -10   6 0.17447 0.77933   4
   2  10  -6 119.280 4.61483   5
  -2 -10   6 125.886 4.79824   2
  -2 -10   6 129.573 4.89172   4
   1  10  -6 3.83720 0.88827   5
   1  10  -6 2.73284 0.90978   1
  -1 -10   6 2.45110 0.94608   4
  -1 -10   6 2.52009 0.91412   2
   0  10  -6 17.6272 1.56674   5
   0  10  -6 16.1394 1.58532   1
   0 -10   6 16.4368 1.78010   4
   0 -10   6 13.1575 1.47187   2
  -1  10  -6 7.55963 1.13319   5
  -1  10  -6 7.31376 1.21093   1
   1 -10   6 6.61375 1.27813   4
   1 -10   6 5.64842 1.04200   2
  -2  10  -6 17.5149 1.54409   5
  -2  10  -6 19.1360 1.79973   1
   2 -10   6 18.0681 1.69966   2
   2 -10   6 16.8949 1.88239   4
  -3  10  -6 -0.1538 0.75418   1
  -3  10  -6 0.04222 0.62759   5
   3 -10   6 -0.3834 0.81458   4
   3 -10   6 0.23907 0.66277   2
  -4  10  -6 0.22021 0.88617   1
   4 -10   6 0.17011 0.83972   4
   7   9  -6 0.23938 1.20584   1
   7   9  -6 0.51129 0.67626   5
  -7  -9   6 -0.6396 0.70961   2
   6   9  -6 42.6868 2.55327   1
   6   9  -6 45.2412 2.41104   5
  -6  -9   6 38.7423 2.49539   4
  -6  -9   6 42.5879 2.42742   2
   5   9  -6 15.9122 1.69201   1
   5   9  -6 15.3443 1.50032   5
  -5  -9   6 13.5420 1.47296   2
  -5  -9   6 14.7675 1.63744   4
   4   9  -6 8.44672 1.09219   5
   4   9  -6 9.42399 1.31712   1
  -4  -9   6 9.25538 1.27307   2
  -4  -9   6 6.93354 1.14081   4
   3   9  -6 15.9723 1.45776   5
   3   9  -6 15.7807 1.51295   1
  -3  -9   6 16.4030 1.59913   2
  -3  -9   6 13.3128 1.50890   4
   2   9  -6 15.4652 1.47382   5
  -2  -9   6 12.0960 1.36317   2
  -2  -9   6 15.0494 1.57398   4
   1   9  -6 33.5364 2.06150   1
   1   9  -6 34.1285 1.99195   5
  -1  -9   6 31.5812 2.09678   4
  -1  -9   6 32.9262 2.07874   2
   0   9  -6 25.2624 1.81131   1
   0   9  -6 25.1743 1.71057   5
   0  -9   6 26.3372 1.81737   2
   0  -9   6 22.8689 1.86846   4
  -1   9  -6 13.9671 1.32625   5
  -1   9  -6 11.8436 1.34167   1
   1  -9   6 11.0544 1.23852   2
   1  -9   6 16.1314 1.66562   4
  -2   9  -6 14.4770 1.32778   5
  -2   9  -6 15.5194 1.52335   1
   2  -9   6 11.5915 1.27984   2
   2  -9   6 13.5498 1.56309   4
  -3   9  -6 5.68871 0.90351   5
  -3   9  -6 3.68025 0.96204   1
   3  -9   6 4.91651 1.15131   4
   3  -9   6 3.50327 0.86085   2
  -4   9  -6 10.4006 1.46898   1
   4  -9   6 9.11474 1.39072   4
  -5   9  -6 1.38052 0.91071   1
   5  -9   6 1.54921 0.93884   4
   7   8  -6 7.90100 1.28230   1
   7   8  -6 9.07174 1.15150   5
  -7  -8   6 7.53065 1.30360   4
  -7  -8   6 10.4102 1.27395   2
   6   8  -6 51.3877 2.49017   5
   6   8  -6 45.8367 2.63491   1
  -6  -8   6 48.1473 2.48238   2
  -6  -8   6 50.7267 2.69706   4
   5   8  -6 15.0131 1.51247   1
   5   8  -6 16.9510 1.42205   5
  -5  -8   6 15.7201 1.56028   4
  -5  -8   6 16.1278 1.48306   2
   4   8  -6 7.44393 1.03068   5
   4   8  -6 6.40039 1.02436   1
  -4  -8   6 5.56771 1.06411   4
  -4  -8   6 5.91369 0.96034   2
   3   8  -6 0.55512 0.59936   5
   3   8  -6 0.51870 0.57570   1
  -3  -8   6 0.53547 0.58124   2
  -3  -8   6 0.12788 0.65668   4
   2   8  -6 36.1513 1.98746   5
  -2  -8   6 39.3742 2.19051   4
  -2  -8   6 37.3567 2.10332   2
   1   8  -6 151.341 5.21370   1
   1   8  -6 151.856 5.10551   5
  -1  -8   6 151.279 5.28717   4
  -1  -8   6 157.554 5.26139   2
   0   8  -6 3.89458 0.84496   1
   0   8  -6 3.86196 0.76823   5
   0  -8   6 5.18547 0.98947   4
   0  -8   6 3.62421 0.79851   2
  -1   8  -6 2.06188 0.68071   1
  -1   8  -6 2.85887 0.75137   5
   1  -8   6 2.68568 0.73071   2
   1  -8   6 1.29166 0.74849   4
  -2   8  -6 113.610 4.25466   1
  -2   8  -6 113.029 3.98557   5
   2  -8   6 110.516 4.29530   4
   2  -8   6 115.030 4.14109   2
  -3   8  -6 3.81038 0.73117   5
  -3   8  -6 5.31568 0.99099   1
   3  -8   6 4.93893 1.04570   4
   3  -8   6 3.88706 0.85326   2
  -4   8  -6 1.63719 0.61311   5
  -4   8  -6 2.47413 0.86503   1
   4  -8   6 1.33253 0.67082   2
   4  -8   6 3.24997 0.94733   4
  -5   8  -6 13.4762 1.55772   1
   5  -8   6 16.2901 1.77472   4
  -6   8  -6 10.9331 1.51998   1
   6  -8   6 10.3084 1.56509   4
  -7   8  -6 2.02280 1.55381   1
   7  -8   6 0.94400 1.12967   4
   8   7  -6 50.5918 2.90739   1
  -8  -7   6 56.1830 2.97727   4
   7   7  -6 80.9312 3.67513   1
  -7  -7   6 82.5305 3.61164   4
   6   7  -6 129.367 4.42512   5
   6   7  -6 119.903 4.69462   1
  -6  -7   6 127.394 4.72649   4
  -6  -7   6 125.359 4.45957   2
   5   7  -6 1.61553 0.75983   1
   5   7  -6 0.74087 0.58272   5
  -5  -7   6 0.65363 0.58354   4
  -5  -7   6 0.48822 0.62087   2
   4   7  -6 229.418 7.01157   5
   4   7  -6 224.948 7.19267   1
  -4  -7   6 226.775 7.21525   4
  -4  -7   6 220.708 7.06435   2
   3   7  -6 7.62729 0.90367   5
   3   7  -6 7.06038 0.98637   1
  -3  -7   6 8.30995 1.06290   2
  -3  -7   6 8.65461 1.13133   4
   2   7  -6 181.531 5.67949   5
  -2  -7   6 171.060 5.74769   2
  -2  -7   6 180.617 5.85776   4
   1   7  -6 8.32606 0.93206   5
   1   7  -6 9.08166 1.05945   1
  -1  -7   6 10.4100 1.11957   2
  -1  -7   6 10.0872 1.12423   4
   0   7  -6 1.07548 0.54302   5
   0   7  -6 1.37285 0.57149   1
   0  -7   6 1.19770 0.54200   2
   0  -7   6 0.54628 0.53189   4
  -1   7  -6 260.997 7.90755   5
  -1   7  -6 265.401 8.07033   1
   1  -7   6 264.523 8.01935   2
   1  -7   6 267.012 8.15392   4
  -2   7  -6 66.5244 2.66498   5
  -2   7  -6 69.2934 2.87133   1
   2  -7   6 67.4772 2.91407   4
   2  -7   6 66.5049 2.78157   2
  -3   7  -6 68.4179 2.99534   1
  -3   7  -6 73.2775 2.79886   5
   3  -7   6 72.3415 3.12875   4
   3  -7   6 75.0802 2.93321   2
  -4   7  -6 0.92945 0.72392   1
  -4   7  -6 -0.0689 0.45821   5
   4  -7   6 0.40103 0.60968   4
   4  -7   6 0.12374 0.51597   2
  -5   7  -6 70.0170 3.15955   1
   5  -7   6 72.7440 3.30831   4
  -6   7  -6 26.9845 2.02310   1
   6  -7   6 28.7779 2.14007   4
  -7   7  -6 79.3447 3.59175   1
   7  -7   6 72.1750 3.57746   4
  -8   7  -6 -0.1579 0.88312   1
   8  -7   6 0.36446 0.99477   4
   8   6  -6 37.7125 2.42985   1
  -8  -6   6 34.3852 2.33126   4
   7   6  -6 33.9247 2.21228   1
  -7  -6   6 34.1983 2.19406   4
   6   6  -6 1.89918 0.60265   5
   6   6  -6 2.55136 0.81827   1
  -6  -6   6 2.35747 0.66880   2
  -6  -6   6 2.62681 0.81290   4
   5   6  -6 531.906 15.5258   1
   5   6  -6 556.814 15.2544   5
  -5  -6   6 544.825 15.3156   2
  -5  -6   6 533.951 15.4821   4
   4   6  -6 31.2379 1.64403   5
   4   6  -6 31.5088 1.80924   1
  -4  -6   6 34.1344 1.88045   4
  -4  -6   6 30.7094 1.71492   2
   3   6  -6 214.716 6.63583   5
   3   6  -6 214.333 6.79091   1
  -3  -6   6 228.255 6.79536   2
  -3  -6   6 217.458 6.82089   4
   2   6  -6 3.30852 0.64064   1
   2   6  -6 2.58913 0.59991   5
  -2  -6   6 3.30601 0.74218   4
  -2  -6   6 2.89904 0.66251   2
   1   6  -6 115.671 3.94658   5
   1   6  -6 117.175 4.00793   1
  -1  -6   6 118.150 4.07959   4
  -1  -6   6 117.803 4.02401   2
   0   6  -6 26.3318 1.49861   1
   0   6  -6 26.4556 1.48265   5
   0  -6   6 28.0280 1.61738   4
   0  -6   6 27.4734 1.55419   2
  -1   6  -6 558.465 15.7083   5
  -1   6  -6 586.218 15.8540   1
   1  -6   6 548.405 15.7797   2
   1  -6   6 566.295 15.8881   4
  -2   6  -6 1.64999 0.57982   1
  -2   6  -6 1.25051 0.50268   5
   2  -6   6 0.87252 0.49731   2
   2  -6   6 0.46638 0.47294   4
  -3   6  -6 26.3391 1.44461   5
  -3   6  -6 26.5816 1.60357   1
   3  -6   6 27.3398 1.56667   2
   3  -6   6 31.2808 1.77523   4
  -4   6  -6 292.973 8.54580   5
  -4   6  -6 295.049 8.88585   1
   4  -6   6 294.048 8.70124   2
   4  -6   6 292.748 8.97012   4
  -5   6  -6 1.76705 0.77398   1
   5  -6   6 2.50620 0.80859   4
  -6   6  -6 84.3425 3.51468   1
   6  -6   6 85.1875 3.62348   4
  -7   6  -6 5.71462 1.09742   1
   7  -6   6 6.30567 1.19707   4
  -8   6  -6 33.7753 2.31074   1
   8  -6   6 31.9339 2.30904   4
   9   5  -6 47.2994 2.73262   4
  -9  -5   6 47.7843 2.91967   1
   8   5  -6 18.6643 1.80096   1
   8   5  -6 22.4199 1.83984   4
   7   5  -6 135.111 5.03359   1
   7   5  -6 140.156 4.96044   4
   6   5  -6 188.219 5.67781   5
   6   5  -6 173.643 6.07111   1
  -6  -5   6 184.424 5.74292   2
   5   5  -6 188.362 6.25356   1
   5   5  -6 195.050 5.95385   5
  -5  -5   6 195.669 6.02436   2
  -5  -5   6 196.260 6.27012   4
   4   5  -6 6.86927 0.92951   1
   4   5  -6 6.01258 0.76564   5
  -4  -5   6 5.28075 0.74344   2
  -4  -5   6 6.24554 0.91157   4
   3   5  -6 117.454 3.78905   5
   3   5  -6 114.688 3.90404   1
  -3  -5   6 108.958 3.80889   2
  -3  -5   6 110.505 3.90094   4
   2   5  -6 507.136 14.6431   1
   2   5  -6 540.823 14.6069   5
  -2  -5   6 522.572 14.7132   4
  -2  -5   6 528.448 14.6682   2
   1   5  -6 8.15969 0.89207   1
   1   5  -6 7.92611 0.85728   5
  -1  -5   6 5.81479 0.75585   4
  -1  -5   6 6.96820 0.81086   2
   0   5  -6 1085.93 28.7758   5
   0   5  -6 1040.41 28.7667   1
   0  -5   6 1086.76 28.8353   2
   0  -5   6 1047.29 28.8395   4
  -1   5  -6 83.0681 2.87819   5
  -1   5  -6 77.8100 2.86754   1
   1  -5   6 83.8163 2.95296   2
   1  -5   6 77.1612 2.91432   4
  -2   5  -6 15.1024 1.03627   5
  -2   5  -6 14.2351 1.08142   1
   2  -5   6 15.1060 1.09186   2
   2  -5   6 14.4487 1.12730   4
  -3   5  -6 277.212 7.70220   6
  -3   5  -6 270.394 7.89529   5
  -3   5  -6 264.818 8.03084   1
   3  -5   6 277.381 7.61579   3
   3  -5   6 267.863 7.99899   2
   3  -5   6 270.913 8.13718   4
  -4   5  -6 5.12729 0.80799   1
  -4   5  -6 5.28604 0.66661   6
  -4   5  -6 4.24916 0.62793   5
   4  -5   6 4.74055 0.58247   3
   4  -5   6 4.57237 0.79437   4
   4  -5   6 5.60397 0.76213   2
  -5   5  -6 455.111 12.7192   6
  -5   5  -6 438.086 12.9321   1
  -5   5  -6 446.114 12.5656   5
   5  -5   6 457.344 12.7588   2
   5  -5   6 449.302 13.0729   4
   5  -5   6 458.602 12.6440   3
  -6   5  -6 68.4495 3.02134   1
  -6   5  -6 71.5065 2.83929   6
   6  -5   6 69.5877 3.07515   4
   6  -5   6 74.1982 2.81144   3
  -7   5  -6 63.4812 2.95779   1
  -7   5  -6 62.5342 2.77602   6
   7  -5   6 66.0358 2.78069   3
   7  -5   6 66.4195 3.01009   4
  -8   5  -6 3.82143 1.01286   1
  -8   5  -6 5.96069 1.05458   6
   8  -5   6 4.71304 1.06598   4
   8  -5   6 4.62876 0.91724   3
  -9   5  -6 78.3079 3.58285   1
  -9   5  -6 75.4511 3.43759   6
   9  -5   6 78.5533 3.46471   3
   9  -5   6 72.9725 3.53902   4
   9   4  -6 3.19673 0.98766   4
  -9  -4   6 1.98359 1.06498   1
   8   4  -6 245.695 8.09149   4
  -8  -4   6 257.748 8.32088   1
   7   4  -6 0.88240 0.70540   1
   7   4  -6 1.09818 0.70594   4
   6   4  -6 490.017 14.4726   1
   6   4  -6 500.274 14.0235   5
   6   4  -6 493.832 14.3682   4
  -6  -4   6 521.227 14.8032   2
   5   4  -6 90.6948 3.48935   4
   5   4  -6 99.6457 3.28078   5
   5   4  -6 97.6382 3.61379   1
  -5  -4   6 99.8605 3.34749   2
   4   4  -6 238.172 7.28487   1
   4   4  -6 238.830 7.03193   5
  -4  -4   6 244.245 7.11351   2
   3   4  -6 1568.89 42.1938   1
   3   4  -6 1567.75 42.0197   5
  -3  -4   6 1582.17 42.2014   4
  -3  -4   6 1575.31 42.0846   2
   2   4  -6 91.1277 3.07390   5
   2   4  -6 88.5055 3.10963   1
  -2  -4   6 89.0351 3.10222   2
  -2  -4   6 96.1062 3.19591   4
   1   4  -6 43.7733 1.85991   1
   1   4  -6 45.5804 1.86091   5
   1   4  -6 50.1647 1.53839   3
  -1  -4   6 44.7449 1.89978   4
   0   4  -6 4.07468 0.30712   3
   0   4  -6 2.87620 0.52950   5
   0   4  -6 3.21541 0.54417   1
   0  -4   6 3.15911 0.56900   4
   0  -4   6 3.41331 0.29816   6
  -1   4  -6 72.9797 2.64302   5
  -1   4  -6 82.7140 2.29935   3
  -1   4  -6 72.8545 2.63118   1
   1  -4   6 79.5017 2.30400   6
   1  -4   6 74.2315 2.69416   4
   1  -4   6 71.9753 2.66944   2
  -2   4  -6 10.4982 0.63271   3
  -2   4  -6 9.98611 0.83218   1
  -2   4  -6 9.61531 0.77824   5
   2  -4   6 11.5910 0.91912   2
   2  -4   6 11.1946 0.89705   4
   2  -4   6 10.4589 0.65344   6
  -3   4  -6 1172.89 31.7858   1
  -3   4  -6 1166.03 31.6838   5
   3  -4   6 1201.32 31.8038   2
   3  -4   6 1159.87 31.8522   4
   3  -4   6 1177.93 31.4671   3
   3  -4   6 1206.42 31.5661   6
  -4   4  -6 67.1201 2.43955   6
  -4   4  -6 67.2683 2.55997   1
  -4   4  -6 64.3762 2.38116   5
   4  -4   6 67.2722 2.34366   3
   4  -4   6 65.4092 2.51364   2
   4  -4   6 67.0667 2.61995   4
  -5   4  -6 166.066 5.32570   1
  -5   4  -6 166.103 5.05014   5
  -5   4  -6 163.265 5.22888   6
   5  -4   6 170.390 5.43167   4
   5  -4   6 165.814 5.14056   3
   5  -4   6 168.609 5.20412   2
  -6   4  -6 462.513 13.1950   1
  -6   4  -6 466.611 13.1502   6
   6  -4   6 439.089 13.2108   4
   6  -4   6 471.719 13.0464   3
  -7   4  -6 0.39250 0.60101   1
  -7   4  -6 0.57036 0.58510   6
   7  -4   6 0.63826 0.54414   3
   7  -4   6 0.95451 0.66379   4
  -8   4  -6 329.016 9.80083   1
  -8   4  -6 312.241 9.75122   6
   8  -4   6 311.812 9.77116   4
   8  -4   6 321.401 9.67529   3
  -9   4  -6 0.84676 0.80255   6
  -9   4  -6 -0.0737 0.74742   1
   9  -4   6 1.01598 0.80514   4
   9  -4   6 0.30180 0.71292   3
 -10   4  -6 -0.0538 0.86095   1
  10  -4   6 0.24628 0.83066   4
   9   3  -6 94.4944 4.07037   4
  -9  -3   6 95.0858 4.21422   1
   8   3  -6 1.48591 0.81516   4
   8   3  -6 0.74559 0.60301   3
  -8  -3   6 0.91857 0.80533   1
   7   3  -6 106.043 4.16253   4
   7   3  -6 110.416 3.89362   3
  -7  -3   6 117.906 3.89574   6
   6   3  -6 16.1314 1.29571   4
   6   3  -6 15.9163 1.15488   3
   6   3  -6 14.9215 1.35597   1
  -6  -3   6 16.0174 1.15108   6
   5   3  -6 100.837 3.67432   4
   5   3  -6 102.404 3.35371   5
   5   3  -6 110.735 3.46313   3
   5   3  -6 100.364 3.74271   1
  -5  -3   6 107.510 3.45087   2
  -5  -3   6 106.544 3.42405   6
   4   3  -6 883.021 23.9960   5
   4   3  -6 911.950 23.9363   3
   4   3  -6 850.216 24.2277   4
   4   3  -6 876.525 24.3094   1
  -4  -3   6 910.359 23.9055   6
  -4  -3   6 907.841 24.0685   2
   3   3  -6 365.884 10.6770   1
   3   3  -6 379.779 10.5221   5
   3   3  -6 394.965 10.3356   3
   3   3  -6 357.597 10.6061   4
  -3  -3   6 382.200 10.3133   6
  -3  -3   6 378.708 10.5698   2
   2   3  -6 235.704 7.07411   1
   2   3  -6 238.586 7.01118   5
   2   3  -6 258.373 6.73790   3
  -2  -3   6 257.096 6.75453   6
  -2  -3   6 230.682 7.07071   4
  -2  -3   6 241.563 7.06780   2
   1   3  -6 162.332 5.02410   5
   1   3  -6 175.045 4.68858   3
   1   3  -6 169.377 5.05053   1
  -1  -3   6 170.109 5.08524   4
  -1  -3   6 159.496 5.06217   2
  -1  -3   6 176.491 4.71038   6
   0   3  -6 1769.51 47.7421   1
   0   3  -6 1809.69 47.8081   5
   0   3  -6 1819.56 48.0091   3
   0  -3   6 1817.90 47.6656   6
   0  -3   6 1819.07 47.8035   4
   0  -3   6 1747.91 47.8240   2
  -1   3  -6 26.2802 1.25369   5
  -1   3  -6 24.8843 1.17212   1
  -1   3  -6 27.6378 1.01949   3
   1  -3   6 25.1544 1.22406   4
   1  -3   6 25.2743 1.00046   6
   1  -3   6 25.2322 1.27619   2
  -2   3  -6 641.047 17.4607   3
  -2   3  -6 652.994 17.6757   1
  -2   3  -6 657.430 17.7275   5
   2  -3   6 644.730 17.7270   4
   2  -3   6 648.953 17.7792   2
   2  -3   6 655.587 17.5154   6
  -3   3  -6 88.8507 2.98993   1
  -3   3  -6 93.4653 3.02339   5
   3  -3   6 91.0606 3.06840   4
   3  -3   6 91.9076 2.93578   6
   3  -3   6 89.2873 3.06602   2
   3  -3   6 90.4699 2.85276   3
  -4   3  -6 413.773 11.5420   5
  -4   3  -6 412.404 11.6198   1
   4  -3   6 410.361 11.4936   3
   4  -3   6 400.185 11.5689   6
   4  -3   6 426.429 11.7143   4
   4  -3   6 425.439 11.6581   2
  -5   3  -6 66.0973 2.32227   5
  -5   3  -6 61.0883 2.43037   1
   5  -3   6 61.9429 2.37447   3
   5  -3   6 64.5863 2.52729   4
   5  -3   6 65.1254 2.42500   2
   5  -3   6 63.0052 2.45607   6
  -6   3  -6 86.9514 3.35788   6
  -6   3  -6 93.2949 3.07552   5
  -6   3  -6 91.8740 3.32253   1
   6  -3   6 88.3822 3.26902   3
   6  -3   6 92.1839 3.36181   4
   6  -3   6 94.1012 3.18188   2
  -7   3  -6 123.508 4.40444   6
  -7   3  -6 122.601 4.27487   1
   7  -3   6 121.405 4.29531   4
   7  -3   6 122.421 4.27897   3
  -8   3  -6 144.823 4.95470   1
  -8   3  -6 138.396 5.05034   6
   8  -3   6 144.741 4.99042   4
   8  -3   6 140.598 4.94954   3
  -9   3  -6 206.242 6.69899   1
  -9   3  -6 196.466 6.78927   6
   9  -3   6 196.035 6.68453   3
   9  -3   6 204.878 6.71727   4
 -10   3  -6 3.03285 1.07041   6
  10  -3   6 4.08891 1.06232   3
  10   2  -6 21.8762 1.80349   3
 -10  -2   6 23.6493 1.87197   6
   9   2  -6 18.5667 1.64969   3
   9   2  -6 16.6784 1.63641   4
  -9  -2   6 17.3062 1.62586   6
  -9  -2   6 18.9803 1.97313   1
   8   2  -6 23.1375 1.80044   4
   8   2  -6 21.0091 1.60629   3
  -8  -2   6 22.7678 1.88966   1
  -8  -2   6 18.7351 1.56307   6
   7   2  -6 0.10315 0.54091   4
   7   2  -6 0.81776 0.52252   3
  -7  -2   6 0.51884 0.54855   6
  -7  -2   6 0.65420 0.71548   1
   6   2  -6 99.0289 3.67214   4
   6   2  -6 97.9605 3.47460   3
  -6  -2   6 100.333 3.46650   6
   5   2  -6 117.238 4.09054   4
   5   2  -6 121.382 3.90629   3
   5   2  -6 115.712 4.11836   1
  -5  -2   6 124.518 3.73371   2
  -5  -2   6 121.806 3.89783   6
   4   2  -6 1708.04 47.0790   4
   4   2  -6 1742.86 47.1413   1
   4   2  -6 1833.48 46.8959   3
   4   2  -6 1752.83 46.7791   5
  -4  -2   6 1748.29 46.8382   6
  -4  -2   6 1785.40 46.8191   2
   3   2  -6 108.994 3.30364   3
   3   2  -6 109.724 3.50883   4
   3   2  -6 108.218 3.33678   5
   3   2  -6 104.125 3.51577   1
  -3  -2   6 106.174 3.36500   2
  -3  -2   6 106.620 3.30139   6
   2   2  -6 4.38600 0.53413   1
   2   2  -6 4.79093 0.57144   4
   2   2  -6 4.18370 0.41971   3
   2   2  -6 3.40538 0.44836   5
  -2  -2   6 3.74057 0.42482   6
  -2  -2   6 4.34806 0.52240   2
   1   2  -6 1097.00 28.3382   3
   1   2  -6 1038.73 28.5462   5
   1   2  -6 1080.26 28.5441   1
  -1  -2   6 1103.56 28.3659   6
  -1  -2   6 1007.83 28.5645   2
  -1  -2   6 1074.17 28.5559   4
   0   2  -6 0.27523 0.24109   1
   0   2  -6 0.45400 0.21855   3
   0   2  -6 0.76610 0.31718   5
   0  -2   6 0.14002 0.22605   4
   0  -2   6 -0.1772 0.26668   2
   0  -2   6 0.36385 0.22354   6
  -1   2  -6 8.36026 0.68077   5
  -1   2  -6 7.51812 0.55003   1
  -1   2  -6 8.25218 0.54191   3
   1  -2   6 7.76458 0.60377   4
   1  -2   6 7.26888 0.65108   2
   1  -2   6 8.49590 0.55672   6
  -2   2  -6 37.9688 1.42480   1
  -2   2  -6 38.1829 1.52937   5
  -2   2  -6 38.0969 1.38245   3
   2  -2   6 38.2708 1.45886   4
   2  -2   6 35.8051 1.39694   6
   2  -2   6 35.5124 1.53887   2
  -3   2  -6 252.184 7.03345   1
  -3   2  -6 239.078 7.07828   5
   3  -2   6 243.980 7.06551   4
   3  -2   6 247.248 7.06645   6
   3  -2   6 255.704 7.19847   2
   3  -2   6 248.285 7.00132   3
  -4   2  -6 14.2925 0.89533   1
   4  -2   6 14.4694 0.98387   2
   4  -2   6 13.7578 0.89995   4
   4  -2   6 13.6287 0.95317   6
   4  -2   6 14.3616 0.88796   3
  -5   2  -6 649.836 17.7757   1
  -5   2  -6 654.118 17.7003   5
   5  -2   6 661.748 17.8254   2
   5  -2   6 648.608 17.8152   3
   5  -2   6 636.452 17.9090   6
   5  -2   6 649.386 17.8238   4
  -6   2  -6 15.8845 1.01038   5
  -6   2  -6 18.1943 1.17555   1
   6  -2   6 16.4495 1.27242   6
   6  -2   6 17.9407 1.13260   2
   6  -2   6 17.8385 1.20045   4
   6  -2   6 18.6883 1.22543   3
  -7   2  -6 205.778 6.41130   1
   7  -2   6 212.851 6.46405   4
   7  -2   6 204.757 6.49599   3
  -8   2  -6 271.526 8.65555   6
  -8   2  -6 283.914 8.40922   1
   8  -2   6 272.744 8.47657   3
   8  -2   6 277.068 8.39648   4
  -9   2  -6 1.41420 0.73327   1
  -9   2  -6 0.52629 0.76597   6
   9  -2   6 1.60257 0.74121   3
   9  -2   6 0.55860 0.63073   4
 -10   2  -6 110.357 4.60152   6
  10  -2   6 115.305 4.51497   3
  10   1  -6 11.6015 1.49354   3
 -10  -1   6 11.9773 1.49924   6
   9   1  -6 28.2670 2.14048   4
   9   1  -6 28.7330 1.98006   3
  -9  -1   6 29.5665 2.20215   1
  -9  -1   6 28.5655 1.98182   6
   8   1  -6 7.37868 1.11288   4
   8   1  -6 9.50368 1.16192   3
  -8  -1   6 10.0050 1.17746   6
  -8  -1   6 10.2568 1.42277   1
   7   1  -6 47.1045 2.28748   3
   7   1  -6 48.6071 2.41710   4
  -7  -1   6 51.6757 2.29780   6
  -7  -1   6 43.9825 2.42534   1
   6   1  -6 1.11722 0.52440   4
   6   1  -6 0.60658 0.47855   3
  -6  -1   6 1.38471 0.66340   1
  -6  -1   6 0.45562 0.49897   6
   5   1  -6 95.5585 3.32922   3
   5   1  -6 97.1871 3.46789   4
  -5  -1   6 101.837 3.56712   1
  -5  -1   6 94.2047 3.30706   6
   4   1  -6 4.42175 0.64955   1
   4   1  -6 5.98990 0.68708   3
   4   1  -6 4.33218 0.45828   5
   4   1  -6 5.72041 0.70919   4
  -4  -1   6 4.91164 0.50491   2
  -4  -1   6 4.49662 0.62682   6
   3   1  -6 172.010 5.34195   1
   3   1  -6 178.915 5.22148   3
   3   1  -6 187.428 5.36906   4
   3   1  -6 172.080 5.10726   5
  -3  -1   6 178.651 5.23043   6
  -3  -1   6 177.658 5.14654   2
   2   1  -6 153.059 4.56441   4
   2   1  -6 153.351 4.47983   5
   2   1  -6 152.744 4.44898   3
   2   1  -6 148.262 4.55442   1
  -2  -1   6 155.354 4.51287   2
  -2  -1   6 153.613 4.48700   6
   1   1  -6 1314.89 35.2398   5
   1   1  -6 1379.29 35.2155   4
   1   1  -6 1303.66 35.1870   1
   1   1  -6 1302.93 35.1361   3
  -1  -1   6 1305.91 35.2675   2
  -1  -1   6 1335.78 35.1781   6
   0   1  -6 960.377 24.8051   1
   0   1  -6 913.036 24.7968   3
   0   1  -6 913.967 24.9221   5
   0  -1   6 932.782 24.8151   4
   0  -1   6 886.645 24.9483   2
   0  -1   6 974.781 24.8405   6
  -1   1  -6 109.248 3.44997   5
  -1   1  -6 114.252 3.34335   3
  -1   1  -6 112.328 3.27433   1
   1  -1   6 111.438 3.50551   2
   1  -1   6 113.462 3.36090   6
  -2   1  -6 504.652 14.0454   5
  -2   1  -6 524.909 13.8476   1
  -2   1  -6 522.260 13.9361   3
   2  -1   6 501.875 13.9655   6
   2  -1   6 516.955 14.1188   2
  -3   1  -6 51.0251 1.71585   1
  -3   1  -6 52.0028 1.84163   3
  -3   1  -6 51.7033 1.87752   5
   3  -1   6 48.8331 1.91966   2
   3  -1   6 50.2681 1.87374   6
  -4   1  -6 228.848 6.26872   1
  -4   1  -6 221.203 6.37390   5
   4  -1   6 220.061 6.37785   3
   4  -1   6 191.682 6.23899   4
   4  -1   6 233.282 6.49091   2
   4  -1   6 225.791 6.49279   6
  -5   1  -6 48.0319 1.79864   1
  -5   1  -6 46.9702 1.81878   5
   5  -1   6 46.9236 1.92057   2
   5  -1   6 48.1469 1.83748   4
   5  -1   6 45.5951 1.89619   3
   5  -1   6 47.6600 2.01146   6
  -6   1  -6 93.3797 3.11100   5
  -6   1  -6 97.5009 3.20135   1
   6  -1   6 91.7328 3.30823   3
   6  -1   6 92.6976 3.39830   6
   6  -1   6 97.3803 3.24485   2
   6  -1   6 94.0907 3.20309   4
  -7   1  -6 3.74774 0.66952   1
   7  -1   6 2.50510 0.72217   6
   7  -1   6 3.76080 0.66975   4
   7  -1   6 2.22636 0.64055   3
  -8   1  -6 255.797 7.48409   1
   8  -1   6 236.074 7.57303   3
   8  -1   6 238.629 7.39678   4
  -9   1  -6 37.2043 2.32529   6
   9  -1   6 36.3109 2.16478   3
 -10   1  -6 19.1820 1.90748   6
  10  -1   6 18.7559 1.78817   3
   9   0  -6 6.04714 1.09867   3
   9   0  -6 5.73611 1.21030   4
  -9   0   6 6.61736 1.33748   1
  -9   0   6 4.79905 1.05863   6
   8   0  -6 7.56648 1.13669   3
   8   0  -6 6.74526 1.10377   4
  -8   0   6 7.64063 1.13624   6
  -8   0   6 8.24383 1.22730   1
   7   0  -6 14.6647 1.38982   4
   7   0  -6 11.6907 1.22381   3
  -7   0   6 9.57409 1.15608   6
  -7   0   6 12.8018 1.42040   1
   6   0  -6 32.6256 1.78516   3
   6   0  -6 34.4174 1.90988   4
  -6   0   6 35.0542 1.82765   6
  -6   0   6 38.4474 1.99169   1
   5   0  -6 87.8838 3.21521   3
   5   0  -6 86.9368 3.29993   4
  -5   0   6 96.7633 3.37687   1
  -5   0   6 91.6264 3.23586   6
   4   0  -6 16.0015 0.75917   5
   4   0  -6 13.6306 1.02599   4
   4   0  -6 15.1469 1.01958   3
  -4   0   6 15.1243 0.77742   2
  -4   0   6 16.3031 1.10236   1
  -4   0   6 15.7722 1.04349   6
   3   0  -6 20.4036 1.08151   4
   3   0  -6 19.4933 1.05036   3
  -3   0   6 19.6936 0.91535   2
  -3   0   6 18.7812 1.06200   6
   2   0  -6 130.397 3.81393   5
   2   0  -6 128.007 3.89239   4
   2   0  -6 123.822 3.88969   1
   2   0  -6 127.189 3.89324   3
  -2   0   6 133.941 3.94804   6
  -2   0   6 129.551 3.84590   2
   1   0  -6 6.30816 0.55458   3
   1   0  -6 3.85632 0.46858   5
   1   0  -6 4.07723 0.44677   1
   1   0  -6 4.61360 0.45017   4
  -1   0   6 3.05044 0.44767   2
  -1   0   6 5.23540 0.56089   6
   0   0  -6 31.3054 1.24442   5
   0   0  -6 28.9749 1.06320   1
   0   0   6 29.5809 1.26380   2
   0   0   6 30.6642 1.22353   6
  -1   0  -6 346.329 9.18206   1
  -1   0  -6 336.541 9.39451   3
  -1   0  -6 337.878 9.46857   5
   1   0   6 344.484 9.20927   4
   1   0   6 337.949 9.51089   2
   1   0   6 343.161 9.42924   6
  -2   0  -6 38.7565 1.17657   1
  -2   0  -6 34.5869 1.42714   5
  -2   0  -6 35.5400 1.38693   3
   2   0   6 35.0917 1.17870   4
   2   0   6 34.1125 1.48423   2
  -3   0  -6 497.873 13.7657   3
  -3   0  -6 498.381 13.8180   5
  -3   0  -6 518.626 13.5179   1
   3   0   6 503.485 13.8760   2
   3   0   6 512.487 13.5425   4
   3   0   6 493.601 13.8303   6
  -4   0  -6 17.8779 0.81554   1
  -4   0  -6 17.3130 1.00569   5
   4   0   6 18.3084 1.06694   2
   4   0   6 16.4468 1.02284   6
   4   0   6 19.6329 0.87184   4
   4   0   6 17.7293 1.03510   3
  -5   0  -6 129.199 3.82994   1
  -5   0  -6 129.866 3.98851   5
   5   0   6 127.650 4.06297   2
   5   0   6 123.599 4.15178   6
   5   0   6 124.729 4.03741   3
  -6   0  -6 1.03490 0.38199   1
  -6   0  -6 1.25175 0.41691   5
   6   0   6 1.63350 0.41554   4
   6   0   6 0.73289 0.44467   3
   6   0   6 0.71166 0.51436   6
   6   0   6 0.72985 0.43187   2
  -7   0  -6 186.308 5.53661   1
  -7   0  -6 186.191 5.46632   5
   7   0   6 174.546 5.70414   3
   7   0   6 181.991 5.52576   4
   7   0   6 170.547 5.82199   6
   7   0   6 182.164 5.55714   2
  -8   0  -6 11.1624 1.09999   1
   8   0   6 10.3234 1.13010   4
   8   0   6 9.49434 1.08323   3
   8   0   6 11.0089 1.27144   6
  -9   0  -6 120.298 4.70090   6
   9   0   6 119.599 4.45988   3
 -10   0  -6 21.8555 2.02266   6
  10   0   6 24.7181 1.92855   3
   9  -1  -6 0.95713 0.89152   4
   9  -1  -6 1.23354 0.83364   3
  -9   1   6 1.23735 0.86884   6
  -9   1   6 2.13084 1.00853   1
   8  -1  -6 0.38464 0.63155   4
   8  -1  -6 -0.1841 0.60608   3
  -8   1   6 0.92731 0.75900   1
  -8   1   6 1.06184 0.76847   6
   7  -1  -6 8.15497 1.11628   4
   7  -1  -6 10.4022 1.23369   3
  -7   1   6 10.0810 1.28479   1
  -7   1   6 11.1957 1.30758   6
   6  -1  -6 30.4365 1.75368   3
   6  -1  -6 29.5560 1.74227   4
  -6   1   6 31.6741 1.78819   6
  -6   1   6 32.3737 1.86565   1
   5  -1  -6 28.7496 1.57406   4
   5  -1  -6 25.9754 1.51241   3
  -5   1   6 25.6399 1.55481   1
  -5   1   6 24.5544 1.49488   6
   4  -1  -6 16.6558 1.12008   4
   4  -1  -6 17.3294 1.11665   3
  -4   1   6 21.0313 1.22665   1
  -4   1   6 18.2410 1.17861   6
   3  -1  -6 6.57906 0.66456   4
   3  -1  -6 6.82672 0.50186   5
   3  -1  -6 6.81770 0.72271   3
  -3   1   6 8.13613 0.54653   2
  -3   1   6 5.91891 0.68359   1
  -3   1   6 6.43483 0.72401   6
   2  -1  -6 97.5497 3.04283   4
   2  -1  -6 92.3334 3.07939   3
  -2   1   6 95.8626 2.95994   2
  -2   1   6 97.6507 3.06939   1
  -2   1   6 93.6332 3.12851   6
   1  -1  -6 630.443 17.1573   4
   1  -1  -6 635.453 17.3063   3
   1  -1  -6 640.576 17.2259   5
  -1   1   6 637.514 17.1814   1
  -1   1   6 650.157 17.2668   2
  -1   1   6 639.188 17.3489   6
   0  -1  -6 19.4413 0.73719   4
   0  -1  -6 18.3476 0.92849   3
   0  -1  -6 17.1788 0.89854   5
   0   1   6 17.4735 0.92518   2
   0   1   6 17.7719 0.92733   6
  -1  -1  -6 65.2932 1.77582   1
  -1  -1  -6 59.1135 2.08644   3
  -1  -1  -6 60.1393 2.11402   5
   1   1   6 57.4746 2.12907   2
   1   1   6 62.7288 2.12796   6
   1   1   6 64.4776 1.78611   4
  -2  -1  -6 -0.1268 0.19542   3
  -2  -1  -6 0.14194 0.26975   5
   2   1   6 0.16015 0.09269   4
   2   1   6 0.25319 0.27446   2
   2   1   6 0.06990 0.26246   6
  -3  -1  -6 271.870 6.93043   1
  -3  -1  -6 243.597 7.29559   3
  -3  -1  -6 247.727 7.35870   5
   3   1   6 254.356 7.43784   2
   3   1   6 257.066 7.40669   6
   3   1   6 270.233 6.93926   4
  -4  -1  -6 8.37812 0.47514   1
  -4  -1  -6 7.97001 0.74854   3
  -4  -1  -6 6.86959 0.70203   5
   4   1   6 9.66240 0.81728   6
   4   1   6 8.60052 0.49272   4
   4   1   6 6.85054 0.74272   2
  -5  -1  -6 26.9676 1.07386   1
  -5  -1  -6 25.5972 1.29575   5
   5   1   6 25.3964 1.33024   3
   5   1   6 26.8173 1.08950   4
   5   1   6 25.2870 1.40019   6
   5   1   6 26.6389 1.36711   2
  -6  -1  -6 0.97893 0.33992   1
  -6  -1  -6 1.35574 0.44280   5
   6   1   6 1.13224 0.35046   4
   6   1   6 0.75200 0.49109   6
   6   1   6 0.63217 0.41262   2
   6   1   6 0.57643 0.45198   3
  -7  -1  -6 24.6408 1.30007   1
  -7  -1  -6 28.0782 1.39038   5
   7   1   6 22.4654 1.56732   6
   7   1   6 23.7088 1.50332   3
   7   1   6 24.3968 1.40646   2
   8   1   6 7.15442 1.09663   6
   8   1   6 7.29206 1.01536   3
   9   1   6 22.7998 1.73597   3
   9   1   6 26.4714 1.94094   6
 -10  -1  -6 23.0597 2.05746   6
  10   1   6 25.3414 1.91870   3
   9  -2  -6 10.7668 1.49377   4
   9  -2  -6 11.3162 1.49360   3
  -9   2   6 11.4779 1.59164   1
  -9   2   6 8.14781 1.30508   6
   8  -2  -6 5.69477 1.12150   3
   8  -2  -6 7.34826 1.27231   4
  -8   2   6 6.59424 1.22196   1
  -8   2   6 4.38676 0.96602   6
   7  -2  -6 0.78361 0.69288   4
   7  -2  -6 0.59920 0.65920   3
  -7   2   6 0.55008 0.65088   6
  -7   2   6 0.17363 0.68010   1
   6  -2  -6 3.31254 0.77504   3
   6  -2  -6 4.35520 0.88074   4
  -6   2   6 2.27401 0.72481   6
  -6   2   6 4.33886 0.89244   1
   5  -2  -6 79.6746 3.07154   3
   5  -2  -6 81.9306 3.08878   4
  -5   2   6 81.0604 3.11720   1
  -5   2   6 78.1368 3.05940   6
   4  -2  -6 15.2952 1.10560   3
   4  -2  -6 15.7404 1.10971   4
  -4   2   6 16.1143 1.15036   1
  -4   2   6 16.1422 1.17012   6
   3  -2  -6 18.8136 0.81607   5
   3  -2  -6 18.3425 1.10519   3
   3  -2  -6 19.4249 1.08651   4
  -3   2   6 19.7347 0.88032   2
  -3   2   6 17.2015 1.09409   6
  -3   2   6 18.0021 1.09598   1
   2  -2  -6 469.909 13.3085   4
   2  -2  -6 477.430 13.4135   3
  -2   2   6 517.372 13.2433   2
  -2   2   6 485.322 13.4752   6
  -2   2   6 480.412 13.3407   1
   1  -2  -6 28.9891 1.21476   5
   1  -2  -6 29.9030 1.32369   3
   1  -2  -6 29.8925 1.16375   4
  -1   2   6 27.9232 1.22845   2
  -1   2   6 28.1786 1.17175   1
  -1   2   6 29.2952 1.36918   6
   0  -2  -6 122.110 3.67072   5
   0  -2  -6 118.040 3.40686   4
   0  -2  -6 117.737 3.69348   3
   0   2   6 121.280 3.43796   1
   0   2   6 121.597 3.75820   6
   0   2   6 116.770 3.68109   2
  -1  -2  -6 55.9634 1.52613   4
  -1  -2  -6 53.7988 1.94152   3
  -1  -2  -6 53.0830 1.94621   5
   1   2   6 54.8397 1.53325   1
   1   2   6 52.3844 1.97030   6
   1   2   6 53.2980 1.97275   2
  -2  -2  -6 530.036 14.2988   3
  -2  -2  -6 537.825 14.3638   5
   2   2   6 527.699 14.3468   6
   2   2   6 494.921 14.3349   2
  -3  -2  -6 98.5723 3.21242   5
  -3  -2  -6 93.8342 3.12488   3
   3   2   6 100.928 3.26605   2
   3   2   6 98.1859 3.21958   6
  -4  -2  -6 17.0561 1.03042   3
  -4  -2  -6 17.8492 1.06453   5
  -4  -2  -6 17.5781 0.65179   1
   4   2   6 19.0458 1.11060   6
   4   2   6 18.6697 0.66659   4
  -5  -2  -6 0.61175 0.37310   5
  -5  -2  -6 0.26939 0.17486   1
  -5  -2  -6 0.73928 0.38950   3
   5   2   6 0.45510 0.37871   2
   5   2   6 0.84879 0.43322   6
   5   2   6 1.20800 0.24561   4
  -6  -2  -6 8.52548 0.85044   5
  -6  -2  -6 9.61549 0.76722   1
   6   2   6 7.92807 0.86019   2
   6   2   6 9.18426 0.67196   4
   6   2   6 8.49687 0.95268   6
   6   2   6 8.95488 0.94599   3
  -7  -2  -6 46.9010 1.96995   5
   7   2   6 43.1890 2.18416   6
   7   2   6 44.4037 1.98972   2
   7   2   6 44.9556 2.09230   3
   8   2   6 13.8891 1.20898   3
   8   2   6 14.5657 1.39191   6
   9   2   6 42.1538 2.47726   6
   9   2   6 46.8008 2.37524   3
 -10  -2  -6 23.4155 2.01233   6
  10   2   6 21.8097 1.79161   3
   9  -3  -6 9.03146 1.55374   3
   9  -3  -6 9.44909 1.62762   4
  -9   3   6 9.66552 1.58524   6
  -9   3   6 9.16491 1.64218   1
   8  -3  -6 92.9732 3.96181   4
   8  -3  -6 90.3510 3.87990   3
  -8   3   6 94.5978 3.98116   1
  -8   3   6 81.3104 3.70478   6
   7  -3  -6 24.2630 1.81442   3
   7  -3  -6 26.2854 1.86522   4
  -7   3   6 24.5653 1.86661   1
  -7   3   6 24.2391 1.85262   6
   6  -3  -6 3.32136 0.75157   3
   6  -3  -6 3.53949 0.76424   4
  -6   3   6 5.25170 0.96316   1
  -6   3   6 2.54332 0.72127   6
   5  -3  -6 7.46557 0.92658   4
   5  -3  -6 6.51690 0.88730   3
  -5   3   6 7.63170 0.95085   1
  -5   3   6 6.79128 0.98137   6
   4  -3  -6 6.73707 0.83430   4
   4  -3  -6 8.12701 0.93390   3
  -4   3   6 9.86528 1.01684   1
  -4   3   6 9.93834 1.05021   6
   3  -3  -6 373.592 10.7392   4
   3  -3  -6 393.336 10.3910   5
   3  -3  -6 372.086 10.8155   3
  -3   3   6 399.277 10.4214   2
  -3   3   6 370.684 10.8644   6
  -3   3   6 376.206 10.7830   1
   2  -3  -6 0.25115 0.31976   3
   2  -3  -6 0.01111 0.12083   5
   2  -3  -6 0.29030 0.28680   4
  -2   3   6 0.23797 0.25653   2
  -2   3   6 0.67092 0.33774   1
  -2   3   6 0.55146 0.37331   6
   1  -3  -6 116.999 3.43643   4
   1  -3  -6 112.585 3.49326   5
   1  -3  -6 109.877 3.59922   3
  -1   3   6 114.779 3.45661   1
  -1   3   6 113.693 3.69140   6
  -1   3   6 113.338 3.52018   2
   0  -3  -6 0.11257 0.18525   4
   0  -3  -6 0.37035 0.30617   5
   0  -3  -6 0.08115 0.29778   3
   0   3   6 0.55245 0.23276   1
   0   3   6 2.05342 0.44108   6
   0   3   6 -0.0562 0.27469   2
  -1  -3  -6 98.4100 2.68968   4
  -1  -3  -6 92.4551 3.10573   3
   1   3   6 93.5499 3.13757   2
   1   3   6 96.4988 3.16712   6
   1   3   6 98.6511 2.70050   1
  -2  -3  -6 486.251 13.2852   3
  -2  -3  -6 470.768 13.3375   5
   2   3   6 480.097 13.3709   2
   2   3   6 492.955 13.3604   6
  -3  -3  -6 734.449 20.2543   3
  -3  -3  -6 761.684 20.3747   5
   3   3   6 750.939 20.3368   6
   3   3   6 741.943 20.3893   2
  -4  -3  -6 2.55122 0.23363   1
  -4  -3  -6 3.10706 0.30836   4
  -4  -3  -6 2.06279 0.47183   5
  -4  -3  -6 0.86525 0.36502   3
   4   3   6 2.12730 0.52316   2
   4   3   6 2.45295 0.51031   6
  -5  -3  -6 2.37915 0.53885   3
  -5  -3  -6 1.93919 0.50527   5
   5   3   6 1.70081 0.49738   6
   5   3   6 2.28975 0.55712   2
  -6  -3  -6 10.3863 0.95264   3
  -6  -3  -6 11.0230 0.96838   5
   6   3   6 11.7343 1.03610   2
   6   3   6 10.6080 1.01091   6
  -7  -3  -6 5.48121 0.76521   5
   7   3   6 4.65323 0.75915   2
   7   3   6 6.57131 0.93640   6
  -8  -3  -6 188.259 5.80270   5
   8   3   6 184.065 6.16909   6
   8   3   6 188.163 5.88438   2
   8   3   6 178.938 5.98305   3
   9   3   6 0.73183 0.64877   3
   9   3   6 0.70887 0.76450   6
  10   3   6 22.2979 1.97706   6
  10   3   6 25.3261 1.88133   3
  11   3   6 0.99812 1.27637   3
   8  -4  -6 0.37259 0.79435   4
   8  -4  -6 -1.4774 0.58993   3
  -8   4   6 0.10190 0.79917   1
  -8   4   6 -0.8751 0.74012   6
   7  -4  -6 1.74854 0.78526   3
   7  -4  -6 2.16806 0.87469   4
  -7   4   6 1.43555 0.77945   6
  -7   4   6 4.76566 1.06214   1
   6  -4  -6 9.20425 1.19982   3
   6  -4  -6 8.24172 1.08301   4
  -6   4   6 6.88416 1.04839   6
  -6   4   6 8.70768 1.17284   1
   5  -4  -6 232.625 7.16301   4
   5  -4  -6 224.852 7.17782   3
  -5   4   6 236.696 7.26341   6
  -5   4   6 224.902 7.17568   1
   4  -4  -6 23.5934 1.42673   4
   4  -4  -6 20.6404 1.35541   3
  -4   4   6 23.0947 1.54416   6
  -4   4   6 24.0811 1.48211   1
   3  -4  -6 435.673 12.8689   4
   3  -4  -6 458.496 12.9790   3
  -3   4   6 470.399 12.9565   1
  -3   4   6 477.023 13.0880   6
   2  -4  -6 122.426 4.05538   3
   2  -4  -6 127.289 3.96265   4
  -2   4   6 122.859 4.14199   6
  -2   4   6 127.624 3.99646   1
  -2   4   6 130.465 3.84667   2
   1  -4  -6 75.2366 2.48509   4
   1  -4  -6 69.3100 2.60120   3
   1  -4  -6 76.0423 2.54231   5
  -1   4   6 74.5397 2.54335   2
  -1   4   6 77.0124 2.75311   6
  -1   4   6 78.7290 2.51307   1
   0  -4  -6 884.846 24.1995   5
   0  -4  -6 933.295 23.9594   4
   0  -4  -6 874.307 24.2330   3
   0   4   6 919.448 23.9529   1
   0   4   6 870.391 24.3013   6
   0   4   6 900.819 24.2208   2
  -1  -4  -6 60.9358 2.29181   5
  -1  -4  -6 61.5310 2.29741   3
  -1  -4  -6 64.9857 1.93712   4
   1   4   6 63.3298 2.34216   2
   1   4   6 64.3614 1.94290   1
   1   4   6 65.5134 2.37826   6
  -2  -4  -6 510.567 14.3346   5
  -2  -4  -6 498.677 14.2465   3
  -2  -4  -6 541.456 13.7481   4
   2   4   6 545.868 13.7455   1
   2   4   6 498.301 14.3019   6
   2   4   6 507.891 14.3581   2
  -3  -4  -6 100.335 3.40087   5
  -3  -4  -6 99.2549 3.28718   3
   3   4   6 95.9122 3.37828   2
   3   4   6 104.371 3.38098   6
  -4  -4  -6 58.6020 2.24649   3
  -4  -4  -6 61.3612 2.37446   5
   4   4   6 60.3235 2.37864   2
   4   4   6 59.6947 2.32624   6
  -5  -4  -6 51.7495 2.17306   5
  -5  -4  -6 52.3894 2.10093   3
   5   4   6 47.8885 2.17340   2
   5   4   6 51.1629 2.17851   6
  -6  -4  -6 53.1983 2.31931   5
  -6  -4  -6 57.3405 2.33031   3
   6   4   6 53.2383 2.37418   6
   6   4   6 58.5806 2.42848   2
  -7  -4  -6 74.7704 2.95901   5
  -7  -4  -6 83.8339 3.08880   3
   7   4   6 79.2050 3.06205   2
   7   4   6 77.2780 3.16101   6
  -8  -4  -6 148.356 4.84352   5
  -8  -4  -6 137.679 4.92094   3
   8   4   6 146.436 4.91554   2
   8   4   6 145.220 5.12047   6
  -9  -4  -6 41.2231 2.36547   3
   9   4   6 43.1853 2.44194   6
  10   4   6 2.49263 0.94706   6
 -11  -4  -6 51.7839 4.07114   3
   8  -5  -6 20.3553 1.95826   4
   8  -5  -6 20.3374 1.97175   3
  -8   5   6 21.5171 2.07274   1
  -8   5   6 19.9715 2.01184   6
   7  -5  -6 27.7524 2.02105   4
   7  -5  -6 23.3678 1.93602   3
  -7   5   6 25.6558 2.07605   6
  -7   5   6 27.1407 2.06540   1
   6  -5  -6 54.5444 2.73980   3
   6  -5  -6 57.7151 2.75508   4
  -6   5   6 57.9251 2.82329   1
  -6   5   6 58.8041 2.87429   6
   5  -5  -6 4.65646 0.83953   4
   5  -5  -6 6.67503 0.95113   3
  -5   5   6 6.94768 1.06763   1
  -5   5   6 5.05730 0.91582   6
   4  -5  -6 591.698 16.4409   4
   4  -5  -6 575.894 16.4830   3
  -4   5   6 593.912 16.4963   1
  -4   5   6 579.287 16.5480   6
   3  -5  -6 60.4130 2.40163   4
   3  -5  -6 59.9061 2.47482   3
  -3   5   6 58.7799 2.43406   1
  -3   5   6 62.6982 2.60191   6
   2  -5  -6 41.3127 1.81437   3
   2  -5  -6 38.8462 1.70911   4
  -2   5   6 40.9645 1.75127   1
  -2   5   6 40.3062 1.92945   6
  -2   5   6 38.9315 1.59302   2
   1  -5  -6 257.301 7.58323   3
   1  -5  -6 260.608 7.46820   5
   1  -5  -6 270.860 7.44722   4
  -1   5   6 255.569 7.42683   1
  -1   5   6 256.442 7.47358   2
  -1   5   6 256.013 7.69570   6
   0  -5  -6 62.8591 2.09879   4
   0  -5  -6 57.9287 2.28258   3
   0  -5  -6 62.3950 2.29836   5
   0   5   6 64.6367 2.43360   6
   0   5   6 60.1997 2.29101   2
   0   5   6 62.5702 2.10445   1
  -1  -5  -6 122.117 3.99680   5
  -1  -5  -6 136.492 4.01406   3
  -1  -5  -6 125.498 3.63148   4
   1   5   6 121.412 3.62865   1
   1   5   6 117.842 4.00195   6
   1   5   6 119.222 3.99522   2
  -2  -5  -6 224.331 6.61733   5
  -2  -5  -6 224.438 6.05686   4
  -2  -5  -6 211.000 6.47155   3
   2   5   6 211.006 6.52691   6
   2   5   6 212.110 6.59468   2
   2   5   6 232.924 6.07283   1
  -3  -5  -6 130.338 4.44960   5
  -3  -5  -6 140.197 4.36157   3
   3   5   6 139.681 4.42865   6
   3   5   6 142.222 4.53841   2
  -4  -5  -6 64.0897 2.41063   3
  -4  -5  -6 60.3662 2.48656   5
   4   5   6 64.3432 2.54336   2
   4   5   6 62.9593 2.45316   6
  -5  -5  -6 618.571 17.0832   5
  -5  -5  -6 617.279 16.8986   3
   5   5   6 599.025 17.0705   2
   5   5   6 608.714 17.0172   6
  -6  -5  -6 25.8043 1.49838   3
  -6  -5  -6 23.5081 1.52185   5
   6   5   6 25.8756 1.59613   2
   6   5   6 24.5702 1.55854   6
  -7  -5  -6 142.496 4.85343   5
  -7  -5  -6 141.521 4.76402   3
   7   5   6 146.587 4.92331   2
   7   5   6 142.752 4.92971   6
  -8  -5  -6 197.651 6.42576   5
  -8  -5  -6 193.446 6.41902   3
   8   5   6 207.842 6.51591   2
   8   5   6 206.442 6.66700   6
  -9  -5  -6 8.56882 1.18085   3
   9   5   6 11.5088 1.43351   6
 -10  -5  -6 160.920 5.82590   3
  10   5   6 172.709 6.09058   6
   7  -6  -6 99.5698 4.22357   3
   7  -6  -6 99.8162 4.19923   4
  -7   6   6 107.152 4.34139   1
  -7   6   6 101.194 4.31322   6
   6  -6  -6 48.9450 2.62013   3
   6  -6  -6 49.5380 2.57681   4
  -6   6   6 47.3934 2.67691   1
  -6   6   6 55.1346 2.82330   6
   5  -6  -6 46.4536 2.38632   4
   5  -6  -6 45.8224 2.42666   3
  -5   6   6 45.7834 2.42235   6
  -5   6   6 48.8865 2.45176   1
   4  -6  -6 9.09616 1.07024   4
   4  -6  -6 9.29832 1.09002   3
  -4   6   6 10.2704 1.27502   6
  -4   6   6 9.35040 1.07911   1
   3  -6  -6 10.4430 1.06657   3
   3  -6  -6 11.2295 1.06173   4
  -3   6   6 10.5598 1.15067   6
  -3   6   6 11.2487 1.10813   1
   2  -6  -6 252.403 7.49178   3
   2  -6  -6 250.304 7.38552   4
  -2   6   6 250.760 7.61954   6
  -2   6   6 251.007 7.22013   2
  -2   6   6 242.269 7.38339   1
   1  -6  -6 413.593 11.6187   4
   1  -6  -6 416.157 11.7549   3
   1  -6  -6 423.987 11.6756   5
  -1   6   6 416.646 11.6697   2
  -1   6   6 402.265 11.8809   6
  -1   6   6 420.300 11.6423   1
   0  -6  -6 134.779 4.15453   4
   0  -6  -6 133.168 4.36106   3
   0  -6  -6 137.642 4.37538   5
   0   6   6 137.938 4.47796   6
   0   6   6 137.448 4.18941   1
   0   6   6 137.390 4.38365   2
  -1  -6  -6 276.495 8.30667   5
  -1  -6  -6 274.154 8.22613   3
  -1  -6  -6 287.639 7.95270   4
   1   6   6 284.919 8.35421   2
   1   6   6 282.070 7.95354   1
   1   6   6 297.885 8.37484   6
  -2  -6  -6 1000.49 27.2551   3
  -2  -6  -6 1012.89 27.4164   5
   2   6   6 988.733 27.3051   6
   2   6   6 1028.21 27.4550   2
  -3  -6  -6 3.81186 0.67694   5
  -3  -6  -6 4.33154 0.67344   3
   3   6   6 4.87704 0.77869   2
   3   6   6 4.24139 0.67597   6
  -4  -6  -6 450.096 12.5186   3
  -4  -6  -6 436.299 12.7344   5
   4   6   6 449.670 12.6228   6
   4   6   6 441.085 12.7708   2
  -5  -6  -6 251.257 7.67099   5
  -5  -6  -6 243.918 7.41422   3
   5   6   6 249.577 7.68277   2
   5   6   6 250.594 7.53491   6
  -6  -6  -6 92.6363 3.41467   3
  -6  -6  -6 96.8079 3.64809   5
   6   6   6 97.3964 3.66042   2
   6   6   6 97.6430 3.59435   6
  -7  -6  -6 110.462 4.22223   5
  -7  -6  -6 121.128 4.15130   3
   7   6   6 119.587 4.33384   2
   7   6   6 118.229 4.29677   6
  -8  -6  -6 286.829 8.82954   5
  -8  -6  -6 278.504 8.69581   3
   8   6   6 286.378 8.94269   6
   8   6   6 295.491 8.91502   2
  -9  -6  -6 104.008 4.00928   3
  -9  -6  -6 99.2504 3.95821   5
   9   6   6 107.863 4.24240   6
   9   6   6 107.296 4.08475   2
 -10  -6  -6 61.2051 3.06892   3
  10   6   6 69.8847 3.31393   6
   7  -7  -6 10.9725 1.51603   3
   7  -7  -6 10.5458 1.47849   4
  -7   7   6 10.5996 1.62322   6
  -7   7   6 13.2498 1.73112   1
   6  -7  -6 36.8255 2.27615   4
   6  -7  -6 38.3188 2.34755   3
  -6   7   6 40.2083 2.51758   6
  -6   7   6 39.4512 2.46401   1
   5  -7  -6 50.8484 2.66482   3
   5  -7  -6 52.5140 2.63721   4
  -5   7   6 54.0405 2.77735   1
  -5   7   6 55.5307 2.84885   6
   4  -7  -6 315.565 9.44895   3
   4  -7  -6 314.263 9.43381   4
  -4   7   6 299.986 9.51410   6
  -4   7   6 314.707 9.47449   1
   3  -7  -6 53.9593 2.38612   3
   3  -7  -6 49.5553 2.31429   4
  -3   7   6 52.8168 2.52914   6
  -3   7   6 49.5720 2.34803   1
   2  -7  -6 385.149 11.1956   4
   2  -7  -6 388.158 11.2692   3
  -2   7   6 391.879 11.2487   1
  -2   7   6 398.552 11.4431   6
   1  -7  -6 159.547 5.03331   5
   1  -7  -6 164.824 5.12378   3
   1  -7  -6 154.911 4.99867   4
  -1   7   6 156.287 5.23469   6
  -1   7   6 160.389 5.04028   1
  -1   7   6 164.441 5.07593   2
   0  -7  -6 37.2390 1.74683   3
   0  -7  -6 38.9985 1.66322   4
   0  -7  -6 37.7593 1.80576   5
   0   7   6 38.0507 1.83016   2
   0   7   6 35.7823 1.63187   1
   0   7   6 35.3545 1.83259   6
  -1  -7  -6 401.481 11.3001   3
  -1  -7  -6 413.111 11.0926   4
  -1  -7  -6 388.948 11.4128   5
   1   7   6 395.935 11.4546   2
   1   7   6 395.182 11.3958   6
   1   7   6 391.126 11.0704   1
  -2  -7  -6 69.6679 2.52749   3
  -2  -7  -6 64.2001 2.66313   5
   2   7   6 56.6120 2.57180   2
   2   7   6 64.9557 2.55906   6
  -3  -7  -6 165.858 5.30619   5
  -3  -7  -6 159.248 5.03081   3
   3   7   6 156.482 5.06952   6
   3   7   6 153.195 5.22237   2
  -4  -7  -6 439.036 12.6960   5
  -4  -7  -6 424.188 12.3499   3
   4   7   6 440.760 12.6913   2
   4   7   6 444.126 12.4963   6
  -5  -7  -6 455.287 13.0107   3
  -5  -7  -6 457.964 13.3609   5
   5   7   6 464.622 13.1513   6
   5   7   6 462.523 13.3801   2
  -6  -7  -6 6.83417 0.89154   3
  -6  -7  -6 5.80460 0.96589   5
   6   7   6 7.48056 1.11636   2
   6   7   6 5.57524 0.90089   6
  -7  -7  -6 864.610 24.3470   3
  -7  -7  -6 889.426 24.7060   5
   7   7   6 895.098 24.6198   6
   7   7   6 898.572 24.7535   2
  -8  -7  -6 9.18227 1.11574   3
  -8  -7  -6 8.21492 1.17438   5
   8   7   6 9.78742 1.29022   6
   8   7   6 8.93518 1.24606   2
  -9  -7  -6 299.771 9.26169   5
  -9  -7  -6 280.744 9.00956   3
   9   7   6 293.469 9.31627   6
   9   7   6 305.499 9.30378   2
 -10  -7  -6 35.6426 2.20750   3
  10   7   6 37.2318 2.41823   6
   6  -8  -6 -0.5178 0.62804   3
   6  -8  -6 0.01770 0.77102   4
  -6   8   6 -0.8035 0.81813   6
  -6   8   6 1.35641 0.88531   1
   5  -8  -6 162.613 5.73993   4
   5  -8  -6 160.633 5.71585   3
  -5   8   6 161.041 5.82827   1
  -5   8   6 169.058 5.92320   6
   4  -8  -6 0.12922 0.66341   4
   4  -8  -6 0.37069 0.63136   3
  -4   8   6 1.17366 0.86297   6
  -4   8   6 0.34371 0.66937   1
   3  -8  -6 222.313 6.97031   3
   3  -8  -6 217.695 6.95679   4
  -3   8   6 208.060 7.07601   6
  -3   8   6 233.667 7.10911   1
   2  -8  -6 9.00850 1.02461   4
   2  -8  -6 7.88967 0.96021   3
  -2   8   6 7.42802 0.99810   1
  -2   8   6 10.6347 1.23092   6
   1  -8  -6 328.178 9.67679   3
   1  -8  -6 330.466 9.67762   5
   1  -8  -6 335.987 9.67584   4
  -1   8   6 330.130 9.66434   2
  -1   8   6 324.011 9.84182   6
  -1   8   6 341.939 9.70787   1
   0  -8  -6 1.07778 0.53302   3
   0  -8  -6 1.70483 0.60971   5
   0  -8  -6 1.39134 0.52892   4
   0   8   6 1.18488 0.57570   6
   0   8   6 2.22563 0.57763   1
   0   8   6 3.40043 0.71524   2
  -1  -8  -6 791.016 22.0584   5
  -1  -8  -6 801.834 21.8352   3
   1   8   6 795.667 21.9558   6
   1   8   6 798.546 22.0730   2
  -2  -8  -6 10.7535 1.06347   3
   2   8   6 11.3179 1.12566   6
   2   8   6 10.6315 1.13501   2
  -3  -8  -6 43.0321 1.97455   3
   3   8   6 43.1318 2.04400   6
   3   8   6 43.8938 2.25835   2
  -4  -8  -6 362.609 10.6377   3
  -4  -8  -6 367.726 11.0510   5
   4   8   6 375.594 10.7696   6
   4   8   6 371.299 11.0497   2
  -5  -8  -6 11.9355 1.37602   5
  -5  -8  -6 8.75899 0.98302   3
   5   8   6 10.2654 1.26192   2
   5   8   6 9.47451 1.09937   6
  -6  -8  -6 497.505 14.4281   5
  -6  -8  -6 485.113 13.9289   3
   6   8   6 496.864 14.1417   6
   6   8   6 487.013 14.3965   2
  -7  -8  -6 3.49636 0.75265   3
  -7  -8  -6 4.40803 1.02759   5
   7   8   6 3.77043 0.89402   6
   7   8   6 3.80673 0.99605   2
  -8  -8  -6 47.9169 2.63443   5
   8   8   6 52.0141 2.74280   2
  -9  -8  -6 4.65710 1.07169   5
   9   8   6 4.52848 1.07862   2
   5  -9  -6 39.8883 2.42683   3
   5  -9  -6 44.2709 2.54124   4
  -5   9   6 45.7010 2.73374   6
  -5   9   6 39.2340 2.56596   1
   4  -9  -6 67.0948 3.11832   4
   4  -9  -6 70.5210 3.10948   3
  -4   9   6 64.6685 3.18787   6
  -4   9   6 64.5373 3.17226   1
   3  -9  -6 36.7335 2.16686   4
   3  -9  -6 35.4069 2.04965   3
  -3   9   6 36.2305 2.21748   6
  -3   9   6 40.7619 2.30198   1
   2  -9  -6 247.582 7.66383   4
   2  -9  -6 245.824 7.61077   3
  -2   9   6 246.030 7.69824   1
  -2   9   6 245.258 7.79299   6
   1  -9  -6 12.7772 1.20370   5
   1  -9  -6 13.0189 1.26522   4
   1  -9  -6 16.2212 1.31262   3
  -1   9   6 15.1277 1.27850   2
  -1   9   6 13.8892 1.23098   1
  -1   9   6 12.9749 1.30071   6
   0  -9  -6 384.293 11.1121   3
   0  -9  -6 386.997 11.3062   5
   0   9   6 379.673 11.2609   6
   0   9   6 391.504 11.3152   2
  -1  -9  -6 48.1165 2.11732   3
   1   9   6 47.0761 2.32990   2
   1   9   6 44.8457 2.17162   6
  -2  -9  -6 34.3413 1.71293   3
   2   9   6 28.7172 1.86104   2
   2   9   6 30.8804 1.73280   6
  -3  -9  -6 0.92229 0.53905   3
   3   9   6 1.12311 0.69072   2
   3   9   6 1.51298 0.59696   6
  -4  -9  -6 246.048 8.01205   5
  -4  -9  -6 267.758 7.78839   3
   4   9   6 230.676 7.90546   2
   4   9   6 251.300 7.90024   6
  -5  -9  -6 49.3852 2.66047   5
   5   9   6 46.8963 2.57228   2
  -6  -9  -6 159.857 5.71747   5
   6   9   6 150.813 5.61758   2
  -7  -9  -6 58.6645 3.08105   5
   7   9   6 67.1930 3.19208   2
  -8  -9  -6 9.90321 1.45010   5
   8   9   6 9.68782 1.44715   2
  -9  -9  -6 104.383 4.77769   5
   9   9   6 111.286 5.03638   2
   4 -10  -6 3.12509 0.98329   4
  -4  10   6 2.11908 0.97250   1
  -4  10   6 0.67550 0.91560   6
   3 -10  -6 16.6966 1.61294   4
  -3  10   6 16.0452 1.91825   6
  -3  10   6 17.3046 1.70884   1
   0 -10  -6 65.4650 2.91912   5
   1  10   6 37.8505 2.18630   2
   2  10   6 2.20615 0.78938   2
   3  10   6 23.3061 1.86593   2
   4  10   6 15.6582 1.67841   2
  -5 -10  -6 55.6615 2.94671   5
   5  10   6 50.2269 2.83632   2
  -6 -10  -6 232.004 7.88380   5
   6  10   6 231.112 7.82815   2
  -7 -10  -6 0.38967 0.80983   5
   7  10   6 -0.9199 0.80753   2
   0 -11  -6 11.6841 1.30859   2
   0 -11  -6 12.4462 1.46056   5
  -1 -11  -6 2.08577 0.89673   5
   2  11   6 1.15737 0.76168   2
   3  11   6 2.34356 0.95448   2
  -4 -11  -6 3.73194 1.12771   5
   4  11   6 4.74324 1.17451   2
  -5 -11  -6 48.7244 2.95169   5
   5  11   6 52.7059 2.98246   2
  -6 -11  -6 14.6647 2.52491   5
   6  11   6 21.9373 3.00581   2
  -1 -12  -6 5.96844 1.18348   5
  -1 -12  -6 7.33998 1.20938   2
  -2 -12  -6 9.07952 1.35622   2
  -2 -12  -6 9.25617 1.44559   5
  -3 -12  -6 16.3435 1.88070   5
  -3 -12  -6 19.1501 1.85267   2
   2  11  -7 8.80189 2.11737   1
   2  11  -7 7.46535 1.51892   5
  -2 -11   7 8.37564 1.58301   2
  -2 -11   7 7.27181 1.88417   4
   1  11  -7 30.7675 2.15170   5
   1  11  -7 30.5725 2.26330   1
  -1 -11   7 26.3869 2.19894   2
  -1 -11   7 29.5667 2.35664   4
   0  11  -7 47.8391 2.65523   5
   0  11  -7 48.1185 2.88950   1
   0 -11   7 47.8049 2.79106   2
   0 -11   7 52.7952 3.29526   4
  -1  11  -7 24.3798 1.88511   5
   1 -11   7 20.1839 1.92627   2
  -2  11  -7 0.85236 0.74619   5
   2 -11   7 -0.6623 0.71866   2
   5  10  -7 11.9458 2.30908   1
   5  10  -7 10.4124 1.38691   5
  -5 -10   7 9.03388 1.34933   2
   4  10  -7 2.50878 0.93630   1
   4  10  -7 2.06096 0.86014   5
  -4 -10   7 2.62011 0.97648   2
  -4 -10   7 1.81049 1.00055   4
   3  10  -7 26.2472 2.04002   1
   3  10  -7 27.9734 1.93619   5
  -3 -10   7 26.9485 2.09784   2
  -3 -10   7 30.5592 2.22228   4
   2  10  -7 53.6019 2.73725   5
   2  10  -7 52.1928 2.80590   1
  -2 -10   7 54.4538 2.92094   4
  -2 -10   7 52.9962 2.88467   2
   1  10  -7 27.4149 1.99037   5
   1  10  -7 26.5432 2.01210   1
  -1 -10   7 30.6112 2.15969   2
  -1 -10   7 28.4500 2.07507   4
   0  10  -7 40.4172 2.30185   5
   0  10  -7 37.9001 2.34518   1
   0 -10   7 38.8879 2.42658   4
   0 -10   7 36.6239 2.38908   2
  -1  10  -7 1.10356 0.77097   1
  -1  10  -7 1.27910 0.75073   5
   1 -10   7 0.91594 0.78479   2
   1 -10   7 0.48405 0.84478   4
  -2  10  -7 3.59199 0.94733   1
  -2  10  -7 3.64221 0.93644   5
   2 -10   7 4.35678 1.00670   2
   2 -10   7 5.42145 1.22922   4
  -3  10  -7 45.0398 2.39070   5
  -3  10  -7 48.4154 2.84223   1
   3 -10   7 48.5228 2.95956   4
   3 -10   7 53.7488 2.77409   2
   7   9  -7 80.2786 3.46029   5
  -7  -9   7 69.1593 3.88514   2
   6   9  -7 7.03800 1.14136   5
   6   9  -7 6.64072 1.27656   1
  -6  -9   7 5.91392 1.30793   4
  -6  -9   7 6.55194 1.13894   2
   5   9  -7 18.1360 1.74445   1
   5   9  -7 18.0040 1.62982   5
  -5  -9   7 17.3188 1.68228   2
  -5  -9   7 18.6846 1.91301   4
   4   9  -7 2.01595 0.85578   1
   4   9  -7 1.95938 0.76961   5
  -4  -9   7 0.63476 0.81108   4
  -4  -9   7 2.63555 0.86011   2
   3   9  -7 125.428 4.51443   5
   3   9  -7 122.886 4.64672   1
  -3  -9   7 113.929 4.51791   2
  -3  -9   7 116.148 4.61100   4
   2   9  -7 1.07034 0.70361   5
   2   9  -7 0.85113 0.67874   1
  -2  -9   7 0.48495 0.69847   4
  -2  -9   7 1.56791 0.75415   2
   1   9  -7 186.021 6.36621   1
   1   9  -7 181.489 6.16746   5
  -1  -9   7 189.172 6.36886   2
  -1  -9   7 195.054 6.50579   4
   0   9  -7 40.0422 2.30785   1
   0   9  -7 43.6248 2.29583   5
   0  -9   7 47.8616 2.47674   2
   0  -9   7 43.4852 2.51006   4
  -1   9  -7 11.4552 1.22057   5
  -1   9  -7 8.83717 1.20897   1
   1  -9   7 10.0096 1.28163   2
   1  -9   7 11.3563 1.43844   4
  -2   9  -7 289.439 9.11043   1
  -2   9  -7 283.284 8.79286   5
   2  -9   7 297.884 9.29522   4
   2  -9   7 285.838 8.99779   2
  -3   9  -7 11.2060 1.42710   1
  -3   9  -7 14.8435 1.33561   5
   3  -9   7 14.2979 1.64300   4
   3  -9   7 11.6373 1.35830   2
  -4   9  -7 27.3047 2.09267   1
   4  -9   7 27.4185 2.17498   4
  -5   9  -7 2.72187 1.01468   1
   5  -9   7 0.00059 0.83315   4
   7   8  -7 65.0181 3.33854   1
  -7  -8   7 60.0828 3.20002   4
   6   8  -7 102.864 3.88674   5
   6   8  -7 95.8830 4.15176   1
  -6  -8   7 97.3595 4.15829   4
  -6  -8   7 99.8914 3.94160   2
   5   8  -7 0.01496 0.65423   1
   5   8  -7 0.53113 0.65718   5
  -5  -8   7 0.26156 0.65615   2
  -5  -8   7 0.04076 0.67713   4
   4   8  -7 506.562 14.7938   1
   4   8  -7 514.129 14.5890   5
  -4  -8   7 501.147 14.6640   2
  -4  -8   7 500.171 14.7741   4
   3   8  -7 60.1550 2.65534   5
   3   8  -7 60.1646 2.81787   1
  -3  -8   7 62.4927 2.91542   4
  -3  -8   7 57.2446 2.75988   2
   2   8  -7 86.5273 3.50965   1
   2   8  -7 93.1792 3.47871   5
  -2  -8   7 79.4986 3.46182   2
  -2  -8   7 89.8249 3.61070   4
   1   8  -7 118.762 4.35547   1
   1   8  -7 117.031 4.23950   5
  -1  -8   7 116.568 4.39530   4
  -1  -8   7 119.599 4.37018   2
   0   8  -7 97.6147 3.75798   1
   0   8  -7 95.9443 3.63160   5
   0  -8   7 98.1101 3.78537   2
   0  -8   7 96.4899 3.83009   4
  -1   8  -7 0.10422 0.58459   1
  -1   8  -7 0.48523 0.59442   5
   1  -8   7 0.94749 0.71300   4
   1  -8   7 0.81108 0.64139   2
  -2   8  -7 153.951 5.09786   5
  -2   8  -7 159.563 5.36097   1
   2  -8   7 144.942 5.33563   4
   2  -8   7 149.411 5.22519   2
  -3   8  -7 0.54715 0.52823   5
  -3   8  -7 -0.6832 0.59006   1
   3  -8   7 -0.7046 0.69068   4
   3  -8   7 0.64676 0.65812   2
  -4   8  -7 12.3290 1.40141   1
  -4   8  -7 12.2387 1.19217   5
   4  -8   7 15.5609 1.49484   2
   4  -8   7 15.8226 1.69997   4
  -5   8  -7 97.1711 4.04498   1
   5  -8   7 97.6704 4.20236   4
  -6   8  -7 1.51244 0.91889   1
   6  -8   7 2.82309 1.07819   4
   7   7  -7 125.311 4.94719   1
  -7  -7   7 122.648 4.84702   4
   6   7  -7 7.46099 1.19398   1
   6   7  -7 8.47355 1.08969   5
  -6  -7   7 5.35448 1.04614   4
  -6  -7   7 8.02219 1.10390   2
   5   7  -7 131.342 4.92434   1
   5   7  -7 141.966 4.71613   5
  -5  -7   7 131.149 4.92040   4
  -5  -7   7 135.599 4.76698   2
   4   7  -7 55.6036 2.50052   5
   4   7  -7 55.6409 2.66264   1
  -4  -7   7 55.4198 2.66026   4
  -4  -7   7 58.8993 2.63342   2
   3   7  -7 22.9960 1.51032   5
   3   7  -7 20.7719 1.48793   1
  -3  -7   7 21.3569 1.56557   2
  -3  -7   7 22.3465 1.62947   4
   2   7  -7 0.12255 0.53730   1
   2   7  -7 0.26984 0.48436   5
  -2  -7   7 0.93202 0.57233   2
  -2  -7   7 -0.0266 0.57263   4
   1   7  -7 573.193 16.2074   5
   1   7  -7 577.372 16.3123   1
  -1  -7   7 570.813 16.3106   2
  -1  -7   7 582.335 16.3971   4
   0   7  -7 15.3061 1.23779   1
   0   7  -7 18.1595 1.36609   5
   0  -7   7 18.5062 1.46748   4
   0  -7   7 17.2772 1.40644   2
  -1   7  -7 567.560 15.7437   5
  -1   7  -7 542.476 15.7904   1
   1  -7   7 560.067 15.9557   4
   1  -7   7 565.606 15.8811   2
  -2   7  -7 169.901 5.63280   1
  -2   7  -7 167.647 5.46265   5
   2  -7   7 163.739 5.69078   4
   2  -7   7 178.568 5.65073   2
  -3   7  -7 0.40074 0.56768   1
  -3   7  -7 0.24346 0.49190   5
   3  -7   7 -0.0825 0.55227   2
   3  -7   7 0.63863 0.67027   4
  -4   7  -7 112.191 3.91813   5
  -4   7  -7 110.198 4.20314   1
   4  -7   7 111.856 4.09470   2
   4  -7   7 117.728 4.39846   4
  -5   7  -7 45.8687 2.45921   1
   5  -7   7 46.2786 2.58117   4
  -6   7  -7 82.1894 3.59306   1
   6  -7   7 82.3706 3.74364   4
  -7   7  -7 15.8520 1.74709   1
   7  -7   7 20.0145 1.94159   4
   8   6  -7 0.61464 0.89952   1
  -8  -6   7 -0.8108 0.81624   4
   7   6  -7 309.900 9.86351   1
  -7  -6   7 310.678 9.78575   4
   6   6  -7 8.64169 1.23119   1
   6   6  -7 8.44164 0.99951   5
  -6  -6   7 7.85554 1.03587   2
  -6  -6   7 7.34764 1.13802   4
   5   6  -7 305.821 9.15360   5
   5   6  -7 305.644 9.47624   1
  -5  -6   7 312.824 9.46858   4
  -5  -6   7 312.259 9.23917   2
   4   6  -7 72.4849 2.81871   5
   4   6  -7 70.7199 2.97661   1
  -4  -6   7 70.5975 2.88811   2
  -4  -6   7 72.7385 3.04526   4
   3   6  -7 68.8140 2.83514   1
   3   6  -7 69.6998 2.72603   5
  -3  -6   7 68.8137 2.87354   4
  -3  -6   7 66.3424 2.76899   2
   2   6  -7 1750.17 47.4971   1
   2   6  -7 1807.26 47.4436   5
  -2  -6   7 1769.42 47.5604   4
  -2  -6   7 1746.56 47.4879   2
   1   6  -7 56.5516 2.41341   1
   1   6  -7 55.8173 2.36124   5
  -1  -6   7 54.2014 2.41595   4
  -1  -6   7 58.2224 2.46119   2
   0   6  -7 0.62263 0.49715   1
   0   6  -7 0.06000 0.46440   5
   0  -6   7 0.39178 0.47788   4
   0  -6   7 0.40305 0.53332   2
  -1   6  -7 58.8119 2.44754   5
  -1   6  -7 59.9638 2.47561   1
   1  -6   7 57.8559 2.52122   4
   1  -6   7 62.8246 2.57143   2
  -2   6  -7 43.7664 2.06942   1
  -2   6  -7 42.9830 1.98057   5
   2  -6   7 42.6506 2.12323   4
   2  -6   7 43.9442 2.09764   2
  -3   6  -7 0.17441 0.47446   5
  -3   6  -7 0.45530 0.51863   1
   3  -6   7 0.47249 0.54852   4
   3  -6   7 0.43860 0.52629   2
  -4   6  -7 222.836 7.06826   1
  -4   6  -7 227.140 6.83381   5
   4  -6   7 222.462 7.19649   4
   4  -6   7 229.708 7.04199   2
  -5   6  -7 44.7813 1.97400   5
  -5   6  -7 45.2495 2.30774   1
   5  -6   7 43.3969 2.14675   2
   5  -6   7 44.4520 2.38647   4
  -6   6  -7 103.183 4.00638   1
   6  -6   7 101.331 4.11932   4
  -7   6  -7 115.494 4.52980   1
   7  -6   7 121.067 4.69733   4
  -8   6  -7 0.59698 0.85931   1
   8  -6   7 1.68694 0.90637   4
   8   5  -7 173.335 6.12322   4
   7   5  -7 32.2302 2.12354   1
   6   5  -7 52.4368 2.59362   1
   6   5  -7 52.7323 2.23017   5
  -6  -5   7 49.5772 2.51097   4
  -6  -5   7 48.9886 2.27704   2
   5   5  -7 31.1048 1.63440   5
   5   5  -7 32.9244 1.91328   1
  -5  -5   7 33.8121 1.73657   2
  -5  -5   7 29.8003 1.87681   4
   4   5  -7 58.2890 2.60887   1
   4   5  -7 64.2383 2.47768   5
  -4  -5   7 60.4781 2.63160   4
  -4  -5   7 61.5857 2.53613   2
   3   5  -7 20.7035 1.26785   5
   3   5  -7 21.0030 1.39172   1
  -3  -5   7 20.0526 1.35925   2
  -3  -5   7 23.1753 1.47160   4
   2   5  -7 352.437 10.3767   1
   2   5  -7 359.149 10.3080   5
  -2  -5   7 365.609 10.4390   4
  -2  -5   7 358.367 10.3696   2
   1   5  -7 62.9825 2.39439   5
  -1  -5   7 57.1971 2.37683   4
  -1  -5   7 56.4167 2.36398   2
   0   5  -7 39.9047 1.79514   5
   0   5  -7 40.3042 1.79665   1
   0  -5   7 37.9607 1.84688   4
   0  -5   7 38.8759 1.86570   2
  -1   5  -7 875.326 23.9893   1
   1  -5   7 892.336 24.0997   2
   1  -5   7 876.407 24.0921   4
  -2   5  -7 1.21192 0.50529   1
  -2   5  -7 2.00150 0.54532   5
   2  -5   7 1.42328 0.55078   4
   2  -5   7 1.96665 0.57639   2
  -3   5  -7 123.701 4.19296   1
  -3   5  -7 121.704 4.09593   5
   3  -5   7 127.848 4.31493   4
   3  -5   7 128.677 4.26291   2
  -4   5  -7 -0.1853 0.34244   6
  -4   5  -7 0.09052 0.47985   1
  -4   5  -7 0.21091 0.42431   5
   4  -5   7 -0.1174 0.33453   3
   4  -5   7 0.40262 0.49222   2
   4  -5   7 -0.1716 0.48828   4
  -5   5  -7 4.86453 0.86226   1
  -5   5  -7 0.37621 0.47798   6
  -5   5  -7 1.08652 0.50346   5
   5  -5   7 0.71011 0.60854   4
   5  -5   7 0.68023 0.51934   2
   5  -5   7 0.34170 0.41646   3
  -6   5  -7 72.9290 3.03386   1
  -6   5  -7 69.2700 2.84967   6
   6  -5   7 73.1871 2.79574   3
   6  -5   7 72.1286 3.12164   4
  -7   5  -7 5.36297 1.01439   1
  -7   5  -7 5.33998 0.95162   6
   7  -5   7 6.81692 1.09429   4
   7  -5   7 6.28214 0.92111   3
  -8   5  -7 66.1496 3.03178   6
  -8   5  -7 66.3424 3.13663   1
   8  -5   7 68.5384 3.23140   4
   8  -5   7 67.4205 2.98251   3
  -9   5  -7 17.6490 1.84503   1
  -9   5  -7 20.1645 1.86550   6
   9  -5   7 16.0586 1.63015   3
   9  -5   7 19.1784 1.86168   4
   9   4  -7 9.62155 1.44545   4
  -9  -4   7 9.21684 1.49289   1
   8   4  -7 32.2166 2.15758   4
  -8  -4   7 28.8817 2.21152   1
   7   4  -7 35.6275 2.14360   4
   7   4  -7 37.3524 2.23075   1
   6   4  -7 2.09300 0.72921   1
   6   4  -7 1.48607 0.67807   4
   5   4  -7 78.5750 2.81193   5
   5   4  -7 78.4306 3.16772   1
   5   4  -7 82.5084 3.12735   4
  -5  -4   7 74.7197 2.87265   2
   4   4  -7 18.2587 1.31218   1
   4   4  -7 19.5669 1.16775   5
  -4  -4   7 18.0939 1.35499   4
  -4  -4   7 19.4842 1.27344   2
   3   4  -7 1107.00 28.9706   5
   3   4  -7 1048.58 29.0789   1
  -3  -4   7 1065.05 29.0137   2
  -3  -4   7 1068.45 29.0986   4
   2   4  -7 126.762 4.07108   5
   2   4  -7 121.155 4.09165   1
  -2  -4   7 126.042 4.12205   2
  -2  -4   7 129.145 4.16494   4
   1   4  -7 0.52785 0.36285   5
   1   4  -7 1.22890 0.41064   1
  -1  -4   7 1.02884 0.44697   4
  -1  -4   7 0.62851 0.41314   2
   0   4  -7 708.633 19.4267   5
   0   4  -7 704.061 19.3738   1
   0  -4   7 729.137 19.4736   4
   0  -4   7 697.927 19.4675   2
  -1   4  -7 2.54126 0.32870   3
  -1   4  -7 2.08905 0.48267   5
  -1   4  -7 2.08896 0.47515   1
   1  -4   7 2.32146 0.31662   6
   1  -4   7 2.16660 0.51208   2
   1  -4   7 2.34096 0.55738   4
  -2   4  -7 8.04997 0.57213   3
  -2   4  -7 5.12520 0.64771   5
  -2   4  -7 8.67984 0.78791   1
   2  -4   7 8.10750 0.85688   4
   2  -4   7 7.26101 0.58499   6
   2  -4   7 6.75337 0.75832   2
  -3   4  -7 64.8388 2.46878   1
  -3   4  -7 66.0518 2.47776   5
   3  -4   7 65.5694 2.54917   4
   3  -4   7 65.1295 2.57125   2
   3  -4   7 68.5510 2.32300   6
  -4   4  -7 21.9902 1.28073   5
  -4   4  -7 22.8087 1.35469   1
   4  -4   7 24.3838 1.28759   6
   4  -4   7 25.8606 1.43218   2
   4  -4   7 26.0470 1.47931   4
   4  -4   7 23.8816 1.19234   3
  -5   4  -7 0.04441 0.38648   5
  -5   4  -7 0.39438 0.46799   6
  -5   4  -7 0.49115 0.48927   1
   5  -4   7 0.55052 0.40559   3
   5  -4   7 0.86949 0.54665   4
   5  -4   7 0.10364 0.45222   2
  -6   4  -7 123.317 4.21587   1
  -6   4  -7 115.086 4.14911   6
   6  -4   7 119.331 4.25247   4
   6  -4   7 118.159 4.01845   3
  -7   4  -7 18.9763 1.50339   1
  -7   4  -7 20.6138 1.53633   6
   7  -4   7 20.5270 1.55501   4
   7  -4   7 22.0644 1.47335   3
  -8   4  -7 29.5608 1.94597   6
  -8   4  -7 29.5055 1.98786   1
   8  -4   7 28.3505 1.95930   4
   8  -4   7 29.1876 1.85862   3
  -9   4  -7 81.9554 3.81085   1
  -9   4  -7 78.7705 3.55488   6
   9  -4   7 75.5783 3.39265   3
   9  -4   7 79.7492 3.63353   4
   9   3  -7 24.0319 2.03482   4
  -9  -3   7 26.0238 2.22030   1
   8   3  -7 13.5334 1.50884   4
  -8  -3   7 13.6391 1.57688   1
   7   3  -7 -0.0736 0.62583   4
   6   3  -7 14.7149 1.25561   4
   6   3  -7 12.5487 1.06233   3
   6   3  -7 8.84035 1.15317   1
  -6  -3   7 11.1816 1.03410   6
   5   3  -7 1.86048 0.46821   5
   5   3  -7 1.98937 0.61067   4
   5   3  -7 1.68482 0.50233   3
   5   3  -7 1.64907 0.61342   1
  -5  -3   7 2.05653 0.49501   2
  -5  -3   7 1.44619 0.48680   6
   4   3  -7 172.220 5.17630   5
   4   3  -7 180.154 5.11280   3
   4   3  -7 163.840 5.39280   4
   4   3  -7 160.086 5.40221   1
  -4  -3   7 171.570 5.22991   2
  -4  -3   7 176.288 5.08548   6
   3   3  -7 11.2757 0.71416   3
   3   3  -7 10.7127 0.92828   1
   3   3  -7 9.70643 0.84317   5
  -3  -3   7 10.4618 0.75480   6
  -3  -3   7 9.77877 0.89583   2
   2   3  -7 0.67230 0.23637   3
   2   3  -7 0.65527 0.33015   5
   2   3  -7 0.82711 0.36485   1
  -2  -3   7 0.92227 0.27409   6
  -2  -3   7 0.72270 0.38728   2
  -2  -3   7 0.38745 0.35160   4
   1   3  -7 23.5973 1.24538   5
   1   3  -7 26.5954 0.98158   3
   1   3  -7 25.0306 1.24131   1
  -1  -3   7 23.5060 1.28404   2
  -1  -3   7 27.3491 1.00981   6
  -1  -3   7 24.7933 1.26752   4
   0   3  -7 241.205 7.02660   5
   0   3  -7 238.204 6.93493   1
   0  -3   7 235.970 7.05935   2
   0  -3   7 231.591 6.95829   4
   0  -3   7 255.364 6.66975   6
  -1   3  -7 55.3207 1.78907   3
  -1   3  -7 50.8487 2.04096   5
  -1   3  -7 52.1859 1.94608   1
   1  -3   7 55.2727 2.03484   4
   1  -3   7 54.8616 1.78268   6
   1  -3   7 51.2863 2.09445   2
  -2   3  -7 2.79178 0.52712   5
  -2   3  -7 2.77739 0.38698   3
  -2   3  -7 2.42343 0.42477   1
   2  -3   7 2.98717 0.54095   2
   2  -3   7 2.16279 0.45697   4
   2  -3   7 3.25821 0.41054   6
  -3   3  -7 105.680 3.23860   3
  -3   3  -7 104.266 3.34255   1
  -3   3  -7 103.233 3.41070   5
   3  -3   7 96.3495 3.37801   4
   3  -3   7 105.483 3.31003   6
   3  -3   7 102.818 3.49178   2
  -4   3  -7 157.655 4.88873   5
  -4   3  -7 162.427 4.89292   1
   4  -3   7 156.168 4.77636   3
   4  -3   7 160.754 5.00947   2
   4  -3   7 157.672 4.88100   6
   4  -3   7 155.881 4.94067   4
  -5   3  -7 170.302 5.18918   5
  -5   3  -7 171.395 5.26071   1
   5  -3   7 173.127 5.31699   2
   5  -3   7 164.055 5.17805   3
   5  -3   7 172.050 5.35334   4
   5  -3   7 164.085 5.27946   6
  -6   3  -7 65.3700 2.55704   1
  -6   3  -7 62.4921 2.34784   5
   6  -3   7 62.9072 2.58119   4
   6  -3   7 63.2224 2.48798   2
   6  -3   7 59.0143 2.45807   3
  -7   3  -7 30.5704 1.92132   6
  -7   3  -7 35.2296 1.84610   1
   7  -3   7 34.9796 1.86479   3
   7  -3   7 30.3871 1.79939   4
  -8   3  -7 18.9237 1.65828   6
  -8   3  -7 19.9059 1.52533   1
   8  -3   7 18.2931 1.53035   3
   8  -3   7 19.6541 1.51641   4
  -9   3  -7 7.04088 1.20220   6
   9  -3   7 6.87953 1.11199   3
 -10   3  -7 18.2629 2.09798   6
  10  -3   7 18.6606 1.78765   3
   9   2  -7 -0.8359 0.61138   4
   9   2  -7 0.26829 0.63844   3
  -9  -2   7 1.12638 0.97441   1
  -9  -2   7 0.28076 0.73353   6
   8   2  -7 -0.0295 0.68787   4
   8   2  -7 -0.4563 0.51969   3
  -8  -2   7 0.23457 0.78944   1
  -8  -2   7 -0.0419 0.62807   6
   7   2  -7 -0.7923 0.44442   3
   7   2  -7 0.29170 0.65341   4
  -7  -2   7 -0.3210 0.67070   1
  -7  -2   7 -0.3865 0.51959   6
   6   2  -7 -0.1050 0.53968   4
   6   2  -7 0.38612 0.48713   3
  -6  -2   7 0.20516 0.48104   6
   5   2  -7 17.3347 1.30377   1
   5   2  -7 15.8071 1.25039   4
   5   2  -7 18.5152 1.15230   3
  -5  -2   7 16.8529 1.15858   6
  -5  -2   7 17.5252 1.19262   2
   4   2  -7 1.24114 0.49644   4
   4   2  -7 2.54927 0.44917   5
   4   2  -7 0.93086 0.47183   1
   4   2  -7 1.31422 0.41397   3
  -4  -2   7 1.28842 0.41950   2
  -4  -2   7 1.67039 0.45170   6
   3   2  -7 82.3365 2.68141   3
   3   2  -7 83.1317 2.87881   4
   3   2  -7 80.8042 2.89822   1
   3   2  -7 79.5519 2.72697   5
  -3  -2   7 81.1788 2.78007   2
  -3  -2   7 84.4768 2.71024   6
   2   2  -7 12.5106 0.81583   5
   2   2  -7 11.1074 0.69723   3
   2   2  -7 11.8742 0.81293   4
   2   2  -7 10.8114 0.81381   1
  -2  -2   7 10.4719 0.81647   2
  -2  -2   7 11.3971 0.72386   6
   1   2  -7 35.2668 1.25960   3
   1   2  -7 32.3666 1.38671   1
   1   2  -7 32.8879 1.43244   5
  -1  -2   7 30.4964 1.36874   4
  -1  -2   7 30.4478 1.43575   2
  -1  -2   7 34.6184 1.28850   6
   0   2  -7 7.00756 0.69309   5
   0   2  -7 7.40506 0.54886   3
   0   2  -7 7.56902 0.61377   1
   0  -2   7 8.67995 0.59150   6
   0  -2   7 7.54462 0.72933   2
   0  -2   7 7.56179 0.62527   4
  -1   2  -7 66.7269 2.07581   3
  -1   2  -7 61.3853 2.08422   1
   1  -2   7 60.6999 2.13938   4
   1  -2   7 60.2376 2.05325   6
  -2   2  -7 218.519 5.97546   3
  -2   2  -7 213.665 5.98336   1
  -2   2  -7 206.100 6.14845   5
   2  -2   7 208.110 6.21493   2
   2  -2   7 202.202 5.97831   6
   2  -2   7 204.754 6.02066   4
  -3   2  -7 114.955 3.61520   3
  -3   2  -7 120.766 3.77606   5
  -3   2  -7 120.231 3.61425   1
   3  -2   7 114.546 3.67215   6
   3  -2   7 120.512 3.85702   2
   3  -2   7 115.229 3.65998   4
  -4   2  -7 72.6524 2.61827   5
  -4   2  -7 74.3118 2.54250   1
   4  -2   7 74.0927 2.66334   6
   4  -2   7 75.1800 2.73978   2
   4  -2   7 77.9647 2.61990   4
   4  -2   7 75.3032 2.60023   3
  -5   2  -7 2.99664 0.53459   5
  -5   2  -7 3.46087 0.56781   1
   5  -2   7 3.28921 0.60659   2
   5  -2   7 3.39339 0.58368   3
   5  -2   7 3.43691 0.58932   4
   5  -2   7 3.15829 0.64214   6
  -6   2  -7 27.9611 1.46720   1
  -6   2  -7 28.9077 1.40725   5
   6  -2   7 27.7891 1.49976   4
   6  -2   7 29.7281 1.55735   3
   6  -2   7 28.8991 1.63558   6
   6  -2   7 28.5018 1.52181   2
  -7   2  -7 4.49346 0.74689   1
   7  -2   7 4.53390 0.79986   6
   7  -2   7 5.24015 0.85099   3
   7  -2   7 4.57219 0.75775   4
  -8   2  -7 8.68708 1.06866   1
  -8   2  -7 6.20113 1.08582   6
   8  -2   7 8.04408 1.06835   3
   8  -2   7 8.31934 1.04055   4
  -9   2  -7 22.6588 1.89235   6
   9  -2   7 24.9018 1.81247   3
 -10   2  -7 58.7253 3.14236   6
  10  -2   7 60.8001 3.01723   3
   9   1  -7 44.7198 2.55034   3
   9   1  -7 49.5324 2.80210   4
  -9  -1   7 52.8560 2.93938   1
  -9  -1   7 48.7710 2.65172   6
   8   1  -7 9.86730 1.33456   4
   8   1  -7 9.96705 1.25275   3
  -8  -1   7 10.9998 1.44695   1
  -8  -1   7 11.6644 1.31653   6
   7   1  -7 10.4455 1.27808   4
   7   1  -7 9.52025 1.13012   3
  -7  -1   7 10.7186 1.16745   6
  -7  -1   7 12.0862 1.45364   1
   6   1  -7 14.5884 1.30071   4
   6   1  -7 14.0881 1.22808   3
  -6  -1   7 14.1964 1.20821   6
  -6  -1   7 14.5461 1.37138   1
   5   1  -7 213.019 6.59567   3
   5   1  -7 227.916 6.81076   4
  -5  -1   7 217.445 6.82132   1
  -5  -1   7 217.692 6.59227   6
   4   1  -7 40.5291 1.80229   3
   4   1  -7 46.4181 1.97789   1
  -4  -1   7 43.2573 1.67450   2
  -4  -1   7 46.4121 1.87386   6
   3   1  -7 107.353 3.32268   5
   3   1  -7 109.052 3.41553   3
   3   1  -7 97.2451 3.45209   4
   3   1  -7 109.664 3.54241   1
  -3  -1   7 108.027 3.36467   2
  -3  -1   7 108.278 3.43150   6
   2   1  -7 6.13764 0.59782   4
   2   1  -7 4.80212 0.54245   5
   2   1  -7 4.54239 0.54535   1
   2   1  -7 5.59251 0.54702   3
  -2  -1   7 5.60696 0.59866   2
  -2  -1   7 5.50111 0.58445   6
   1   1  -7 11.3304 0.72376   4
   1   1  -7 11.0481 0.78768   5
   1   1  -7 11.3974 0.74148   1
   1   1  -7 12.9333 0.75313   3
  -1  -1   7 12.5087 0.75924   6
  -1  -1   7 10.4716 0.81305   2
   0   1  -7 21.4872 1.00124   3
   0   1  -7 20.5100 1.06145   5
   0   1  -7 21.7831 0.95677   1
   0  -1   7 22.9092 1.14432   2
   0  -1   7 22.9823 0.99725   4
   0  -1   7 20.9516 0.99912   6
  -1   1  -7 52.4791 1.76542   3
  -1   1  -7 47.5682 1.84589   5
  -1   1  -7 48.4667 1.64730   1
   1  -1   7 48.5721 1.75883   6
  -2   1  -7 0.55409 0.31387   5
  -2   1  -7 0.68937 0.23022   1
  -2   1  -7 1.62424 0.33475   3
   2  -1   7 0.90366 0.39834   2
   2  -1   7 2.51529 0.33867   4
   2  -1   7 1.68833 0.36134   6
  -3   1  -7 279.073 7.81281   3
  -3   1  -7 275.496 7.90937   5
  -3   1  -7 279.966 7.64773   1
   3  -1   7 276.647 7.98077   2
   3  -1   7 267.042 7.85611   6
  -4   1  -7 114.769 3.43211   1
  -4   1  -7 114.574 3.64178   5
   4  -1   7 111.032 3.67573   6
   4  -1   7 110.161 3.70700   2
  -5   1  -7 0.72785 0.38563   5
  -5   1  -7 1.08547 0.35442   1
   5  -1   7 0.33286 0.38496   3
   5  -1   7 0.53475 0.27875   4
   5  -1   7 1.31070 0.45191   2
   5  -1   7 0.75903 0.44392   6
  -6   1  -7 9.16831 0.85552   5
  -6   1  -7 9.25450 0.79816   1
   6  -1   7 7.63873 0.87781   3
   6  -1   7 9.04709 0.82060   4
   6  -1   7 8.13901 0.86403   2
   6  -1   7 8.78313 1.01525   6
  -7   1  -7 48.6600 2.07407   5
  -7   1  -7 52.5862 2.14165   1
   7  -1   7 56.3440 2.25051   2
   7  -1   7 50.1359 2.30147   3
   7  -1   7 50.6247 2.12888   4
   7  -1   7 50.1531 2.41534   6
   8  -1   7 93.6246 3.65497   3
   8  -1   7 98.9891 3.85562   6
  -9   1  -7 1.86101 0.85255   6
   9  -1   7 1.87621 0.73012   3
 -10   1  -7 3.36323 1.05659   6
  10  -1   7 6.03466 1.12198   3
   9   0  -7 1.49780 0.84451   3
   9   0  -7 0.48271 0.85522   4
  -9   0   7 1.99837 0.94106   6
  -9   0   7 1.61347 0.92845   1
   8   0  -7 44.2922 2.46800   3
   8   0  -7 47.4748 2.59981   4
  -8   0   7 45.8208 2.46068   6
  -8   0   7 46.6535 2.64202   1
   7   0  -7 117.017 4.25624   3
   7   0  -7 109.799 4.25345   4
  -7   0   7 122.081 4.26725   6
  -7   0   7 110.182 4.36731   1
   6   0  -7 104.963 3.77475   3
   6   0  -7 108.111 3.87140   4
  -6   0   7 97.7363 3.82776   1
  -6   0   7 99.8812 3.70285   6
   5   0  -7 33.5828 1.73752   4
   5   0  -7 33.2493 1.71261   3
  -5   0   7 34.1527 1.81265   1
  -5   0   7 36.5941 1.76810   6
   4   0  -7 2.67939 0.52820   4
   4   0  -7 6.78495 0.76464   3
   4   0  -7 4.34356 0.45739   5
  -4   0   7 2.53498 0.57179   6
  -4   0   7 3.99344 0.48008   2
  -4   0   7 3.21447 0.63185   1
   3   0  -7 64.9828 2.36719   3
   3   0  -7 66.9461 2.39671   4
  -3   0   7 65.9542 2.23796   2
  -3   0   7 66.4307 2.41131   6
   2   0  -7 16.1909 0.93076   1
   2   0  -7 15.3813 0.85683   5
   2   0  -7 17.1157 0.93369   4
   2   0  -7 18.3616 0.96633   3
  -2   0   7 15.8474 0.91374   2
  -2   0   7 17.5447 1.00352   6
   1   0  -7 650.231 17.8043   3
   1   0  -7 651.875 17.7142   4
   1   0  -7 673.513 17.8240   5
   1   0  -7 644.370 17.7211   1
  -1   0   7 659.133 17.8524   6
  -1   0   7 667.043 17.8663   2
   0   0  -7 13.6573 0.67657   1
   0   0  -7 13.0762 0.80911   5
   0   0   7 13.6860 0.82843   6
   0   0   7 13.3771 0.88678   2
  -1   0  -7 294.751 8.49813   5
  -1   0  -7 301.580 8.43918   3
  -1   0  -7 306.128 8.17843   1
   1   0   7 316.221 8.22675   4
   1   0   7 302.502 8.56641   2
   1   0   7 285.563 8.43337   6
  -2   0  -7 4.14634 0.33611   1
  -2   0  -7 3.62459 0.47892   3
  -2   0  -7 3.51103 0.49550   5
   2   0   7 4.51043 0.62568   2
   2   0   7 4.13567 0.52325   6
  -3   0  -7 55.7889 2.02788   3
  -3   0  -7 56.8472 2.10146   5
  -3   0  -7 56.9702 1.75021   1
   3   0   7 54.1066 2.12838   2
   3   0   7 56.8507 1.77578   4
   3   0   7 55.1756 2.08011   6
  -4   0  -7 105.322 3.50688   5
  -4   0  -7 109.227 3.18209   1
   4   0   7 108.761 3.21126   4
   4   0   7 106.900 3.58167   2
   4   0   7 107.158 3.56845   6
  -5   0  -7 26.3099 1.34550   5
  -5   0  -7 26.8178 1.13120   1
   5   0   7 26.1229 1.42514   2
   5   0   7 27.1478 1.16447   4
   5   0   7 26.1658 1.46648   6
  -6   0  -7 35.4827 1.39445   1
  -6   0  -7 28.8653 1.47995   5
   6   0   7 25.8050 1.62444   6
   6   0   7 31.3522 1.57306   2
   6   0   7 27.5833 1.55388   3
  -7   0  -7 34.0776 1.59135   5
   7   0   7 28.7784 1.77479   6
   7   0   7 33.3530 1.67176   2
   7   0   7 31.3822 1.73862   3
   8   0   7 4.94227 0.88598   3
   8   0   7 4.76284 0.95066   6
   9   0   7 0.34847 0.61635   3
 -10   0  -7 66.1727 3.41345   6
  10   0   7 64.9669 3.11652   3
   9  -1  -7 81.6360 3.77586   4
   9  -1  -7 79.9842 3.64616   3
  -9   1   7 79.0322 3.63530   6
  -9   1   7 83.0750 3.89310   1
   8  -1  -7 6.33661 1.20994   4
   8  -1  -7 5.43282 1.09035   3
  -8   1   7 5.59443 1.20031   1
  -8   1   7 4.55157 1.02070   6
   7  -1  -7 293.797 9.23112   3
   7  -1  -7 301.695 9.33031   4
  -7   1   7 302.485 9.37695   1
  -7   1   7 305.159 9.23236   6
   6  -1  -7 22.0787 1.55769   4
   6  -1  -7 21.7409 1.50668   3
  -6   1   7 20.9118 1.55522   1
  -6   1   7 20.2621 1.50827   6
   5  -1  -7 56.5336 2.40307   4
   5  -1  -7 52.9385 2.32714   3
  -5   1   7 52.3472 2.33531   6
  -5   1   7 56.5894 2.44539   1
   4  -1  -7 10.8271 0.95406   3
   4  -1  -7 9.41411 0.93007   4
  -4   1   7 12.3517 1.01389   1
  -4   1   7 10.4907 1.00273   6
   3  -1  -7 7.22156 0.75437   4
   3  -1  -7 6.28251 0.55117   5
  -3   1   7 8.55156 0.78318   1
  -3   1   7 5.50172 0.67357   6
  -3   1   7 7.83095 0.61379   2
   2  -1  -7 682.577 18.2449   4
   2  -1  -7 687.079 18.3365   3
   2  -1  -7 662.122 18.1390   5
  -2   1   7 651.003 18.2396   1
  -2   1   7 673.683 18.3877   6
  -2   1   7 680.676 18.1946   2
   1  -1  -7 405.093 11.0008   5
   1  -1  -7 378.614 11.0434   3
   1  -1  -7 391.857 10.8729   4
  -1   1   7 396.741 11.1222   6
  -1   1   7 416.555 10.9354   1
  -1   1   7 402.611 11.0374   2
   0  -1  -7 234.018 6.94366   3
   0  -1  -7 251.117 6.68847   4
   0  -1  -7 244.612 6.95952   5
   0   1   7 238.703 6.98413   2
   0   1   7 247.350 7.00923   6
  -1  -1  -7 27.7652 1.24699   3
  -1  -1  -7 29.6594 0.94597   1
  -1  -1  -7 26.5371 1.25823   5
   1   1   7 28.7769 1.34667   2
   1   1   7 28.7284 1.30170   6
   1   1   7 29.5206 0.96227   4
  -2  -1  -7 456.523 12.7982   5
  -2  -1  -7 468.475 12.7491   3
  -2  -1  -7 477.218 12.2381   1
   2   1   7 463.743 12.7857   6
   2   1   7 446.493 12.8339   2
   2   1   7 460.636 12.2502   4
  -3  -1  -7 144.798 3.67859   1
  -3  -1  -7 121.546 4.10293   3
   3   1   7 140.147 3.69332   4
   3   1   7 133.544 4.22993   6
   3   1   7 131.638 4.26736   2
  -4  -1  -7 497.406 14.2376   3
  -4  -1  -7 507.070 14.3004   5
  -4  -1  -7 534.935 13.7972   1
   4   1   7 497.799 14.3384   6
   4   1   7 539.560 13.8161   4
   4   1   7 518.988 14.3812   2
  -5  -1  -7 2.79025 0.55547   5
  -5  -1  -7 3.43200 0.60877   3
  -5  -1  -7 4.10827 0.44830   1
   5   1   7 4.18707 0.41339   4
   5   1   7 2.30210 0.56248   6
   5   1   7 3.15033 0.59555   2
  -6  -1  -7 49.9083 2.03311   5
   6   1   7 43.5577 2.03493   2
   6   1   7 50.7882 2.24931   6
  -7  -1  -7 4.69745 0.70853   5
   7   1   7 3.65985 0.75937   6
   7   1   7 2.72629 0.68594   3
   7   1   7 4.74412 0.74155   2
   8   1   7 1.14390 0.62367   6
   8   1   7 1.37076 0.63934   3
   9   1   7 73.9675 3.20883   3
   9   1   7 74.5022 3.35093   6
 -10  -1  -7 28.0174 2.21260   6
  10   1   7 21.0618 1.91256   3
   9  -2  -7 10.6939 1.87954   4
   9  -2  -7 16.9260 1.83944   3
  -9   2   7 16.5617 2.16276   1
  -9   2   7 13.5343 1.81677   6
   8  -2  -7 420.934 12.2309   4
   8  -2  -7 383.221 12.0885   3
  -8   2   7 393.966 12.1957   1
  -8   2   7 399.411 12.0553   6
   7  -2  -7 1.20676 0.70694   3
   7  -2  -7 0.75083 0.72076   4
  -7   2   7 2.68221 0.87608   1
  -7   2   7 1.67620 0.79716   6
   6  -2  -7 10.2384 1.17203   3
   6  -2  -7 14.6621 1.36937   4
  -6   2   7 13.4382 1.37345   6
  -6   2   7 13.3979 1.42061   1
   5  -2  -7 251.999 7.59578   4
   5  -2  -7 250.627 7.61550   3
  -5   2   7 244.485 7.58873   6
  -5   2   7 242.630 7.58716   1
   4  -2  -7 296.756 8.71281   3
   4  -2  -7 302.705 8.68406   4
  -4   2   7 294.392 8.67039   1
  -4   2   7 285.131 8.68177   6
   3  -2  -7 75.0458 2.61977   4
   3  -2  -7 68.1384 2.61949   3
   3  -2  -7 71.2607 2.28974   5
  -3   2   7 73.2995 2.35516   2
  -3   2   7 72.6697 2.61353   1
  -3   2   7 66.5310 2.66008   6
   2  -2  -7 271.254 7.59432   4
   2  -2  -7 263.350 7.70762   3
  -2   2   7 267.392 7.59860   1
  -2   2   7 257.552 7.76747   6
  -2   2   7 271.697 7.54268   2
   1  -2  -7 7.58207 0.65135   5
   1  -2  -7 8.38576 0.57852   4
   1  -2  -7 5.17563 0.60056   3
  -1   2   7 8.13126 0.61102   1
  -1   2   7 8.53628 0.81707   6
  -1   2   7 7.04516 0.65237   2
   0  -2  -7 177.539 5.31173   5
   0  -2  -7 179.436 5.36564   3
   0  -2  -7 179.298 5.01091   4
   0   2   7 174.835 5.38897   6
   0   2   7 190.062 5.06369   1
   0   2   7 179.031 5.36425   2
  -1  -2  -7 1182.31 32.3209   5
  -1  -2  -7 1184.77 32.3164   3
   1   2   7 1287.27 31.8322   1
   1   2   7 1175.21 32.3601   6
   1   2   7 1204.07 32.3877   2
  -2  -2  -7 20.9478 1.10257   3
  -2  -2  -7 21.8139 1.14800   5
   2   2   7 20.0458 1.12092   6
   2   2   7 19.2467 1.13237   2
  -3  -2  -7 1375.49 36.8993   5
  -3  -2  -7 1364.72 36.8230   3
   3   2   7 1366.78 36.9502   2
   3   2   7 1402.84 36.9210   6
  -4  -2  -7 75.1074 2.63427   3
  -4  -2  -7 74.0751 2.64179   5
   4   2   7 71.1672 2.66522   6
   4   2   7 70.5170 2.69346   2
  -5  -2  -7 111.171 3.67022   5
  -5  -2  -7 110.263 3.65646   3
   5   2   7 110.286 3.75432   6
   5   2   7 102.330 3.66982   2
  -6  -2  -7 80.1207 2.96386   3
  -6  -2  -7 80.1963 2.89706   5
   6   2   7 78.5732 2.96122   2
   6   2   7 73.6208 3.00273   6
  -7  -2  -7 22.8288 1.39554   5
   7   2   7 22.7000 1.54718   6
   7   2   7 22.6601 1.45657   2
  -8  -2  -7 12.1945 1.10332   5
   8   2   7 9.57296 1.14647   3
   8   2   7 11.1591 1.31411   6
   8   2   7 12.3666 1.19682   2
   9   2   7 51.3479 2.78317   6
   9   2   7 54.8408 2.66769   3
  10   2   7 136.826 5.15388   3
  10   2   7 141.863 5.37570   6
   8  -3  -7 84.2869 3.73063   3
   8  -3  -7 75.6140 3.59098   4
  -8   3   7 79.9516 3.64806   6
  -8   3   7 75.7729 3.63459   1
   7  -3  -7 21.9921 1.78666   4
   7  -3  -7 20.4726 1.75884   3
  -7   3   7 24.2380 1.92795   1
  -7   3   7 20.0972 1.67985   6
   6  -3  -7 0.90021 0.65656   4
   6  -3  -7 0.89577 0.65175   3
  -6   3   7 -0.3363 0.60061   1
  -6   3   7 -0.4056 0.57018   6
   5  -3  -7 224.258 7.28758   4
   5  -3  -7 248.380 7.45733   3
  -5   3   7 242.399 7.39312   1
  -5   3   7 232.797 7.37774   6
   4  -3  -7 6.27373 0.84544   3
   4  -3  -7 6.41782 0.85077   4
  -4   3   7 5.27274 0.80008   6
  -4   3   7 7.84296 0.95132   1
   3  -3  -7 934.028 24.5249   5
   3  -3  -7 902.151 24.9789   3
   3  -3  -7 916.873 24.8538   4
  -3   3   7 981.033 24.6291   2
  -3   3   7 885.605 25.0203   6
  -3   3   7 880.476 24.8659   1
   2  -3  -7 14.0214 0.89931   4
   2  -3  -7 13.1922 0.95833   3
  -2   3   7 14.3752 0.87577   2
  -2   3   7 12.8441 1.02609   6
  -2   3   7 14.8905 0.95596   1
   1  -3  -7 40.3769 1.60631   5
   1  -3  -7 39.6666 1.70162   3
   1  -3  -7 40.8351 1.49634   4
  -1   3   7 40.4178 1.62689   2
  -1   3   7 37.8820 1.77333   6
  -1   3   7 40.5657 1.53322   1
   0  -3  -7 805.902 22.9950   3
   0  -3  -7 868.113 22.9680   5
   0  -3  -7 858.250 22.6360   4
   0   3   7 834.052 22.9837   2
   0   3   7 863.998 22.6562   1
   0   3   7 867.662 23.1048   6
  -1  -3  -7 145.083 4.46097   5
  -1  -3  -7 144.521 3.91465   4
  -1  -3  -7 138.268 4.42057   3
   1   3   7 144.350 4.50350   6
   1   3   7 144.299 3.92626   1
   1   3   7 142.248 4.47413   2
  -2  -3  -7 21.1150 1.16237   3
  -2  -3  -7 21.8676 1.20462   5
   2   3   7 18.8102 1.16564   2
   2   3   7 20.3914 1.17738   6
  -3  -3  -7 0.32988 0.36445   3
  -3  -3  -7 0.27073 0.39731   5
   3   3   7 0.54098 0.40610   6
   3   3   7 0.69813 0.42832   2
  -4  -3  -7 199.889 6.17547   5
  -4  -3  -7 207.550 6.12339   3
   4   3   7 204.167 6.24399   2
   4   3   7 202.843 6.20448   6
  -5  -3  -7 274.808 8.02012   5
  -5  -3  -7 260.035 7.90201   3
   5   3   7 276.402 8.08859   2
   5   3   7 269.055 8.05105   6
  -6  -3  -7 383.613 11.1939   5
  -6  -3  -7 385.845 11.2061   3
   6   3   7 393.468 11.3650   6
   6   3   7 399.138 11.3086   2
  -7  -3  -7 70.3424 2.73324   5
  -7  -3  -7 68.1844 2.83095   3
   7   3   7 66.4903 2.89562   6
   7   3   7 71.6285 2.84119   2
  -8  -3  -7 24.7974 1.74158   3
  -8  -3  -7 24.5766 1.52771   5
   8   3   7 26.0402 1.83969   6
   8   3   7 26.7137 1.66848   2
  -9  -3  -7 117.499 4.51913   3
   9   3   7 123.023 4.69589   6
 -10  -3  -7 -0.2843 0.75192   3
  10   3   7 0.00715 0.83279   6
   8  -4  -7 75.7957 3.62689   3
   8  -4  -7 71.6522 3.53966   4
  -8   4   7 77.4797 3.65414   1
  -8   4   7 77.1622 3.66627   6
   7  -4  -7 17.7799 1.69138   3
   7  -4  -7 17.1311 1.66356   4
  -7   4   7 14.9354 1.59372   1
  -7   4   7 17.8488 1.79439   6
   6  -4  -7 296.025 9.40954   3
   6  -4  -7 310.999 9.38636   4
  -6   4   7 318.559 9.50855   6
  -6   4   7 292.790 9.34483   1
   5  -4  -7 3.05758 0.80314   3
   5  -4  -7 1.27637 0.62094   4
  -5   4   7 3.30270 0.79880   1
  -5   4   7 2.62967 0.76990   6
   4  -4  -7 43.7054 2.03097   4
   4  -4  -7 45.3142 2.14283   3
  -4   4   7 42.0087 2.04915   1
  -4   4   7 38.2787 2.04930   6
   3  -4  -7 279.929 8.21321   4
   3  -4  -7 275.489 8.33387   3
  -3   4   7 293.755 8.28713   1
  -3   4   7 274.657 8.41367   6
   2  -4  -7 40.9973 1.68756   4
   2  -4  -7 39.3415 1.83273   3
  -2   4   7 39.6417 1.93289   6
  -2   4   7 40.9510 1.74031   1
  -2   4   7 42.5946 1.65792   2
   1  -4  -7 139.224 4.03018   4
   1  -4  -7 126.423 4.23743   3
   1  -4  -7 133.786 4.13171   5
  -1   4   7 131.940 4.15191   2
  -1   4   7 136.403 4.05504   1
  -1   4   7 129.007 4.36157   6
   0  -4  -7 645.007 16.8441   4
   0  -4  -7 599.228 17.1914   3
   0  -4  -7 628.072 17.1419   5
   0   4   7 628.141 16.8419   1
   0   4   7 625.016 17.3007   6
   0   4   7 632.160 17.1997   2
  -1  -4  -7 480.679 13.9702   3
  -1  -4  -7 529.316 13.4855   4
  -1  -4  -7 512.258 14.0201   5
   1   4   7 501.252 13.4906   1
   1   4   7 508.919 14.0884   6
   1   4   7 492.348 14.0348   2
  -2  -4  -7 401.493 11.0629   5
  -2  -4  -7 375.296 10.9605   3
   2   4   7 396.766 11.0590   6
   2   4   7 382.963 11.0706   2
  -3  -4  -7 1464.63 39.7983   3
  -3  -4  -7 1466.45 39.9086   5
   3   4   7 1504.82 39.9007   6
   3   4   7 1511.33 39.9775   2
  -4  -4  -7 2.22097 0.52864   5
  -4  -4  -7 2.15518 0.51050   3
   4   4   7 3.92748 0.69461   6
   4   4   7 3.00912 0.60745   2
  -5  -4  -7 409.867 11.7053   5
  -5  -4  -7 403.596 11.5844   3
   5   4   7 405.376 11.7160   6
   5   4   7 412.123 11.7543   2
  -6  -4  -7 0.72557 0.50192   3
  -6  -4  -7 0.77479 0.48981   5
   6   4   7 0.96197 0.56092   2
   6   4   7 0.37718 0.49215   6
  -7  -4  -7 17.2288 1.30696   5
  -7  -4  -7 15.4596 1.31340   3
   7   4   7 15.2086 1.31456   2
   7   4   7 16.1644 1.40487   6
  -8  -4  -7 251.725 7.69500   5
  -8  -4  -7 246.442 7.79892   3
   8   4   7 251.595 8.00472   6
   8   4   7 250.302 7.78819   2
  -9  -4  -7 246.623 7.80426   3
   9   4   7 239.653 7.97157   6
 -10  -4  -7 92.7864 3.99105   3
  10   4   7 95.7421 4.12166   6
  -8   5   7 8.62623 2.35535   1
   7  -5  -7 0.06706 0.71624   4
   7  -5  -7 -0.1722 0.68809   3
  -7   5   7 1.23357 0.83556   1
  -7   5   7 -0.2254 0.75518   6
   6  -5  -7 45.5191 2.43975   4
   6  -5  -7 45.3169 2.49564   3
  -6   5   7 46.7930 2.60832   6
  -6   5   7 44.4191 2.52573   1
   5  -5  -7 111.401 3.97934   4
   5  -5  -7 105.483 4.04352   3
  -5   5   7 101.178 4.02809   6
  -5   5   7 104.013 4.00204   1
   4  -5  -7 32.8285 1.89259   3
   4  -5  -7 37.4473 1.88370   4
  -4   5   7 34.8998 1.91439   1
  -4   5   7 34.3564 2.05192   6
   3  -5  -7 332.205 10.0399   4
   3  -5  -7 349.140 10.2241   3
  -3   5   7 363.633 10.1808   1
  -3   5   7 353.853 10.3498   6
   2  -5  -7 10.5999 0.87868   4
   2  -5  -7 9.68848 0.99502   3
  -2   5   7 10.0710 0.84489   2
  -2   5   7 8.59738 0.98214   6
  -2   5   7 10.6847 0.93969   1
   1  -5  -7 781.725 21.5338   3
   1  -5  -7 792.333 21.2811   4
   1  -5  -7 790.530 21.3838   5
  -1   5   7 784.973 21.2951   1
  -1   5   7 800.637 21.4191   2
  -1   5   7 772.483 21.6585   6
   0  -5  -7 170.929 5.45349   3
   0  -5  -7 178.554 5.13076   4
   0  -5  -7 175.396 5.42561   5
   0   5   7 177.587 5.13265   1
   0   5   7 183.441 5.59736   6
   0   5   7 177.379 5.45031   2
  -1  -5  -7 287.636 8.54528   3
  -1  -5  -7 321.245 8.20562   4
  -1  -5  -7 270.911 8.51647   5
   1   5   7 287.499 8.63045   6
   1   5   7 294.173 8.62986   2
   1   5   7 307.853 8.21317   1
  -2  -5  -7 981.344 26.4589   5
  -2  -5  -7 978.702 26.3809   3
   2   5   7 996.028 26.5283   2
   2   5   7 936.830 26.4101   6
  -3  -5  -7 55.4808 2.31442   5
  -3  -5  -7 55.6633 2.25363   3
   3   5   7 58.4283 2.33557   6
   3   5   7 54.4250 2.36691   2
  -4  -5  -7 233.989 7.15289   3
  -4  -5  -7 243.902 7.33653   5
   4   5   7 247.662 7.40054   2
   4   5   7 237.996 7.27455   6
  -5  -5  -7 52.5540 2.33795   5
  -5  -5  -7 50.0047 2.19577   3
   5   5   7 52.0429 2.37103   2
   5   5   7 50.3525 2.27297   6
  -6  -5  -7 442.727 12.3924   5
  -6  -5  -7 406.473 12.1540   3
   6   5   7 434.416 12.4057   2
   6   5   7 421.831 12.3524   6
  -7  -5  -7 35.6254 1.97423   5
  -7  -5  -7 36.8501 1.96071   3
   7   5   7 39.5235 2.11921   6
   7   5   7 33.9202 1.99603   2
  -8  -5  -7 520.254 15.0388   3
  -8  -5  -7 520.105 15.0125   5
   8   5   7 524.178 15.1321   2
   8   5   7 536.453 15.3132   6
  -9  -5  -7 2.26160 0.71912   5
  -9  -5  -7 1.23672 0.82078   3
   9   5   7 1.77772 0.86989   6
   9   5   7 3.20516 0.88090   2
 -10  -5  -7 209.612 7.11146   3
  10   5   7 215.218 7.37445   6
   7  -6  -7 3.71463 1.05745   3
   7  -6  -7 3.24024 0.99128   4
  -7   6   7 3.96151 1.13082   1
  -7   6   7 3.73766 1.22637   6
   6  -6  -7 107.069 4.23564   4
   6  -6  -7 106.512 4.33993   3
  -6   6   7 109.942 4.34339   1
  -6   6   7 110.946 4.46695   6
   5  -6  -7 6.43981 1.05149   3
   5  -6  -7 5.66650 1.00872   4
  -5   6   7 5.94104 1.14150   6
  -5   6   7 7.20095 1.12821   1
   4  -6  -7 496.953 13.7102   4
   4  -6  -7 466.673 13.7749   3
  -4   6   7 467.160 13.8734   6
  -4   6   7 473.828 13.7288   1
   3  -6  -7 16.1485 1.25366   4
   3  -6  -7 16.9384 1.33587   3
  -3   6   7 14.0758 1.45052   6
  -3   6   7 15.9616 1.30374   1
   2  -6  -7 19.5251 1.24363   4
   2  -6  -7 22.2659 1.40094   3
  -2   6   7 18.2746 1.26481   1
  -2   6   7 20.7403 1.51475   6
  -2   6   7 21.9644 1.22462   2
   1  -6  -7 21.4096 1.18443   4
   1  -6  -7 20.2643 1.27713   5
   1  -6  -7 20.0812 1.33688   3
  -1   6   7 21.3357 1.26242   2
  -1   6   7 22.3373 1.20991   1
  -1   6   7 20.6345 1.46848   6
   0  -6  -7 369.408 10.2064   4
   0  -6  -7 358.011 10.5149   3
   0  -6  -7 365.845 10.4890   5
   0   6   7 368.074 10.6487   6
   0   6   7 373.112 10.5380   2
   0   6   7 366.169 10.2242   1
  -1  -6  -7 13.2566 1.11568   5
  -1  -6  -7 15.8133 1.14087   3
   1   6   7 14.6969 1.13686   6
   1   6   7 13.6589 1.14451   2
  -2  -6  -7 845.205 23.2018   5
  -2  -6  -7 820.567 23.0670   3
   2   6   7 854.709 23.2410   2
   2   6   7 860.989 23.1777   6
  -3  -6  -7 -0.1139 0.42245   3
  -3  -6  -7 -0.0669 0.39910   5
   3   6   7 0.73681 0.50441   6
   3   6   7 0.88858 0.55244   2
  -4  -6  -7 11.4012 1.06278   3
  -4  -6  -7 12.9319 1.21544   5
   4   6   7 12.1967 1.09822   6
   4   6   7 9.40417 1.05803   2
  -5  -6  -7 25.7956 1.47080   3
  -5  -6  -7 22.2142 1.52026   5
   5   6   7 20.7950 1.51764   2
   5   6   7 24.8972 1.52836   6
  -6  -6  -7 4.65419 0.81027   5
  -6  -6  -7 5.46246 0.81233   3
   6   6   7 8.13830 1.04002   6
   6   6   7 4.80850 0.90676   2
  -7  -6  -7 546.521 15.8120   3
  -7  -6  -7 562.389 16.0479   5
   7   6   7 566.659 16.0506   6
   7   6   7 563.357 16.0826   2
  -8  -6  -7 26.9733 1.75076   3
  -8  -6  -7 19.5870 1.67446   5
   8   6   7 25.5617 1.92381   2
   8   6   7 23.9832 1.90869   6
  -9  -6  -7 45.9349 2.48062   3
  -9  -6  -7 45.9398 2.44795   5
   9   6   7 52.0975 2.64292   2
   9   6   7 50.9631 2.75823   6
 -10  -6  -7 71.5488 3.31156   3
  10   6   7 69.8432 3.48333   6
   6  -7  -7 59.2723 2.94904   4
   6  -7  -7 57.0353 3.02845   3
  -6   7   7 61.3661 3.11515   1
  -6   7   7 59.3350 3.16189   6
   5  -7  -7 26.6262 1.80672   4
   5  -7  -7 26.0648 1.91633   3
  -5   7   7 28.5360 2.09507   6
  -5   7   7 21.8971 1.83642   1
   4  -7  -7 30.3474 1.92809   3
   4  -7  -7 30.7059 1.91383   4
  -4   7   7 32.3366 2.00245   1
  -4   7   7 32.3148 2.15973   6
   3  -7  -7 5.98079 0.89597   4
   3  -7  -7 4.42242 0.83032   3
  -3   7   7 4.18156 0.80956   1
  -3   7   7 6.09114 1.07217   6
   2  -7  -7 29.8973 1.77197   3
   2  -7  -7 31.7838 1.67620   4
  -2   7   7 31.1762 1.90738   6
  -2   7   7 33.2067 1.72630   1
   1  -7  -7 230.955 7.02539   3
   1  -7  -7 229.746 6.82503   4
   1  -7  -7 230.911 6.90635   5
  -1   7   7 232.033 6.94224   2
  -1   7   7 235.659 6.87991   1
  -1   7   7 216.707 7.12987   6
   0  -7  -7 6.77282 0.89422   3
   0  -7  -7 6.80423 0.84642   5
   0   7   7 6.12805 0.85157   2
   0   7   7 6.12760 0.87629   6
  -1  -7  -7 416.641 12.1932   5
  -1  -7  -7 433.085 12.1417   3
   1   7   7 434.485 12.2503   6
   1   7   7 417.891 12.2091   2
  -2  -7  -7 89.4120 3.23270   3
  -2  -7  -7 83.4529 3.29576   5
   2   7   7 90.6669 3.31806   6
   2   7   7 91.1865 3.40906   2
  -3  -7  -7 42.6061 1.95555   3
  -3  -7  -7 39.9345 2.07223   5
   3   7   7 41.5500 2.11376   2
   3   7   7 38.1634 1.96575   6
  -4  -7  -7 198.717 6.16514   3
  -4  -7  -7 189.000 6.35123   5
   4   7   7 190.620 6.36105   2
   4   7   7 209.934 6.29717   6
  -5  -7  -7 72.8715 2.97010   3
  -5  -7  -7 82.9062 3.32595   5
   5   7   7 79.6415 3.13608   6
   5   7   7 80.3606 3.30482   2
  -6  -7  -7 27.2716 1.65117   3
  -6  -7  -7 23.9596 1.79648   5
   6   7   7 29.0446 1.91610   2
   6   7   7 30.4677 1.80436   6
  -7  -7  -7 23.1122 1.57842   3
  -7  -7  -7 20.4101 1.75426   5
   7   7   7 24.4235 1.89686   2
   7   7   7 22.1644 1.69137   6
  -8  -7  -7 75.5003 3.22284   3
  -8  -7  -7 78.1613 3.42878   5
   8   7   7 81.2924 3.48289   6
   8   7   7 81.4980 3.52689   2
  -9  -7  -7 0.24918 0.67462   3
  -9  -7  -7 0.17726 0.74288   5
   9   7   7 0.82090 0.81100   2
   9   7   7 2.20659 0.93128   6
 -10  -7  -7 52.8815 2.81312   3
  10   7   7 57.1250 3.07010   6
   6  -8  -7 1.81068 0.89434   4
   6  -8  -7 1.70804 1.01474   3
  -6   8   7 2.95318 1.05925   1
  -6   8   7 3.06357 1.79650   6
   5  -8  -7 48.4387 2.69339   3
   5  -8  -7 47.2260 2.58002   4
  -5   8   7 49.6451 2.69028   1
  -5   8   7 50.9590 2.89333   6
   4  -8  -7 0.65225 0.70816   3
   4  -8  -7 0.45266 0.65659   4
  -4   8   7 -0.5317 0.76384   6
  -4   8   7 0.69006 0.71279   1
   3  -8  -7 72.8576 3.15642   3
   3  -8  -7 72.9433 3.04456   4
  -3   8   7 72.8182 3.28551   6
  -3   8   7 80.9656 3.20446   1
   2  -8  -7 11.2016 1.18716   3
   2  -8  -7 10.8527 1.11352   4
  -2   8   7 8.64037 1.17573   6
  -2   8   7 10.0453 1.12780   1
   1  -8  -7 5.40651 0.82309   5
   1  -8  -7 4.43407 0.78380   3
  -1   8   7 2.97524 0.76013   6
  -1   8   7 3.28995 0.71944   2
   0  -8  -7 -0.0924 0.48785   5
   0  -8  -7 -0.1270 0.46422   3
   0   8   7 -0.2147 0.49767   6
   0   8   7 0.55605 0.53406   2
  -1  -8  -7 3.49646 0.80422   5
  -1  -8  -7 4.19822 0.73290   3
   1   8   7 3.79846 0.77502   6
   1   8   7 3.55132 0.81521   2
  -2  -8  -7 0.19365 0.54975   5
  -2  -8  -7 -0.2067 0.41812   3
   2   8   7 -0.2677 0.54583   2
   2   8   7 -0.1266 0.45657   6
  -3  -8  -7 11.0474 1.24748   5
  -3  -8  -7 12.0345 1.12247   3
   3   8   7 8.83126 1.14011   2
   3   8   7 10.9136 1.12533   6
  -4  -8  -7 22.7448 1.73879   5
  -4  -8  -7 24.6486 1.52234   3
   4   8   7 22.5163 1.76528   2
   4   8   7 26.0563 1.64338   6
  -5  -8  -7 6.98665 0.92616   3
  -5  -8  -7 4.90836 0.94699   5
   5   8   7 9.23698 1.25415   2
   5   8   7 7.46769 1.00998   6
  -6  -8  -7 65.0461 3.07137   5
  -6  -8  -7 60.9020 2.66804   3
   6   8   7 65.8816 2.88959   6
   6   8   7 64.1716 3.07806   2
  -7  -8  -7 334.061 10.3789   3
  -7  -8  -7 352.066 10.8421   5
   7   8   7 359.360 10.9105   2
   7   8   7 364.824 10.7063   6
  -8  -8  -7 0.57884 0.66781   3
  -8  -8  -7 0.05486 0.72610   5
   8   8   7 1.36221 0.86420   2
   8   8   7 0.30700 0.68363   6
  -9  -8  -7 86.5754 3.81082   5
   9   8   7 85.1515 3.85994   2
   5  -9  -7 0.47141 0.76750   3
   5  -9  -7 0.12721 0.74992   4
  -5   9   7 -0.2497 0.89802   6
  -5   9   7 -0.2151 0.73657   1
   4  -9  -7 40.1966 2.32830   3
   4  -9  -7 40.5844 2.33577   4
  -4   9   7 39.0117 2.37720   1
  -4   9   7 42.2463 2.57255   6
   3  -9  -7 17.9228 1.52779   3
   3  -9  -7 15.6145 1.62870   4
  -3   9   7 15.7316 1.64818   6
  -3   9   7 16.6556 1.68095   1
   2  -9  -7 0.26602 0.57781   3
  -2   9   7 0.45677 0.63143   6
   1  -9  -7 114.003 4.10734   3
  -1   9   7 112.755 4.24105   6
   0  -9  -7 1.57510 0.62772   3
   0  -9  -7 0.95518 0.63355   5
   0   9   7 1.47924 0.67811   6
   0   9   7 1.73405 0.68010   2
  -1  -9  -7 9.75362 1.07167   3
  -1  -9  -7 12.8785 1.31153   5
   1   9   7 11.3514 1.22549   6
   1   9   7 14.1892 1.37931   2
  -2  -9  -7 5.40133 0.99755   5
  -2  -9  -7 6.99014 0.93218   3
   2   9   7 7.60284 1.03378   6
   2   9   7 6.27373 1.01994   2
  -3  -9  -7 44.6244 2.11569   3
  -3  -9  -7 45.7952 2.41822   5
   3   9   7 39.3283 2.09240   6
   3   9   7 38.0452 2.27045   2
  -4  -9  -7 26.3127 1.60371   3
  -4  -9  -7 24.9186 1.95473   5
   4   9   7 26.2609 1.71413   6
   4   9   7 22.7797 1.88108   2
  -5  -9  -7 0.15639 0.72852   5
  -5  -9  -7 0.57159 0.58495   3
   5   9   7 -0.3086 0.51755   6
   5   9   7 -1.1738 0.60895   2
  -6  -9  -7 80.1451 3.59575   5
   6   9   7 80.2489 3.67483   2
  -7  -9  -7 21.2079 1.94103   5
   7   9   7 23.4873 1.99413   2
  -8  -9  -7 76.4072 3.59346   5
   8   9   7 73.5036 3.58443   2
   4 -10  -7 49.2749 2.75463   3
  -4  10   7 54.4455 3.03374   6
   3 -10  -7 30.1108 2.05740   3
  -3  10   7 32.1239 2.22155   6
   2 -10  -7 3.36342 0.86361   3
  -2  10   7 3.85127 0.95326   6
   1 -10  -7 15.6701 1.41100   3
  -1  10   7 15.9593 1.50452   6
   0 -10  -7 8.20958 1.22652   3
   0 -10  -7 8.36395 1.15253   5
   0  10   7 8.57169 1.15153   2
   0  10   7 8.20746 1.12272   6
  -1 -10  -7 6.42097 1.04609   5
   1  10   7 7.75838 1.15895   2
  -2 -10  -7 8.21563 1.18263   5
   2  10   7 7.82017 1.18281   2
  -3 -10  -7 28.9595 2.09854   5
   3  10   7 29.5661 2.10179   2
  -4 -10  -7 6.83604 1.32362   5
   4  10   7 8.03639 1.28221   2
  -5 -10  -7 13.9332 1.68289   5
   5  10   7 15.3873 1.72199   2
  -6 -10  -7 39.2369 2.61694   5
   6  10   7 45.1081 2.70760   2
  -7 -10  -7 0.83347 0.92609   5
   7  10   7 -0.7449 0.81922   2
  -1 -11  -7 0.28279 0.71049   5
   1  11   7 0.73196 0.78524   2
  -2 -11  -7 8.47480 1.31189   5
   2  11   7 9.14661 1.32627   2
  -3 -11  -7 11.8484 1.50488   5
   3  11   7 12.3008 1.55101   2
  -4 -11  -7 0.75242 0.91448   5
   4  11   7 0.40961 0.94658   2
  -5 -11  -7 1.37056 0.93572   5
   5  11   7 0.89528 0.96960   2
  -1 -12  -7 -0.0009 0.68018   2
  -1 -12  -7 1.99122 0.91980   5
  -2 -12  -7 49.7088 2.94189   5
   4  10  -8 2.65247 0.93179   5
   4  10  -8 3.01503 1.54494   1
  -4 -10   8 3.57257 1.11548   2
   3  10  -8 271.197 9.09818   1
   3  10  -8 279.847 8.94431   5
  -3 -10   8 282.859 9.11318   2
  -3 -10   8 287.044 9.23378   4
   2  10  -8 0.45954 0.73614   1
   2  10  -8 0.22815 0.76886   5
  -2 -10   8 -0.1566 0.83209   4
  -2 -10   8 -0.0394 0.80602   2
   1  10  -8 57.2056 2.93285   5
  -1 -10   8 63.2296 3.24014   4
  -1 -10   8 63.9150 3.16944   2
   0  10  -8 145.960 5.20348   5
   0  10  -8 142.211 5.34865   1
   0 -10   8 143.489 5.35470   2
   0 -10   8 136.152 5.42319   4
  -1  10  -8 37.5190 2.23797   5
  -1  10  -8 36.5530 2.38036   1
   1 -10   8 40.5141 2.61301   4
   1 -10   8 37.1459 2.36175   2
  -2  10  -8 0.58017 0.82868   1
  -2  10  -8 0.85221 0.76043   5
   2 -10   8 0.67724 0.82670   2
   2 -10   8 1.02221 0.99050   4
  -3  10  -8 51.2930 3.15689   1
  -3  10  -8 51.3093 2.61359   5
   3 -10   8 55.2107 2.92398   2
   3 -10   8 48.9635 3.33718   4
   6   9  -8 56.2316 2.86431   5
  -6  -9   8 61.7251 3.02164   2
   5   9  -8 10.4494 1.49588   1
   5   9  -8 8.32340 1.21452   5
  -5  -9   8 9.23929 1.34715   2
  -5  -9   8 7.86324 1.44263   4
   4   9  -8 107.555 4.33142   1
   4   9  -8 102.541 4.09142   5
  -4  -9   8 105.985 4.36687   4
  -4  -9   8 97.9999 4.17503   2
   3   9  -8 7.04659 1.18760   1
   3   9  -8 7.08873 1.09134   5
  -3  -9   8 5.11193 1.16439   4
  -3  -9   8 4.80830 1.03236   2
   2   9  -8 14.4016 1.55597   1
   2   9  -8 13.3935 1.44223   5
  -2  -9   8 10.9714 1.34222   2
  -2  -9   8 16.0164 1.66574   4
   1   9  -8 21.1432 1.70062   5
  -1  -9   8 21.1569 1.81425   2
  -1  -9   8 17.2586 1.75161   4
   0   9  -8 311.170 9.59278   5
   0   9  -8 312.542 9.75797   1
   0  -9   8 320.111 9.90349   4
   0  -9   8 310.873 9.76689   2
  -1   9  -8 1.33459 0.73419   5
  -1   9  -8 0.60153 0.74979   1
   1  -9   8 1.56527 0.89733   4
   1  -9   8 2.43397 0.85862   2
  -2   9  -8 64.8355 2.94899   5
  -2   9  -8 71.5801 3.18718   1
   2  -9   8 67.2315 3.31973   4
   2  -9   8 66.8628 3.15502   2
  -3   9  -8 170.475 6.04228   1
  -3   9  -8 165.016 5.70233   5
   3  -9   8 168.339 5.97243   2
   3  -9   8 178.443 6.28866   4
  -4   9  -8 -0.0546 0.73948   1
   4  -9   8 0.64077 0.85458   4
  -5   9  -8 53.3330 3.01664   1
   5  -9   8 56.2953 3.21047   4
   6   8  -8 176.489 5.98410   5
   6   8  -8 177.091 6.38373   1
  -6  -8   8 170.534 6.03723   2
  -6  -8   8 179.341 6.38502   4
   5   8  -8 39.3625 2.41591   1
   5   8  -8 41.6914 2.24058   5
  -5  -8   8 38.9191 2.28338   2
  -5  -8   8 36.5021 2.38701   4
   4   8  -8 78.6692 3.42362   1
   4   8  -8 79.0886 3.26196   5
  -4  -8   8 72.4438 3.32881   2
  -4  -8   8 72.8858 3.39263   4
   3   8  -8 165.132 5.81184   1
   3   8  -8 172.908 5.69368   5
  -3  -8   8 168.169 5.88857   4
  -3  -8   8 164.172 5.77163   2
   2   8  -8 48.4803 2.52376   1
   2   8  -8 53.4736 2.48723   5
  -2  -8   8 51.3584 2.62658   4
  -2  -8   8 54.1093 2.64663   2
   1   8  -8 675.098 19.3018   1
   1   8  -8 672.073 19.1645   5
  -1  -8   8 690.493 19.3464   2
  -1  -8   8 688.053 19.4156   4
   0   8  -8 9.96541 1.11946   5
   0   8  -8 10.0460 1.24140   1
   0  -8   8 9.01957 1.28192   4
   0  -8   8 7.88541 1.13663   2
  -1   8  -8 20.3331 1.59489   1
  -1   8  -8 18.4242 1.50102   5
   1  -8   8 18.2878 1.59126   2
   1  -8   8 18.9280 1.66505   4
  -2   8  -8 40.5893 2.13470   5
  -2   8  -8 39.0718 2.20264   1
   2  -8   8 41.2364 2.28348   2
   2  -8   8 40.7403 2.37421   4
  -3   8  -8 25.7820 1.85977   1
  -3   8  -8 24.0222 1.64353   5
   3  -8   8 27.5312 2.02627   4
   3  -8   8 24.7619 1.86806   2
  -4   8  -8 0.30728 0.56828   5
  -4   8  -8 -0.0355 0.61384   1
   4  -8   8 0.48428 0.78131   4
   4  -8   8 0.31093 0.67836   2
  -5   8  -8 42.3074 2.49174   1
   5  -8   8 47.2567 2.74778   4
  -6   8  -8 -0.3739 0.73746   1
   6  -8   8 -0.5596 0.80111   4
   7   7  -8 55.8746 3.12608   1
  -7  -7   8 61.0953 3.15480   4
   6   7  -8 0.47794 0.59733   5
   6   7  -8 3.03891 0.95574   1
  -6  -7   8 1.66257 0.77101   2
  -6  -7   8 1.05153 0.80923   4
   5   7  -8 40.6592 2.13380   5
   5   7  -8 41.4907 2.34892   1
  -5  -7   8 37.8009 2.30435   4
  -5  -7   8 37.3933 2.16287   2
   4   7  -8 42.0441 2.14570   5
   4   7  -8 43.8309 2.33854   1
  -4  -7   8 43.4030 2.38501   4
  -4  -7   8 41.4896 2.24343   2
   3   7  -8 6.04582 1.01981   1
   3   7  -8 5.17305 0.88089   5
  -3  -7   8 6.23642 0.99583   2
  -3  -7   8 6.02341 1.01596   4
   2   7  -8 77.4267 3.05740   5
   2   7  -8 75.6541 3.13868   1
  -2  -7   8 74.1103 3.19050   4
  -2  -7   8 76.7096 3.18560   2
   1   7  -8 32.6573 1.90149   5
  -1  -7   8 34.6613 2.02508   4
  -1  -7   8 36.5223 2.05570   2
   0   7  -8 1.56941 0.69487   5
   0   7  -8 1.87145 0.65490   1
   0  -7   8 1.18360 0.62374   2
   0  -7   8 1.39818 0.63134   4
  -1   7  -8 12.1251 1.19536   1
  -1   7  -8 8.32650 1.02423   5
   1  -7   8 7.26874 1.00970   2
   1  -7   8 7.69653 1.10638   4
  -2   7  -8 353.113 10.4690   1
  -2   7  -8 348.385 10.3555   5
   2  -7   8 344.738 10.5664   4
   2  -7   8 362.131 10.5553   2
  -3   7  -8 0.27924 0.54764   5
  -3   7  -8 0.58332 0.62480   1
   3  -7   8 1.35578 0.71781   2
   3  -7   8 0.47194 0.69086   4
  -4   7  -8 30.3761 1.90472   1
  -4   7  -8 27.2729 1.66952   5
   4  -7   8 29.1384 2.00824   4
   4  -7   8 31.3235 1.95960   2
  -5   7  -8 105.129 4.11559   1
   5  -7   8 104.193 4.24415   4
  -6   7  -8 2.76867 0.93341   1
   6  -7   8 1.33650 0.92387   4
  -7   7  -8 69.0315 3.37382   1
   7  -7   8 75.4069 3.62362   4
   8   6  -8 13.9001 2.13062   1
   7   6  -8 2.88432 0.95618   1
  -7  -6   8 2.44490 0.85338   4
   6   6  -8 31.9989 2.11309   1
   6   6  -8 31.8329 1.79139   5
  -6  -6   8 30.3238 2.07334   4
  -6  -6   8 31.8715 1.91646   2
   5   6  -8 18.2833 1.56343   1
   5   6  -8 16.7580 1.33805   5
  -5  -6   8 16.5930 1.43553   2
  -5  -6   8 18.3907 1.56880   4
   4   6  -8 73.4117 2.96683   5
   4   6  -8 74.5216 3.17124   1
  -4  -6   8 79.2109 3.13406   2
  -4  -6   8 78.8720 3.25634   4
   3   6  -8 38.4481 1.99076   1
   3   6  -8 33.0345 1.81498   5
  -3  -6   8 33.5920 1.91360   2
  -3  -6   8 36.6873 1.96270   4
   2   6  -8 88.7325 3.34424   1
   2   6  -8 87.9389 3.25959   5
  -2  -6   8 83.3692 3.32477   4
  -2  -6   8 82.1163 3.31168   2
   1   6  -8 131.792 4.58549   5
  -1  -6   8 140.581 4.73658   4
  -1  -6   8 138.280 4.71340   2
   0   6  -8 72.2293 2.84806   1
   0   6  -8 72.6713 2.86749   5
   0  -6   8 70.0317 2.91288   2
   0  -6   8 71.7649 2.93202   4
  -1   6  -8 231.475 7.23267   1
  -1   6  -8 237.874 7.26536   5
   1  -6   8 241.048 7.39506   4
   1  -6   8 239.163 7.36256   2
  -2   6  -8 -0.6920 0.44970   5
  -2   6  -8 -0.1839 0.44058   1
   2  -6   8 0.06599 0.51642   4
   2  -6   8 0.14454 0.52019   2
  -3   6  -8 5.27071 0.81623   5
  -3   6  -8 6.79404 0.94178   1
   3  -6   8 7.52205 1.03047   2
   3  -6   8 7.02674 0.99326   4
  -4   6  -8 50.6192 2.38893   1
  -4   6  -8 49.1422 2.22742   5
   4  -6   8 49.4743 2.39962   2
   4  -6   8 56.7486 2.60228   4
  -5   6  -8 11.8748 1.30313   1
  -5   6  -8 10.4774 1.06062   5
   5  -6   8 13.2690 1.45276   4
   5  -6   8 12.5231 1.27756   2
  -6   6  -8 34.9576 2.09526   1
   6  -6   8 35.1350 2.22640   4
  -7   6  -8 50.1128 2.64688   1
   7  -6   8 52.7780 2.82002   4
  -8   6  -8 36.8614 2.39936   1
   8  -6   8 30.2576 2.28568   4
   7   5  -8 9.74144 1.33584   1
   6   5  -8 1.69331 0.79725   1
  -6  -5   8 0.88327 0.68099   4
   5   5  -8 4.56814 0.75931   5
   5   5  -8 5.37364 0.96517   1
  -5  -5   8 3.53724 0.84414   4
  -5  -5   8 3.63131 0.77062   2
   4   5  -8 19.7602 1.31646   5
   4   5  -8 22.4729 1.51859   1
  -4  -5   8 19.2443 1.38660   2
  -4  -5   8 20.1686 1.46988   4
   3   5  -8 3.85654 0.66656   5
   3   5  -8 2.81257 0.66192   1
  -3  -5   8 3.09366 0.70211   2
  -3  -5   8 2.93356 0.73456   4
   2   5  -8 53.3173 2.27354   5
   2   5  -8 51.5308 2.27937   1
  -2  -5   8 55.4516 2.37239   4
  -2  -5   8 50.9033 2.30598   2
   1   5  -8 16.8729 1.24497   5
   1   5  -8 17.3527 1.20273   1
  -1  -5   8 17.8961 1.30442   2
  -1  -5   8 17.1758 1.27144   4
   0   5  -8 24.3085 1.46348   5
   0   5  -8 25.6983 1.42956   1
   0  -5   8 26.3400 1.55218   2
   0  -5   8 24.5702 1.49349   4
  -1   5  -8 20.0693 1.27979   1
  -1   5  -8 20.9218 1.37493   5
   1  -5   8 25.7705 1.47850   4
   1  -5   8 22.1758 1.45944   2
  -2   5  -8 42.5184 1.92207   1
  -2   5  -8 40.3363 1.90880   5
   2  -5   8 42.8678 2.06273   2
   2  -5   8 43.0421 2.01448   4
  -3   5  -8 4.94536 0.75491   5
  -3   5  -8 4.03424 0.69843   1
   3  -5   8 5.36454 0.82264   4
   3  -5   8 5.59591 0.81129   2
  -4   5  -8 273.019 8.20520   1
  -4   5  -8 269.121 8.11135   5
   4  -5   8 269.722 8.29181   2
   4  -5   8 283.517 8.38007   4
  -5   5  -8 0.59244 0.47627   5
  -5   5  -8 -0.1103 0.52855   1
   5  -5   8 0.71280 0.60860   4
   5  -5   8 -0.2575 0.51017   2
  -6   5  -8 71.0714 2.99948   1
   6  -5   8 73.2871 3.15338   4
  -7   5  -8 46.5419 2.43238   1
   7  -5   8 44.0394 2.42580   4
  -8   5  -8 12.8078 1.47573   1
   8  -5   8 11.4148 1.43495   4
   8   4  -8 0.39946 0.72103   4
  -8  -4   8 0.50794 0.87970   1
   7   4  -8 6.11756 1.10129   4
   7   4  -8 6.17560 1.10105   1
   6   4  -8 0.63319 0.63269   1
   6   4  -8 1.04637 0.66296   4
   5   4  -8 0.48352 0.56525   1
   5   4  -8 0.05302 0.38990   5
  -5  -4   8 -0.0995 0.44452   2
   4   4  -8 17.2537 1.33432   1
   4   4  -8 16.8313 1.16769   5
  -4  -4   8 17.1668 1.34290   4
  -4  -4   8 17.6812 1.27037   2
   3   4  -8 187.065 5.96936   1
   3   4  -8 190.319 5.84304   5
  -3  -4   8 195.758 5.93243   2
  -3  -4   8 187.285 5.97376   4
   2   4  -8 38.3908 1.80307   1
   2   4  -8 39.3253 1.79137   5
  -2  -4   8 38.6972 1.83749   4
  -2  -4   8 38.5717 1.83127   2
   1   4  -8 88.0457 3.06583   5
   1   4  -8 84.3579 3.00132   1
  -1  -4   8 84.4073 3.04829   4
  -1  -4   8 81.8820 3.07779   2
   0   4  -8 0.57365 0.38970   5
   0   4  -8 0.73094 0.42317   1
   0  -4   8 0.47468 0.42577   2
   0  -4   8 0.72387 0.43859   4
  -1   4  -8 0.78796 0.39463   1
  -1   4  -8 0.73951 0.44317   5
   1  -4   8 0.84068 0.48549   2
   1  -4   8 0.61504 0.43843   4
  -2   4  -8 38.8045 1.73024   1
  -2   4  -8 38.5295 1.81811   5
  -2   4  -8 42.1892 1.51598   3
   2  -4   8 39.4156 1.81785   4
   2  -4   8 38.4453 1.85474   2
   2  -4   8 39.5967 1.51558   6
  -3   4  -8 9.23844 0.74504   3
  -3   4  -8 8.55223 0.88784   5
  -3   4  -8 10.0167 0.91928   1
   3  -4   8 8.35599 0.91584   4
   3  -4   8 10.0734 1.05416   2
   3  -4   8 8.23904 0.76345   6
  -4   4  -8 161.161 5.10976   1
  -4   4  -8 159.747 4.92248   3
  -4   4  -8 164.375 5.13402   5
   4  -4   8 157.886 4.98779   6
   4  -4   8 168.468 5.26225   4
   4  -4   8 162.322 5.26219   2
  -5   4  -8 194.212 6.06195   5
  -5   4  -8 200.043 6.16690   1
   5  -4   8 201.442 6.11757   6
   5  -4   8 197.838 6.24229   2
   5  -4   8 195.582 6.27903   4
   5  -4   8 201.428 6.01675   3
  -6   4  -8 3.27208 0.74411   1
  -6   4  -8 2.97552 0.76810   6
  -6   4  -8 3.59805 0.66376   5
   6  -4   8 1.69836 0.66442   4
   6  -4   8 2.50296 0.61689   3
   6  -4   8 2.12637 0.67157   2
  -7   4  -8 5.90949 0.96374   1
  -7   4  -8 5.68447 0.96187   6
   7  -4   8 5.92422 0.97685   4
   7  -4   8 5.99588 0.87969   3
  -8   4  -8 0.47628 0.67600   6
  -8   4  -8 1.27159 1.14182   1
   8  -4   8 0.38196 0.58973   3
  -9   4  -8 4.84838 1.12625   6
   9  -4   8 5.03339 1.02501   3
   8   3  -8 104.507 4.28465   4
  -8  -3   8 105.577 4.44173   1
   7   3  -8 7.29610 1.10447   4
  -7  -3   8 7.30325 1.21697   1
   6   3  -8 0.72553 0.63088   4
   6   3  -8 1.58501 0.67860   1
   5   3  -8 49.0274 2.33978   4
   5   3  -8 52.3275 2.06731   5
   5   3  -8 49.0271 2.38921   1
  -5  -3   8 54.4457 2.16520   2
   4   3  -8 67.9119 2.76551   1
   4   3  -8 66.3970 2.70300   4
   4   3  -8 72.5635 2.46111   3
   4   3  -8 70.7815 2.55343   5
  -4  -3   8 63.8107 2.54299   2
  -4  -3   8 69.6945 2.64535   6
   3   3  -8 1.26439 0.44370   5
   3   3  -8 1.25524 0.49389   1
  -3  -3   8 1.43728 0.49730   2
   2   3  -8 28.1449 1.13554   3
   2   3  -8 27.2606 1.39821   5
   2   3  -8 26.9336 1.39725   1
  -2  -3   8 27.9786 1.45020   2
  -2  -3   8 28.4284 1.17097   6
  -2  -3   8 26.3977 1.40548   4
   1   3  -8 0.10763 0.32268   5
   1   3  -8 1.13251 0.26811   3
   1   3  -8 0.55983 0.36065   1
  -1  -3   8 0.00110 0.35625   2
  -1  -3   8 0.19669 0.35294   4
  -1  -3   8 0.07194 0.21793   6
   0   3  -8 45.7430 1.61009   3
   0   3  -8 49.1477 1.97530   5
   0  -3   8 46.8631 1.98830   2
   0  -3   8 44.9197 1.60561   6
   0  -3   8 45.8561 1.86646   4
  -1   3  -8 4.44886 0.47581   3
  -1   3  -8 3.46491 0.50060   1
  -1   3  -8 3.11306 0.58066   5
   1  -3   8 3.87090 0.64839   2
   1  -3   8 4.22122 0.45928   6
   1  -3   8 3.02762 0.53626   4
  -2   3  -8 208.172 5.91781   1
  -2   3  -8 189.165 6.02679   5
  -2   3  -8 204.019 5.76561   3
   2  -3   8 202.451 6.15773   2
   2  -3   8 198.480 5.97481   4
   2  -3   8 198.853 5.79023   6
  -3   3  -8 79.6704 2.70762   1
  -3   3  -8 78.8037 2.61513   3
  -3   3  -8 77.7427 2.83364   5
   3  -3   8 78.2439 2.67786   6
   3  -3   8 76.0112 2.76301   4
   3  -3   8 77.1895 2.90508   2
  -4   3  -8 19.2937 1.12697   3
  -4   3  -8 19.6183 1.13880   1
  -4   3  -8 18.8290 1.21333   5
   4  -3   8 18.3205 1.17419   6
   4  -3   8 20.5693 1.23488   4
   4  -3   8 19.2182 1.32387   2
  -5   3  -8 19.3714 1.22116   1
  -5   3  -8 19.7151 1.23761   5
   5  -3   8 19.5985 1.26866   6
   5  -3   8 19.3947 1.34227   2
   5  -3   8 21.2152 1.31802   4
   5  -3   8 19.0343 1.19204   3
  -6   3  -8 22.5128 1.35140   5
  -6   3  -8 22.7862 1.39638   1
   6  -3   8 21.3393 1.41856   2
   6  -3   8 19.2899 1.42742   6
   6  -3   8 21.2687 1.37275   3
   6  -3   8 25.0721 1.48799   4
  -7   3  -8 10.8999 1.12689   1
   7  -3   8 8.24951 0.98565   3
   7  -3   8 8.90963 1.05358   4
  -8   3  -8 6.55217 1.13848   6
   8  -3   8 7.94227 1.10509   3
  -9   3  -8 21.7793 1.88890   6
   9  -3   8 20.7416 1.70220   3
   9   2  -8 23.3009 2.93437   4
  -9  -2   8 17.8772 2.16217   1
   8   2  -8 5.27145 1.11009   4
   8   2  -8 3.55721 0.84617   3
  -8  -2   8 4.22711 1.13282   1
   7   2  -8 26.3145 1.89866   4
   7   2  -8 29.1824 1.74150   3
  -7  -2   8 26.0264 1.99452   1
  -7  -2   8 26.2338 1.73353   6
   6   2  -8 221.328 6.87951   3
   6   2  -8 229.025 7.21235   4
  -6  -2   8 227.090 6.90776   6
  -6  -2   8 221.775 7.24800   1
   5   2  -8 92.9744 3.51760   1
   5   2  -8 91.5561 3.25039   3
   5   2  -8 93.4612 3.49090   4
  -5  -2   8 92.2187 3.26456   6
   4   2  -8 24.1304 1.46094   4
   4   2  -8 26.0284 1.29414   5
   4   2  -8 24.4761 1.48491   1
   4   2  -8 26.3042 1.32736   3
  -4  -2   8 26.9201 1.36031   2
  -4  -2   8 27.2412 1.35546   6
   3   2  -8 0.34938 0.32680   5
   3   2  -8 0.19180 0.38395   4
   3   2  -8 0.05943 0.34161   1
   3   2  -8 -0.2804 0.25790   3
  -3  -2   8 0.63304 0.39655   2
  -3  -2   8 0.43286 0.35373   6
   2   2  -8 40.7018 1.52864   3
   2   2  -8 38.7066 1.66339   5
   2   2  -8 41.0826 1.71150   1
  -2  -2   8 41.3208 1.58089   6
  -2  -2   8 37.5685 1.69612   2
   1   2  -8 2.75896 0.47277   1
   1   2  -8 2.27926 0.45669   5
   1   2  -8 3.83786 0.45228   3
  -1  -2   8 2.86119 0.49138   4
  -1  -2   8 6.02611 0.72182   2
  -1  -2   8 3.24144 0.44603   6
   0   2  -8 358.704 9.98776   1
   0   2  -8 366.362 10.1688   5
   0  -2   8 350.557 10.1902   2
   0  -2   8 361.801 9.90829   6
   0  -2   8 354.753 10.0192   4
  -1   2  -8 277.314 8.00450   5
  -1   2  -8 283.506 7.76433   3
  -1   2  -8 284.645 7.78612   1
   1  -2   8 269.788 8.05009   2
   1  -2   8 270.012 7.83201   4
   1  -2   8 269.837 7.74579   6
  -2   2  -8 423.612 11.2424   1
  -2   2  -8 403.704 11.4795   5
  -2   2  -8 415.932 11.2637   3
   2  -2   8 398.773 11.2894   4
   2  -2   8 394.376 11.2706   6
   2  -2   8 412.121 11.5754   2
  -3   2  -8 27.4500 1.42544   5
  -3   2  -8 29.4694 1.27242   1
  -3   2  -8 30.1382 1.32988   3
   3  -2   8 30.6717 1.55858   2
   3  -2   8 29.2745 1.36356   6
   3  -2   8 27.2551 1.29440   4
  -4   2  -8 202.328 6.07312   5
  -4   2  -8 202.665 5.87121   1
  -4   2  -8 196.773 5.95216   3
   4  -2   8 202.357 5.94772   4
   4  -2   8 199.903 6.05289   6
   4  -2   8 200.119 6.16316   2
  -5   2  -8 152.997 4.82899   5
  -5   2  -8 154.678 4.70451   1
   5  -2   8 157.094 4.79610   4
   5  -2   8 150.256 4.93072   2
   5  -2   8 149.897 4.91149   6
  -6   2  -8 25.5257 1.35435   1
  -6   2  -8 21.7893 1.32509   5
   6  -2   8 23.0871 1.50443   6
   6  -2   8 24.2529 1.46852   2
   6  -2   8 21.6811 1.31398   4
   6  -2   8 21.2064 1.37493   3
   7  -2   8 64.7313 2.67172   3
   7  -2   8 61.3696 2.76760   6
   8  -2   8 -0.1978 0.55715   3
  -9   2  -8 5.22550 1.19429   6
   9  -2   8 4.97530 1.01697   3
 -10   2  -8 13.6133 1.73329   6
  10  -2   8 11.0365 1.44172   3
   9   1  -8 1.39495 0.77219   3
   9   1  -8 1.22289 1.06537   4
  -9  -1   8 2.83735 1.20491   1
  -9  -1   8 0.65534 0.83497   6
   8   1  -8 86.1105 3.78752   4
   8   1  -8 86.7609 3.60929   3
  -8  -1   8 88.3400 3.59033   6
  -8  -1   8 88.8202 3.94532   1
   7   1  -8 76.5168 3.15711   3
   7   1  -8 75.5123 3.33643   4
  -7  -1   8 77.0043 3.43263   1
  -7  -1   8 75.2543 3.16742   6
   6   1  -8 343.836 10.3951   3
   6   1  -8 370.851 10.6719   4
  -6  -1   8 352.344 10.6769   1
  -6  -1   8 356.342 10.4348   6
   5   1  -8 157.713 4.95192   3
   5   1  -8 145.020 5.02808   4
  -5  -1   8 153.879 5.14169   1
  -5  -1   8 153.689 4.94773   6
   4   1  -8 0.45826 0.39616   3
   4   1  -8 3.59214 0.68716   4
   4   1  -8 0.63528 0.43017   1
   4   1  -8 0.56323 0.30872   5
  -4  -1   8 0.55076 0.35484   2
  -4  -1   8 1.34258 0.50663   6
   3   1  -8 173.463 5.39865   4
   3   1  -8 174.623 5.40842   1
   3   1  -8 179.484 5.30591   3
   3   1  -8 178.013 5.24026   5
  -3  -1   8 177.090 5.28388   2
  -3  -1   8 174.614 5.33139   6
   2   1  -8 4.43654 0.56657   1
   2   1  -8 4.22621 0.55903   4
   2   1  -8 3.91288 0.53346   5
   2   1  -8 4.06869 0.53116   3
  -2  -1   8 4.26139 0.58328   2
  -2  -1   8 4.64574 0.57539   6
   1   1  -8 1322.32 34.4245   5
   1   1  -8 1280.99 34.2760   3
   1   1  -8 1253.16 34.2755   1
  -1  -1   8 1280.62 34.4457   2
  -1  -1   8 1287.45 34.3009   6
   0   1  -8 23.7114 1.03760   1
   0   1  -8 21.4315 1.14499   5
   0  -1   8 20.4972 1.20195   2
   0  -1   8 24.5292 1.11330   6
   0  -1   8 24.0668 1.07011   4
  -1   1  -8 396.313 10.4541   1
  -1   1  -8 386.014 10.5881   3
  -1   1  -8 368.632 10.7166   5
   1  -1   8 375.080 10.8001   2
   1  -1   8 382.602 10.6041   6
  -2   1  -8 256.067 7.29942   3
  -2   1  -8 269.383 7.13488   1
  -2   1  -8 245.434 7.43124   5
   2  -1   8 248.942 7.33521   6
   2  -1   8 260.774 7.17757   4
   2  -1   8 254.506 7.53358   2
  -3   1  -8 1.71404 0.40457   3
  -3   1  -8 2.21360 0.36048   1
  -3   1  -8 2.28691 0.48998   5
   3  -1   8 1.87686 0.46014   6
   3  -1   8 2.80227 0.41305   4
   3  -1   8 1.50895 0.50889   2
  -4   1  -8 19.0835 1.14764   5
  -4   1  -8 21.4668 0.97934   1
  -4   1  -8 19.1858 1.13054   3
   4  -1   8 19.0950 1.24288   2
   4  -1   8 20.5866 0.99545   4
   4  -1   8 18.4752 1.17493   6
  -5   1  -8 292.694 8.56108   3
  -5   1  -8 304.399 8.57462   5
  -5   1  -8 299.575 8.29070   1
   5  -1   8 294.970 8.66646   2
   5  -1   8 278.741 8.63373   6
  -6   1  -8 1.95483 0.54168   5
   6  -1   8 1.28540 0.57832   6
   6  -1   8 3.32219 0.65617   2
   6  -1   8 1.50141 0.56479   3
  -7   1  -8 3.69077 0.65646   5
   7  -1   8 3.63702 0.74805   3
   7  -1   8 5.14286 0.79415   2
   7  -1   8 3.13198 0.72929   6
   8  -1   8 18.2994 1.48634   3
   8  -1   8 16.3822 1.56853   6
   9  -1   8 2.30231 0.79089   3
 -10   1  -8 88.7433 4.04257   6
  10  -1   8 83.8282 3.71835   3
   9   0  -8 177.999 6.20868   3
   9   0  -8 175.671 8.35738   4
  -9   0   8 176.876 6.18964   6
  -9   0   8 166.033 7.09434   1
   8   0  -8 -0.3879 0.64198   3
   8   0  -8 -0.6015 0.71378   4
  -8   0   8 -0.7443 0.68186   6
  -8   0   8 -0.2603 0.81230   1
   7   0  -8 463.729 13.9987   3
   7   0  -8 496.984 14.2021   4
  -7   0   8 476.197 14.2398   1
  -7   0   8 497.260 14.0551   6
   6   0  -8 30.2987 1.76375   3
   6   0  -8 26.7236 1.72266   4
  -6   0   8 31.0903 1.83762   6
  -6   0   8 29.2309 1.87553   1
   5   0  -8 87.2957 3.33567   3
   5   0  -8 93.7050 3.45087   4
  -5   0   8 92.3816 3.40242   6
  -5   0   8 96.4521 3.51034   1
   4   0  -8 180.425 5.69216   3
   4   0  -8 184.178 5.74611   4
   4   0  -8 194.279 5.41685   5
  -4   0   8 170.054 5.72125   1
  -4   0   8 196.423 5.66372   2
  -4   0   8 183.285 5.73301   6
   3   0  -8 227.513 6.70660   3
   3   0  -8 222.004 6.70034   4
   3   0  -8 227.368 6.51544   5
  -3   0   8 217.289 6.70945   6
  -3   0   8 239.788 6.59890   2
   2   0  -8 126.801 3.90355   3
   2   0  -8 117.896 3.83432   4
   2   0  -8 125.524 3.84127   5
   2   0  -8 124.857 3.88370   1
  -2   0   8 124.858 3.88575   2
  -2   0   8 123.038 3.93847   6
   1   0  -8 25.1324 1.09848   4
   1   0  -8 24.3611 1.19600   3
   1   0  -8 23.5886 1.17131   5
   1   0  -8 26.6724 1.13577   1
  -1   0   8 24.1348 1.21673   6
  -1   0   8 22.6146 1.21528   2
   0   0  -8 171.774 4.79799   1
   0   0  -8 167.938 5.04857   5
   0   0   8 167.958 5.10093   2
   0   0   8 161.143 4.99193   6
  -1   0  -8 67.7237 2.43237   5
  -1   0  -8 66.9460 2.34466   3
  -1   0  -8 64.8663 2.06052   1
   1   0   8 64.6719 2.47230   2
   1   0   8 68.9191 2.37872   6
   1   0   8 70.7996 2.12741   4
  -2   0  -8 1662.98 44.3235   3
  -2   0  -8 1751.27 43.9768   1
  -2   0  -8 1619.86 44.4207   5
   2   0   8 1721.20 44.0150   4
   2   0   8 1605.47 44.3573   6
   2   0   8 1626.58 44.5097   2
  -3   0  -8 18.9461 1.07477   3
  -3   0  -8 19.6251 0.78001   1
  -3   0  -8 18.1127 1.12878   5
   3   0   8 17.9656 1.07415   6
   3   0   8 19.1406 0.80407   4
   3   0   8 20.0321 1.17835   2
  -4   0  -8 563.822 14.5179   1
  -4   0  -8 534.921 14.8981   3
  -4   0  -8 531.881 14.9641   5
   4   0   8 534.364 15.0613   2
   4   0   8 518.881 14.9769   6
   4   0   8 550.796 14.5512   4
  -5   0  -8 238.195 6.94956   5
  -5   0  -8 229.185 6.92696   3
   5   0   8 230.467 7.03461   6
   5   0   8 229.706 7.00894   2
  -6   0  -8 56.4703 2.27116   5
  -6   0  -8 53.1153 2.35627   3
   6   0   8 56.4765 2.34527   2
   6   0   8 54.9844 2.45584   6
  -7   0  -8 275.291 7.98295   5
   7   0   8 254.076 8.24673   6
   7   0   8 273.232 8.18345   3
   7   0   8 271.532 8.09622   2
   8   0   8 4.55397 0.88687   3
   8   0   8 5.05357 1.00261   6
   9   0   8 4.46807 0.98424   3
   9   0   8 5.30941 1.06962   6
 -10   0  -8 0.67347 0.89016   6
  10   0   8 1.05592 0.79295   3
   9  -1  -8 30.3876 2.45495   3
  -9   1   8 33.5567 2.56546   6
   8  -1  -8 131.316 5.00765   3
   8  -1  -8 133.215 5.07600   4
  -8   1   8 135.103 5.01229   6
  -8   1   8 132.048 5.17621   1
   7  -1  -8 10.4790 1.29975   3
   7  -1  -8 16.1453 1.57261   4
  -7   1   8 10.2161 1.34939   1
  -7   1   8 10.6432 1.32081   6
   6  -1  -8 0.70582 0.60661   4
   6  -1  -8 -0.6963 0.45501   3
  -6   1   8 0.34332 0.60300   1
  -6   1   8 -0.2666 0.58377   6
   5  -1  -8 104.832 3.84465   4
   5  -1  -8 106.479 3.85589   3
  -5   1   8 107.318 3.89273   1
  -5   1   8 107.579 3.86775   6
   4  -1  -8 442.348 12.5468   3
   4  -1  -8 439.628 12.5181   4
  -4   1   8 432.061 12.5133   1
  -4   1   8 450.054 12.5840   6
   3  -1  -8 5.77956 0.69383   4
   3  -1  -8 6.22933 0.73253   3
  -3   1   8 8.66376 0.90432   6
  -3   1   8 7.41830 0.69000   2
  -3   1   8 5.59633 0.71781   1
   2  -1  -8 1075.58 29.3490   3
   2  -1  -8 1110.44 29.2057   5
   2  -1  -8 1027.01 29.1947   4
  -2   1   8 1078.06 29.2529   1
  -2   1   8 1123.48 29.2568   2
  -2   1   8 1126.85 29.4514   6
   1  -1  -8 665.615 18.0548   5
   1  -1  -8 668.356 17.9039   4
   1  -1  -8 667.610 18.1329   3
  -1   1   8 666.851 17.9356   1
  -1   1   8 663.500 18.0962   2
  -1   1   8 653.027 18.1728   6
   0  -1  -8 36.0847 1.60486   3
   0  -1  -8 38.6785 1.60853   5
   0  -1  -8 42.4242 1.37357   4
   0   1   8 39.1448 1.66749   6
   0   1   8 36.3179 1.63562   2
  -1  -1  -8 1352.79 36.8024   3
  -1  -1  -8 1323.81 36.8285   5
  -1  -1  -8 1451.59 36.3860   1
   1   1   8 1333.55 36.8971   2
   1   1   8 1428.86 36.4022   4
   1   1   8 1367.77 36.8377   6
  -2  -1  -8 39.5455 1.73317   5
  -2  -1  -8 39.1676 1.67326   3
  -2  -1  -8 43.8520 1.21515   1
   2   1   8 41.7675 1.22470   4
   2   1   8 39.3946 1.71800   6
   2   1   8 38.4300 1.75308   2
  -3  -1  -8 30.6122 1.50383   5
  -3  -1  -8 31.9616 1.45520   3
   3   1   8 31.3352 1.48764   6
   3   1   8 31.2748 1.56576   2
  -4  -1  -8 35.1951 1.70534   5
  -4  -1  -8 38.6194 1.70307   3
   4   1   8 37.1923 1.78495   2
  -5  -1  -8 110.454 3.69830   3
  -5  -1  -8 109.869 3.69881   5
   5   1   8 100.211 3.68825   2
   5   1   8 112.541 3.82497   6
  -6  -1  -8 104.664 3.63499   5
   6   1   8 107.175 3.85454   6
   6   1   8 102.963 3.71056   2
  -7  -1  -8 316.108 9.19145   5
  -7  -1  -8 314.584 9.38524   3
   7   1   8 316.975 9.29468   2
   7   1   8 304.421 9.47822   6
   8   1   8 14.6642 1.63218   2
   8   1   8 17.8199 1.58255   6
   9   1   8 12.1332 1.52556   6
  10   1   8 232.072 7.88256   6
  10   1   8 232.411 7.69544   3
   8  -2  -8 34.4550 2.34817   4
   8  -2  -8 32.2340 2.27160   3
  -8   2   8 32.9323 2.37146   1
  -8   2   8 30.9161 2.28431   6
   7  -2  -8 259.611 8.40349   4
   7  -2  -8 262.328 8.42060   3
  -7   2   8 274.950 8.46574   6
  -7   2   8 256.041 8.44687   1
   6  -2  -8 54.8661 2.64460   3
   6  -2  -8 58.6831 2.63862   4
  -6   2   8 55.3830 2.70074   1
  -6   2   8 51.6599 2.56605   6
   5  -2  -8 189.451 6.03734   4
   5  -2  -8 193.709 6.12771   3
  -5   2   8 185.939 6.05988   1
  -5   2   8 181.723 6.06718   6
   4  -2  -8 6.58157 0.85737   4
   4  -2  -8 6.79248 0.91015   3
  -4   2   8 5.56943 0.82371   1
  -4   2   8 5.07568 0.84107   6
   3  -2  -8 29.2985 1.54640   3
   3  -2  -8 29.6548 1.25908   5
   3  -2  -8 29.2041 1.46202   4
  -3   2   8 28.7925 1.56711   6
  -3   2   8 28.1142 1.47634   1
  -3   2   8 31.3503 1.33933   2
   2  -2  -8 845.372 22.8115   4
   2  -2  -8 797.693 22.9495   3
   2  -2  -8 847.632 22.7567   5
  -2   2   8 872.186 22.8401   2
  -2   2   8 878.194 22.8547   1
  -2   2   8 827.484 23.0614   6
   1  -2  -8 6.64372 0.72688   3
   1  -2  -8 8.28441 0.71980   5
   1  -2  -8 10.0252 0.64456   4
  -1   2   8 9.22377 0.78190   2
  -1   2   8 8.89553 0.88848   6
  -1   2   8 9.10002 0.66561   1
   0  -2  -8 388.014 11.3798   3
   0  -2  -8 398.439 11.3506   5
   0  -2  -8 419.768 11.0016   4
   0   2   8 426.443 11.0445   1
   0   2   8 405.801 11.4553   6
   0   2   8 400.273 11.4101   2
  -1  -2  -8 597.807 17.0867   3
  -1  -2  -8 619.863 17.1257   5
   1   2   8 608.151 17.1500   6
   1   2   8 596.067 17.1535   2
   1   2   8 671.483 16.5864   1
   1   2   8 648.232 16.5687   4
  -2  -2  -8 154.517 4.69137   3
   2   2   8 147.909 4.71558   6
   2   2   8 150.908 4.78644   2
  -3  -2  -8 1.21101 0.39738   3
  -3  -2  -8 1.45874 0.48777   5
   3   2   8 1.79985 0.48580   6
   3   2   8 0.82928 0.41563   2
  -4  -2  -8 2041.65 55.5430   5
  -4  -2  -8 2128.27 55.5126   3
   4   2   8 2089.48 55.6410   2
   4   2   8 2072.98 55.5971   6
  -5  -2  -8 4.97852 0.72783   5
  -5  -2  -8 5.46024 0.70858   3
   5   2   8 4.71909 0.71906   6
   5   2   8 7.39020 0.90227   2
  -6  -2  -8 498.362 14.0106   5
  -6  -2  -8 496.550 14.0509   3
   6   2   8 503.875 14.1110   2
   6   2   8 487.224 14.1580   6
  -7  -2  -8 62.4216 2.58623   5
  -7  -2  -8 65.9848 2.75328   3
   7   2   8 63.2829 2.70741   2
   7   2   8 61.4813 2.77784   6
  -8  -2  -8 40.7946 2.04225   5
  -8  -2  -8 41.7029 2.24559   3
   8   2   8 43.3267 2.16668   2
   8   2   8 41.2190 2.28412   6
  -9  -2  -8 380.577 11.2944   3
   9   2   8 361.877 11.3774   6
 -10  -2  -8 15.0575 1.64438   3
  10   2   8 12.7266 1.69711   6
   8  -3  -8 138.612 5.38684   3
   8  -3  -8 133.973 5.24810   4
  -8   3   8 140.461 5.39541   1
  -8   3   8 143.800 5.42051   6
   7  -3  -8 9.09954 1.29267   4
   7  -3  -8 7.78511 1.24483   3
  -7   3   8 9.33671 1.30397   1
  -7   3   8 10.3863 1.47719   6
   6  -3  -8 45.3957 2.35091   4
   6  -3  -8 42.4794 2.34722   3
  -6   3   8 41.8578 2.33332   1
  -6   3   8 42.8999 2.33428   6
   5  -3  -8 28.6328 1.78174   3
   5  -3  -8 28.0349 1.73204   4
  -5   3   8 25.7319 1.72875   6
  -5   3   8 26.7039 1.71899   1
   4  -3  -8 200.826 6.37859   3
   4  -3  -8 211.217 6.30947   4
  -4   3   8 195.794 6.26103   1
  -4   3   8 195.481 6.40156   6
   3  -3  -8 4.22414 0.68450   4
   3  -3  -8 3.33150 0.65770   3
  -3   3   8 4.15005 0.71201   1
  -3   3   8 3.90246 0.76295   6
   2  -3  -8 1305.88 34.0324   4
   2  -3  -8 1236.21 34.2058   3
   2  -3  -8 1257.80 33.9444   5
  -2   3   8 1316.63 34.0140   2
  -2   3   8 1216.12 34.2888   6
  -2   3   8 1286.50 34.0449   1
   1  -3  -8 0.26241 0.32965   3
   1  -3  -8 0.40963 0.28383   4
   1  -3  -8 0.37218 0.33075   5
  -1   3   8 0.22368 0.32360   2
  -1   3   8 -0.0437 0.28362   1
  -1   3   8 -0.0888 0.39349   6
   0  -3  -8 637.605 17.9129   5
   0  -3  -8 672.818 17.5477   4
   0  -3  -8 654.548 18.0185   3
   0   3   8 678.892 17.5815   1
   0   3   8 633.864 18.0422   6
   0   3   8 653.908 17.9891   2
  -1  -3  -8 571.395 15.6678   3
  -1  -3  -8 568.337 15.6532   5
   1   3   8 566.791 15.7254   6
   1   3   8 560.458 15.7061   2
  -2  -3  -8 64.6327 2.47242   5
  -2  -3  -8 69.0608 2.50102   3
   2   3   8 65.1668 2.51572   6
  -3  -3  -8 959.955 25.5298   3
  -3  -3  -8 933.071 25.5849   5
   3   3   8 931.326 25.5863   6
   3   3   8 940.340 25.6532   2
  -4  -3  -8 1.24472 0.48058   3
  -4  -3  -8 1.88461 0.54326   5
   4   3   8 1.57519 0.48529   2
   4   3   8 2.18465 0.60213   6
  -5  -3  -8 142.009 4.58802   3
  -5  -3  -8 133.473 4.56607   5
   5   3   8 144.830 4.72895   2
   5   3   8 139.495 4.68412   6
  -6  -3  -8 12.6198 1.13275   3
  -6  -3  -8 12.3224 1.11894   5
   6   3   8 8.30983 1.03748   2
   6   3   8 10.4670 1.16279   6
  -7  -3  -8 112.606 4.05314   3
  -7  -3  -8 114.906 3.99041   5
   7   3   8 112.546 4.21059   6
   7   3   8 109.680 4.04196   2
  -8  -3  -8 41.6963 2.08476   5
  -8  -3  -8 42.6873 2.26464   3
   8   3   8 38.5795 2.15502   2
   8   3   8 40.9519 2.37772   6
  -9  -3  -8 435.126 13.0721   3
   9   3   8 448.770 13.3325   6
 -10  -3  -8 7.01697 1.29448   3
  10   3   8 4.86579 1.15657   6
   8  -4  -8 45.0584 2.76982   4
  -8   4   8 47.5094 2.87407   1
   7  -4  -8 2.20640 0.91710   3
   7  -4  -8 2.45366 0.91104   4
  -7   4   8 3.26451 1.04656   6
  -7   4   8 3.67193 1.04045   1
   6  -4  -8 5.27826 0.97440   4
   6  -4  -8 4.89499 1.02211   3
  -6   4   8 5.24251 1.05739   1
  -6   4   8 4.75904 1.07866   6
   5  -4  -8 99.1929 3.83271   4
   5  -4  -8 101.220 3.96962   3
  -5   4   8 106.860 4.08041   6
  -5   4   8 107.900 3.95175   1
   4  -4  -8 8.66744 1.00941   4
   4  -4  -8 6.28711 0.91904   3
  -4   4   8 7.57123 1.08052   6
  -4   4   8 6.64629 0.95079   1
   3  -4  -8 700.509 19.6534   3
   3  -4  -8 702.810 19.4408   4
  -3   4   8 695.980 19.7435   6
  -3   4   8 731.413 19.5274   1
   2  -4  -8 32.3374 1.67506   3
   2  -4  -8 32.0249 1.48860   4
   2  -4  -8 26.6053 1.36924   5
  -2   4   8 34.8960 1.55490   1
  -2   4   8 31.7681 1.73281   6
  -2   4   8 34.6043 1.50075   2
   1  -4  -8 137.124 4.63899   3
   1  -4  -8 146.137 4.52560   5
   1  -4  -8 144.489 4.36640   4
  -1   4   8 144.137 4.56641   2
  -1   4   8 152.793 4.83548   6
  -1   4   8 147.696 4.40325   1
   0  -4  -8 170.680 5.19132   5
   0  -4  -8 176.846 4.82677   4
   0  -4  -8 164.335 5.24616   3
   0   4   8 160.677 5.30613   6
   0   4   8 166.830 5.22982   2
   0   4   8 169.112 4.82572   1
  -1  -4  -8 72.5541 2.71497   5
  -1  -4  -8 74.5413 2.72371   3
   1   4   8 73.3245 2.75301   2
   1   4   8 72.8099 2.77838   6
  -2  -4  -8 224.926 6.85529   5
  -2  -4  -8 228.359 6.82847   3
   2   4   8 227.166 6.88492   6
   2   4   8 231.695 6.94374   2
  -3  -4  -8 718.869 20.3441   5
  -3  -4  -8 740.982 20.2902   3
   3   4   8 762.155 20.4076   6
   3   4   8 738.245 20.4593   2
  -4  -4  -8 8.79023 0.97424   5
  -4  -4  -8 7.66467 0.87764   3
   4   4   8 6.64123 0.92830   2
   4   4   8 7.80684 0.94850   6
  -5  -4  -8 34.5046 1.82467   5
  -5  -4  -8 32.8174 1.71439   3
   5   4   8 37.4314 1.87523   6
   5   4   8 31.9693 1.83986   2
  -6  -4  -8 235.159 7.31163   5
  -6  -4  -8 240.129 7.25194   3
   6   4   8 237.838 7.39500   6
   6   4   8 231.294 7.35911   2
  -7  -4  -8 10.5159 1.12215   3
  -7  -4  -8 10.2370 1.10698   5
   7   4   8 13.0060 1.37588   6
   7   4   8 11.8212 1.26344   2
  -8  -4  -8 505.297 14.6957   5
  -8  -4  -8 502.941 14.8040   3
   8   4   8 521.841 14.8563   2
   8   4   8 528.203 15.0895   6
  -9  -4  -8 206.015 7.06624   3
   9   4   8 226.396 7.38881   6
 -10  -4  -8 42.0814 2.56860   3
  10   4   8 37.9832 2.55544   6
   7  -5  -8 0.26664 0.74136   3
   7  -5  -8 -0.1742 0.69811   4
  -7   5   8 -1.5785 0.79921   6
  -7   5   8 0.08182 0.84879   1
   6  -5  -8 0.68979 0.69339   3
   6  -5  -8 0.45550 0.69468   4
  -6   5   8 0.41022 0.74749   1
  -6   5   8 1.13658 0.79121   6
   5  -5  -8 57.0780 2.77858   3
   5  -5  -8 57.9206 2.67048   4
  -5   5   8 58.3272 2.89660   6
  -5   5   8 58.3384 2.72724   1
   4  -5  -8 59.0330 2.68841   3
   4  -5  -8 58.4383 2.53924   4
  -4   5   8 57.3014 2.75443   6
  -4   5   8 58.2769 2.59078   1
   3  -5  -8 154.912 5.15417   3
   3  -5  -8 151.784 4.93648   4
  -3   5   8 162.572 5.05238   1
  -3   5   8 145.140 5.18348   6
   2  -5  -8 2.44158 0.54904   4
   2  -5  -8 1.29541 0.42852   5
   2  -5  -8 1.70875 0.60042   3
  -2   5   8 2.14928 0.53642   1
  -2   5   8 1.19056 0.45299   2
  -2   5   8 1.34479 0.60629   6
   1  -5  -8 2.58999 0.55016   5
   1  -5  -8 2.39081 0.59662   3
   1  -5  -8 2.04897 0.45805   4
  -1   5   8 2.41222 0.55501   2
  -1   5   8 3.11239 0.70680   6
  -1   5   8 2.20405 0.47826   1
   0  -5  -8 374.796 10.8281   5
   0  -5  -8 382.509 10.9448   3
   0   5   8 379.891 10.8986   2
   0   5   8 387.308 11.0498   6
  -1  -5  -8 111.840 3.95700   3
  -1  -5  -8 121.820 4.00631   5
   1   5   8 125.075 4.07349   2
   1   5   8 118.018 4.07197   6
  -2  -5  -8 235.341 7.00387   3
  -2  -5  -8 237.737 7.08450   5
   2   5   8 225.581 7.04942   6
   2   5   8 230.660 7.09432   2
  -3  -5  -8 190.066 6.03843   3
  -3  -5  -8 206.113 6.21449   5
   3   5   8 195.820 6.15403   6
   3   5   8 194.269 6.19912   2
  -4  -5  -8 45.7936 2.16902   5
  -4  -5  -8 48.0263 2.11566   3
   4   5   8 48.4778 2.20639   6
   4   5   8 49.7127 2.29915   2
  -5  -5  -8 134.406 4.53837   3
  -5  -5  -8 133.917 4.66607   5
   5   5   8 138.000 4.66977   6
   5   5   8 136.280 4.73423   2
  -6  -5  -8 3.59409 0.73747   3
  -6  -5  -8 3.83326 0.80082   5
   6   5   8 3.06457 0.74316   6
   6   5   8 4.12095 0.85686   2
  -7  -5  -8 24.6744 1.67294   5
  -7  -5  -8 23.1885 1.61497   3
   7   5   8 22.8791 1.68738   6
   7   5   8 23.4468 1.70574   2
  -8  -5  -8 19.5151 1.57783   5
  -8  -5  -8 19.2021 1.62534   3
   8   5   8 20.1407 1.74343   6
   8   5   8 15.9950 1.57551   2
  -9  -5  -8 124.236 4.54247   3
  -9  -5  -8 114.449 4.32267   5
   9   5   8 118.789 4.48857   2
   9   5   8 116.013 4.68020   6
 -10  -5  -8 32.9619 2.28525   3
  10   5   8 35.5460 2.45800   6
   7  -6  -8 5.34819 1.11486   4
  -7   6   8 5.08124 1.15620   1
   6  -6  -8 1.95617 0.81509   4
   6  -6  -8 2.69787 0.89441   3
  -6   6   8 1.98576 0.91876   1
  -6   6   8 2.65373 1.08017   6
   5  -6  -8 -0.3496 0.57163   4
   5  -6  -8 0.21624 0.63820   3
  -5   6   8 -0.5924 0.60600   1
  -5   6   8 -0.4995 0.75644   6
   4  -6  -8 33.9080 1.88141   4
   4  -6  -8 33.5909 2.02750   3
  -4   6   8 34.0351 2.19454   6
  -4   6   8 35.0533 1.97507   1
   3  -6  -8 17.8044 1.42933   3
   3  -6  -8 16.4284 1.25250   4
  -3   6   8 18.5247 1.35662   1
  -3   6   8 12.2514 1.36348   6
   2  -6  -8 0.09091 0.46952   3
   2  -6  -8 -0.4765 0.39545   4
  -2   6   8 0.00467 0.61965   6
  -2   6   8 0.12155 0.43741   1
   1  -6  -8 74.2666 2.71881   4
   1  -6  -8 68.5544 2.80638   3
   1  -6  -8 76.6655 2.71496   5
  -1   6   8 70.2637 2.74383   1
  -1   6   8 68.7367 2.94124   6
  -1   6   8 70.7713 2.71658   2
   0  -6  -8 19.1243 1.26367   5
   0  -6  -8 16.5564 1.24963   3
   0   6   8 16.6070 1.26460   2
   0   6   8 17.3699 1.30151   6
  -1  -6  -8 1.22160 0.54928   5
  -1  -6  -8 1.39666 0.51708   3
   1   6   8 1.63988 0.62174   6
   1   6   8 1.87446 0.61368   2
  -2  -6  -8 15.6641 1.22467   3
  -2  -6  -8 15.1456 1.19163   5
   2   6   8 19.5510 1.32944   6
   2   6   8 16.3346 1.31594   2
  -3  -6  -8 0.57431 0.50999   3
  -3  -6  -8 0.16926 0.44108   5
   3   6   8 0.00144 0.49116   2
   3   6   8 0.14426 0.47454   6
  -4  -6  -8 0.42857 0.49338   3
  -4  -6  -8 0.01644 0.48305   5
   4   6   8 0.36530 0.48594   6
   4   6   8 0.44106 0.60380   2
  -5  -6  -8 36.7556 2.05751   5
  -5  -6  -8 41.8610 2.00903   3
   5   6   8 42.2721 2.12227   6
   5   6   8 43.2601 2.24293   2
  -6  -6  -8 8.96016 1.05233   3
  -6  -6  -8 8.43696 1.11768   5
   6   6   8 11.0223 1.23272   6
   6   6   8 10.3346 1.25477   2
  -7  -6  -8 65.8261 2.81159   3
  -7  -6  -8 57.6619 2.83648   5
   7   6   8 65.3926 3.02104   2
   7   6   8 66.3796 2.98825   6
  -8  -6  -8 362.674 10.8306   3
  -8  -6  -8 346.775 10.8281   5
   8   6   8 372.632 11.1153   6
   8   6   8 364.076 11.0226   2
  -9  -6  -8 1.10771 0.80133   3
  -9  -6  -8 1.41531 0.72446   5
   9   6   8 0.78875 0.84496   6
   9   6   8 1.13219 0.83923   2
 -10  -6  -8 52.3386 2.81466   3
  10   6   8 51.9153 2.98271   6
   6  -7  -8 1.26798 0.84492   4
   6  -7  -8 -0.1254 0.74111   3
  -6   7   8 1.95044 0.92510   1
  -6   7   8 2.12718 0.97691   6
   5  -7  -8 0.53467 0.69618   3
   5  -7  -8 -0.4688 0.62265   4
  -5   7   8 -0.0993 0.82302   6
  -5   7   8 0.28157 0.66245   1
   4  -7  -8 14.0603 1.48910   3
   4  -7  -8 11.9050 1.25899   4
  -4   7   8 13.6474 1.42203   1
  -4   7   8 8.88271 1.30431   6
   3  -7  -8 103.711 3.96203   3
   3  -7  -8 103.980 3.74653   4
  -3   7   8 108.579 3.84072   1
  -3   7   8 97.1377 4.02842   6
   2  -7  -8 78.8502 3.18213   3
   2  -7  -8 79.3310 3.20379   4
  -2   7   8 80.3849 3.23514   1
  -2   7   8 78.3183 3.28575   6
   1  -7  -8 10.0612 1.04817   5
   1  -7  -8 9.80215 1.05187   3
  -1   7   8 11.8350 1.20181   6
  -1   7   8 10.4755 1.04717   2
   0  -7  -8 305.021 8.97517   5
   0  -7  -8 296.563 8.99059   3
   0   7   8 309.762 9.01905   2
   0   7   8 299.990 9.12479   6
  -1  -7  -8 4.31309 0.76092   5
  -1  -7  -8 4.97789 0.81751   3
   1   7   8 4.32395 0.85845   2
   1   7   8 4.31341 0.83856   6
  -2  -7  -8 24.3489 1.51505   3
  -2  -7  -8 23.3296 1.57259   5
   2   7   8 23.1679 1.61751   2
   2   7   8 23.4295 1.53711   6
  -3  -7  -8 21.8929 1.59263   5
  -3  -7  -8 26.5902 1.57452   3
   3   7   8 23.4709 1.67585   2
   3   7   8 23.3991 1.55094   6
  -4  -7  -8 0.26041 0.60305   5
  -4  -7  -8 0.69538 0.52560   3
   4   7   8 0.13204 0.58938   2
   4   7   8 0.15653 0.51591   6
  -5  -7  -8 76.9825 3.27345   5
  -5  -7  -8 77.0453 3.07455   3
   5   7   8 77.9036 3.18664   6
   5   7   8 75.9706 3.31353   2
  -6  -7  -8 4.70150 0.82255   3
  -6  -7  -8 6.44372 1.07059   5
   6   7   8 4.13813 0.98961   2
   6   7   8 4.51775 0.89936   6
  -7  -7  -8 17.4936 1.46314   3
  -7  -7  -8 14.6157 1.52032   5
   7   7   8 15.9112 1.59222   2
   7   7   8 16.3507 1.54009   6
  -8  -7  -8 15.9579 1.59868   5
  -8  -7  -8 10.0164 1.23381   3
   8   7   8 14.8538 1.58716   6
   8   7   8 14.9357 1.64256   2
  -9  -7  -8 74.0747 3.40086   3
  -9  -7  -8 79.2783 3.49793   5
   9   7   8 80.6837 3.70815   2
   9   7   8 88.7349 3.79742   6
   5  -8  -8 0.13707 0.68489   4
   5  -8  -8 -0.1614 0.72704   3
  -5   8   8 0.66914 0.96534   6
  -5   8   8 1.46076 0.85444   1
   4  -8  -8 3.72656 0.88917   4
   4  -8  -8 3.99200 0.94068   3
  -4   8   8 4.50636 0.96128   1
  -4   8   8 3.19231 1.06447   6
   3  -8  -8 7.89163 1.15328   3
  -3   8   8 8.37414 1.31609   6
   2  -8  -8 15.5581 1.41925   3
  -2   8   8 15.7418 1.55594   6
   1  -8  -8 1.66562 0.64135   3
   1  -8  -8 0.44121 0.59253   5
  -1   8   8 0.18677 0.55637   2
  -1   8   8 1.25034 0.68430   6
   0  -8  -8 7.13389 0.96074   5
   0  -8  -8 9.34272 1.07834   3
   0   8   8 8.81560 1.14562   6
   0   8   8 9.13994 1.06637   2
  -1  -8  -8 4.24849 0.79401   5
  -1  -8  -8 4.62094 0.82651   3
   1   8   8 4.99216 0.90357   6
   1   8   8 4.96818 0.90733   2
  -2  -8  -8 1.61768 0.60850   3
  -2  -8  -8 1.96638 0.72269   5
   2   8   8 2.70525 0.76228   2
   2   8   8 2.35812 0.69273   6
  -3  -8  -8 33.9132 2.03038   5
   3   8   8 37.4832 2.01922   6
   3   8   8 34.3339 2.06645   2
  -4  -8  -8 69.8592 2.85838   3
  -4  -8  -8 63.9540 3.02469   5
   4   8   8 70.8352 3.12754   2
   4   8   8 65.9432 2.88200   6
  -5  -8  -8 6.77522 1.14951   5
  -5  -8  -8 6.01729 0.92446   3
   5   8   8 5.66443 0.98952   6
   5   8   8 5.36312 1.02962   2
  -6  -8  -8 27.3322 2.03963   5
  -6  -8  -8 34.1132 1.93361   3
   6   8   8 31.9061 1.98471   6
   6   8   8 31.9655 2.21215   2
  -7  -8  -8 2.02780 0.71821   3
  -7  -8  -8 2.02717 0.90567   5
   7   8   8 3.97548 0.94742   6
   7   8   8 2.80223 1.00929   2
  -8  -8  -8 2.51893 0.97655   5
  -8  -8  -8 2.13628 0.71412   3
   8   8   8 0.92952 0.88971   2
   8   8   8 2.45510 0.91102   6
  -9  -8  -8 7.54827 1.18270   3
  -9  -8  -8 6.79671 1.21531   5
   9   8   8 10.7105 1.52446   6
   9   8   8 6.56265 1.29435   2
   4  -9  -8 25.4167 1.99545   3
  -4   9   8 27.4669 2.28386   6
   3  -9  -8 16.9633 1.63723   3
  -3   9   8 16.3579 1.75733   6
   2  -9  -8 36.8417 2.10546   3
  -2   9   8 36.7961 2.26284   6
   1  -9  -8 11.4227 1.26362   3
  -1   9   8 8.81833 1.25851   6
   0  -9  -8 6.07011 0.93207   3
   0  -9  -8 6.78756 1.00415   5
   0   9   8 6.68496 1.06972   6
   0   9   8 5.98583 0.97888   2
  -1  -9  -8 13.7525 1.28924   3
  -1  -9  -8 10.6085 1.24397   5
   1   9   8 10.5538 1.22355   6
   1   9   8 8.64808 1.17503   2
  -2  -9  -8 3.45556 0.75702   3
  -2  -9  -8 2.79990 0.83009   5
   2   9   8 2.87127 0.82997   2
   2   9   8 2.84792 0.76409   6
  -3  -9  -8 47.2691 2.30896   3
  -3  -9  -8 45.9573 2.51691   5
   3   9   8 47.3392 2.33593   6
   3   9   8 47.9167 2.55851   2
  -4  -9  -8 101.527 3.85458   3
  -4  -9  -8 102.397 4.15975   5
   4   9   8 108.340 4.00600   6
   4   9   8 102.449 4.22159   2
  -5  -9  -8 4.37335 1.03161   5
  -5  -9  -8 2.83422 0.82907   3
   5   9   8 5.35646 1.01624   6
   5   9   8 2.37752 0.91117   2
  -6  -9  -8 11.4249 1.25821   3
  -6  -9  -8 10.0915 1.46014   5
   6   9   8 11.1971 1.34387   6
   6   9   8 8.98138 1.37491   2
  -7  -9  -8 0.60373 0.99828   3
  -7  -9  -8 1.37999 0.87925   5
   7   9   8 -0.8212 0.71423   2
  -8  -9  -8 4.31090 1.11678   5
   8   9   8 4.57126 1.15189   2
   3 -10  -8 0.37385 0.71425   3
  -3  10   8 1.09142 0.87409   6
   2 -10  -8 74.5196 3.25968   3
  -2  10   8 74.0028 3.43355   6
   1 -10  -8 3.46090 0.85218   3
  -1  10   8 3.51407 0.91550   6
   0 -10  -8 29.0031 1.89878   5
   0 -10  -8 29.0738 1.81551   3
   0  10   8 27.2917 1.94790   6
   0  10   8 28.3181 1.94593   2
  -1 -10  -8 106.032 4.18574   5
  -1 -10  -8 111.109 4.03127   3
   1  10   8 114.964 4.29305   2
   1  10   8 101.544 4.05447   6
  -2 -10  -8 -0.3669 0.63685   5
  -2 -10  -8 -0.3363 0.55579   3
   2  10   8 -0.0149 0.58623   6
   2  10   8 -0.0481 0.68806   2
  -3 -10  -8 369.458 11.4608   5
   3  10   8 378.567 11.5018   2
  -4 -10  -8 20.4915 1.94703   5
   4  10   8 22.2198 2.00006   2
  -5 -10  -8 46.8069 2.78151   5
   5  10   8 46.7740 2.77473   2
  -6 -10  -8 8.67745 1.42944   5
   6  10   8 7.44818 1.34009   2
  -1 -11  -8 30.8617 2.15243   5
   1  11   8 35.2662 2.31875   2
  -2 -11  -8 1.85621 0.87898   5
   2  11   8 2.06361 0.92789   2
  -3 -11  -8 244.022 8.27898   5
   3  11   8 251.627 8.30034   2
  -4 -11  -8 14.8089 1.77957   5
   4  11   8 11.4732 1.55438   2
   2  10  -9 57.1852 3.04760   1
   2  10  -9 57.4607 2.97247   5
  -2 -10   9 53.9931 3.06199   4
  -2 -10   9 55.0192 3.06420   2
   1  10  -9 40.4465 2.38364   5
   1  10  -9 40.9924 2.52025   1
  -1 -10   9 43.6783 2.71533   4
  -1 -10   9 42.4176 2.65286   2
   0  10  -9 180.199 6.51314   1
   0  10  -9 187.165 6.37481   5
   0 -10   9 184.630 6.58143   2
   0 -10   9 183.807 6.65761   4
  -1  10  -9 7.79668 1.23784   5
  -1  10  -9 6.86990 1.25897   1
   1 -10   9 8.96391 1.43746   4
   1 -10   9 7.35943 1.27645   2
  -2  10  -9 12.3578 1.75004   1
  -2  10  -9 18.3848 1.67299   5
   2 -10   9 14.3444 1.70701   2
   2 -10   9 11.9361 1.91846   4
  -3  10  -9 62.3742 2.96165   5
   3 -10   9 61.6052 3.21698   2
   5   9  -9 6.34339 1.10830   5
  -5  -9   9 4.79780 1.12316   2
   4   9  -9 12.5978 1.60912   1
   4   9  -9 15.6793 1.60229   5
  -4  -9   9 12.0997 1.57781   2
  -4  -9   9 16.3631 1.83022   4
   3   9  -9 30.1050 2.02471   5
   3   9  -9 27.3526 2.08079   1
  -3  -9   9 26.0207 2.13831   4
  -3  -9   9 27.5423 2.19272   2
   2   9  -9 10.3820 1.41654   1
   2   9  -9 11.6394 1.40609   5
  -2  -9   9 12.1934 1.52248   4
  -2  -9   9 8.90888 1.37809   2
   1   9  -9 5.77370 1.02022   5
  -1  -9   9 4.22880 1.05510   2
  -1  -9   9 7.45587 1.28983   4
   0   9  -9 7.03934 1.15996   5
   0   9  -9 7.31856 1.20129   1
   0  -9   9 6.39293 1.19576   4
   0  -9   9 7.67039 1.25412   2
  -1   9  -9 1.39298 0.78355   5
  -1   9  -9 -0.0168 0.66799   1
   1  -9   9 0.15307 0.73740   4
   1  -9   9 1.21798 0.79954   2
  -2   9  -9 2.79508 0.93483   1
  -2   9  -9 3.72756 0.92393   5
   2  -9   9 4.43330 1.16636   4
   2  -9   9 3.57933 1.06393   2
  -3   9  -9 57.6698 2.71196   5
  -3   9  -9 54.4035 2.87615   1
   3  -9   9 52.8164 2.91802   2
   3  -9   9 58.7398 3.13689   4
  -4   9  -9 0.25447 0.76757   1
  -4   9  -9 -0.4810 0.76537   5
   4  -9   9 -0.5142 0.76655   2
   4  -9   9 -0.0155 0.81515   4
   6   8  -9 1.46299 1.10572   1
   6   8  -9 1.76982 0.81729   5
  -6  -8   9 0.46734 0.78428   2
   5   8  -9 -0.5785 0.58863   5
   5   8  -9 0.59843 0.76263   1
  -5  -8   9 0.60409 0.76278   2
  -5  -8   9 -0.1593 0.71831   4
   4   8  -9 5.98519 1.05497   5
   4   8  -9 7.61843 1.16675   1
  -4  -8   9 7.46594 1.21911   4
  -4  -8   9 6.95372 1.22171   2
   3   8  -9 1.31378 0.69414   5
   3   8  -9 1.21448 0.70760   1
  -3  -8   9 0.85052 0.76186   2
  -3  -8   9 1.16743 0.83466   4
   2   8  -9 25.7034 1.85503   1
   2   8  -9 29.5423 1.90541   5
  -2  -8   9 25.1607 1.97076   4
  -2  -8   9 28.3802 2.00514   2
   1   8  -9 12.6459 1.34531   5
  -1  -8   9 12.7935 1.48614   4
  -1  -8   9 15.2368 1.59322   2
   0   8  -9 121.675 4.41471   5
   0   8  -9 115.415 4.41394   1
   0  -8   9 117.795 4.52311   4
   0  -8   9 120.812 4.53998   2
  -1   8  -9 42.5638 2.23557   5
  -1   8  -9 43.1201 2.29146   1
   1  -8   9 42.3180 2.42008   4
   1  -8   9 39.7247 2.35892   2
  -2   8  -9 129.294 4.74261   1
  -2   8  -9 123.976 4.62406   5
   2  -8   9 132.817 4.93680   4
   2  -8   9 134.329 4.90780   2
  -3   8  -9 1.65481 0.76019   5
  -3   8  -9 4.48970 0.95854   1
   3  -8   9 3.33010 1.02046   4
   3  -8   9 2.82153 0.88702   2
  -4   8  -9 12.8371 1.46904   1
  -4   8  -9 13.6954 1.36000   5
   4  -8   9 14.7923 1.59211   2
   4  -8   9 13.1597 1.64499   4
  -5   8  -9 19.0185 1.75318   1
   5  -8   9 24.1369 2.09672   4
  -6   8  -9 -0.3911 0.69390   1
   6  -8   9 -0.0331 0.89175   4
   6   7  -9 1.69138 0.90429   1
   6   7  -9 1.20653 0.70106   5
  -6  -7   9 1.54677 0.85807   4
  -6  -7   9 0.99209 0.73245   2
   5   7  -9 0.39153 0.63794   5
   5   7  -9 0.00878 0.68598   1
  -5  -7   9 0.19572 0.71691   2
  -5  -7   9 0.26743 0.77105   4
   4   7  -9 0.07801 0.64746   1
   4   7  -9 0.37566 0.57921   5
  -4  -7   9 0.54600 0.68154   2
  -4  -7   9 0.70497 0.66799   4
   3   7  -9 29.6223 1.83619   5
   3   7  -9 29.3158 1.91004   1
  -3  -7   9 32.5089 2.01487   2
  -3  -7   9 31.8729 1.97056   4
   2   7  -9 1.20125 0.59941   5
   2   7  -9 2.63910 0.74291   1
  -2  -7   9 2.24108 0.79031   2
  -2  -7   9 2.02508 0.79276   4
   1   7  -9 72.2174 3.06635   1
   1   7  -9 75.1654 3.05998   5
  -1  -7   9 70.8104 3.14342   2
  -1  -7   9 76.4641 3.20964   4
   0   7  -9 0.18770 0.60369   5
   0   7  -9 0.84604 0.57602   1
   0  -7   9 0.10701 0.61783   2
   0  -7   9 0.45712 0.63917   4
  -1   7  -9 13.8606 1.28023   5
  -1   7  -9 12.6616 1.24625   1
   1  -7   9 14.8635 1.48283   2
   1  -7   9 15.2852 1.43434   4
  -2   7  -9 3.52743 0.76576   1
  -2   7  -9 2.86047 0.74957   5
   2  -7   9 4.42171 0.90738   4
   2  -7   9 3.60407 0.90744   2
  -3   7  -9 7.16192 0.97662   5
  -3   7  -9 7.56425 1.07179   1
   3  -7   9 7.98113 1.18627   4
   3  -7   9 7.78555 1.15877   2
  -4   7  -9 3.48597 0.79968   5
  -4   7  -9 2.59210 0.78836   1
   4  -7   9 1.31865 0.80697   4
   4  -7   9 3.06654 0.90389   2
  -5   7  -9 4.90905 1.00307   1
  -5   7  -9 6.00571 1.30554   5
   5  -7   9 4.34371 1.05084   4
   5  -7   9 5.61317 1.03736   2
  -6   7  -9 0.11329 0.68790   1
   6  -7   9 0.02444 0.79415   4
  -7   7  -9 6.84386 1.23824   1
   7  -7   9 7.33800 1.34526   4
   7   6  -9 -0.2323 0.66809   1
  -7  -6   9 0.05078 0.78354   4
   6   6  -9 45.1674 2.61025   1
  -6  -6   9 47.1892 2.61743   4
   5   6  -9 18.1302 1.60088   1
   5   6  -9 15.8710 1.38745   5
  -5  -6   9 17.1634 1.55954   2
  -5  -6   9 17.5601 1.64117   4
   4   6  -9 3.78025 0.90073   1
   4   6  -9 2.86069 0.74937   5
  -4  -6   9 4.31946 0.97985   4
  -4  -6   9 3.87180 0.88082   2
   3   6  -9 22.6588 1.53667   5
   3   6  -9 23.2680 1.64883   1
  -3  -6   9 21.9386 1.62579   2
  -3  -6   9 22.9391 1.67689   4
   2   6  -9 2.33771 0.68517   5
   2   6  -9 1.28443 0.59419   1
  -2  -6   9 1.26319 0.64052   2
  -2  -6   9 1.18213 0.65282   4
   1   6  -9 31.4089 1.81523   5
   1   6  -9 31.8939 1.78050   1
  -1  -6   9 31.6939 1.85586   4
  -1  -6   9 33.2270 1.90502   2
   0   6  -9 16.7935 1.30716   1
   0   6  -9 15.1101 1.32317   5
   0  -6   9 17.2244 1.37886   4
   0  -6   9 15.2898 1.44184   2
  -1   6  -9 4.41374 0.81435   5
  -1   6  -9 5.15643 0.78891   1
   1  -6   9 3.95741 0.82238   4
   1  -6   9 3.52951 0.78131   2
  -2   6  -9 1.42452 0.53098   1
  -2   6  -9 1.15629 0.62759   5
   2  -6   9 1.23726 0.64439   4
   2  -6   9 1.26661 0.63741   2
  -3   6  -9 34.7249 1.89150   1
  -3   6  -9 35.0868 1.88683   5
   3  -6   9 36.9979 2.05333   4
   3  -6   9 34.5357 2.03486   2
  -4   6  -9 5.12701 0.82816   5
  -4   6  -9 2.54313 0.73173   1
   4  -6   9 4.71898 0.92657   2
   4  -6   9 3.63338 0.89213   4
  -5   6  -9 2.88002 0.69457   5
  -5   6  -9 2.44046 0.76786   1
   5  -6   9 2.58015 0.83618   4
   5  -6   9 2.58248 0.78164   2
  -6   6  -9 28.0659 1.88296   1
   6  -6   9 30.9823 2.13945   4
  -7   6  -9 0.96874 0.73126   1
   7  -6   9 1.67233 0.87109   4
   7   5  -9 17.8511 1.86891   1
  -7  -5   9 18.1873 1.80547   4
   6   5  -9 17.6235 1.64580   1
  -6  -5   9 16.3629 1.65778   4
   5   5  -9 0.38270 0.53722   5
   5   5  -9 0.09668 0.62191   1
  -5  -5   9 1.41201 0.73965   4
  -5  -5   9 -0.6407 0.55113   2
   4   5  -9 276.471 8.60002   1
   4   5  -9 276.052 8.33173   5
  -4  -5   9 279.499 8.58942   4
  -4  -5   9 282.389 8.46442   2
   3   5  -9 6.75190 0.90148   5
   3   5  -9 7.23042 0.98526   1
  -3  -5   9 6.19866 0.90574   2
  -3  -5   9 5.40216 0.89420   4
   2   5  -9 6.24574 0.87824   5
   2   5  -9 5.75391 0.88530   1
  -2  -5   9 5.53439 0.91677   4
  -2  -5   9 5.59583 0.86646   2
   1   5  -9 14.5130 1.15144   1
   1   5  -9 13.8067 1.18762   5
  -1  -5   9 12.7673 1.23791   2
  -1  -5   9 14.5246 1.21205   4
   0   5  -9 44.9671 2.10452   5
   0  -5   9 43.6506 2.08022   4
   0  -5   9 42.0626 2.14004   2
  -1   5  -9 56.9510 2.48286   5
  -1   5  -9 61.4505 2.44655   1
   1  -5   9 60.0391 2.62063   2
   1  -5   9 58.3063 2.50205   4
  -2   5  -9 14.3331 1.12084   1
  -2   5  -9 15.8418 1.27284   5
   2  -5   9 15.1858 1.24288   4
   2  -5   9 15.9846 1.35754   2
  -3   5  -9 196.693 6.15078   5
  -3   5  -9 196.216 6.10266   1
   3  -5   9 196.244 6.31382   2
   3  -5   9 191.953 6.21566   4
  -4   5  -9 39.1245 1.89991   5
  -4   5  -9 34.5624 1.82111   1
   4  -5   9 37.9673 2.02411   4
   4  -5   9 33.8711 1.99278   2
  -5   5  -9 1.25032 0.57917   5
  -5   5  -9 2.47723 0.70979   1
   5  -5   9 2.78431 0.78567   2
   5  -5   9 1.85964 0.71902   4
  -6   5  -9 1.82751 0.70446   1
   6  -5   9 0.91983 0.71593   4
  -7   5  -9 96.9853 3.82576   1
   7  -5   9 93.9771 3.89426   4
   8   4  -9 30.0456 2.22031   4
  -8  -4   9 34.0068 2.49055   1
   7   4  -9 12.3361 1.53517   1
   7   4  -9 17.5696 1.74549   4
   6   4  -9 38.3391 2.23542   1
   5   4  -9 339.858 9.79602   5
   5   4  -9 339.301 10.2422   1
  -5  -4   9 341.461 9.91216   2
  -5  -4   9 328.199 10.1627   4
   4   4  -9 65.2665 2.54703   5
   4   4  -9 61.9429 2.75190   1
  -4  -4   9 64.1887 2.73678   4
  -4  -4   9 65.7402 2.67006   2
   3   4  -9 238.515 7.26439   1
   3   4  -9 231.860 7.09096   5
  -3  -4   9 239.488 7.21026   2
  -3  -4   9 231.035 7.21404   4
   2   4  -9 5.99890 0.79913   1
   2   4  -9 6.83471 0.83984   5
  -2  -4   9 6.50825 0.86462   4
  -2  -4   9 5.56018 0.82685   2
   1   4  -9 139.609 4.50245   1
   1   4  -9 136.178 4.52336   5
  -1  -4   9 134.372 4.60458   2
  -1  -4   9 141.618 4.55755   4
   0   4  -9 10.7223 0.99812   5
   0  -4   9 10.3666 0.97233   4
   0  -4   9 11.6785 1.13870   2
  -1   4  -9 257.816 7.42210   1
  -1   4  -9 249.946 7.54662   5
   1  -4   9 247.941 7.49555   4
   1  -4   9 248.255 7.62611   2
  -2   4  -9 57.3704 2.38871   5
  -2   4  -9 55.1984 2.20084   1
   2  -4   9 55.8333 2.34230   4
   2  -4   9 57.1769 2.49104   2
  -3   4  -9 292.820 8.56020   3
  -3   4  -9 260.615 8.03960   5
  -3   4  -9 266.599 7.91949   1
   3  -4   9 281.573 8.19934   6
   3  -4   9 259.448 8.01045   4
   3  -4   9 261.827 8.16365   2
  -4   4  -9 293.848 8.37567   3
  -4   4  -9 291.277 8.64807   5
  -4   4  -9 288.648 8.54351   1
   4  -4   9 295.223 8.47377   6
   4  -4   9 300.251 8.71311   4
   4  -4   9 282.258 8.77417   2
  -5   4  -9 0.64304 0.46476   3
  -5   4  -9 0.81439 0.53557   5
  -5   4  -9 0.31937 0.49877   1
   5  -4   9 1.28685 0.64517   2
   5  -4   9 0.86991 0.52374   6
   5  -4   9 0.54385 0.53109   4
  -6   4  -9 49.8362 2.25785   5
  -6   4  -9 55.8262 2.38579   1
   6  -4   9 50.9995 2.42273   2
   6  -4   9 51.0751 2.43553   4
  -7   4  -9 17.4278 1.57774   6
   7  -4   9 17.9267 1.43739   3
  -8   4  -9 39.6127 2.38357   6
   8  -4   9 42.0861 2.26203   3
  -9   4  -9 2.18824 0.90042   6
   9  -4   9 0.71479 0.71635   3
   8   3  -9 42.3637 2.59544   4
  -8  -3   9 43.3817 2.76746   1
   7   3  -9 116.785 4.52735   4
  -7  -3   9 116.834 4.67755   1
   6   3  -9 174.294 5.79357   4
   6   3  -9 160.660 5.76307   1
   5   3  -9 375.712 11.5351   4
   5   3  -9 413.666 11.7082   1
   4   3  -9 0.60020 0.43672   5
   4   3  -9 1.25523 0.59959   1
  -4  -3   9 0.95982 0.50570   2
   3   3  -9 12.5421 0.98620   5
   3   3  -9 11.0565 1.03518   1
  -3  -3   9 10.1034 1.01282   4
  -3  -3   9 10.5764 1.05402   2
   2   3  -9 289.461 8.34750   5
   2   3  -9 292.241 8.38369   1
  -2  -3   9 272.292 8.31965   4
  -2  -3   9 286.512 8.41526   2
   1   3  -9 2.81550 0.55560   1
   1   3  -9 4.85796 0.49484   3
   1   3  -9 3.56943 0.64132   5
  -1  -3   9 2.58770 0.63881   2
  -1  -3   9 4.52223 0.50835   6
  -1  -3   9 3.64825 0.61832   4
   0   3  -9 1095.96 28.7125   3
   0   3  -9 1048.23 29.0970   5
   0   3  -9 1067.00 28.9462   1
   0  -3   9 1109.87 28.7257   6
   0  -3   9 1048.69 29.1822   2
   0  -3   9 1079.26 29.0218   4
  -1   3  -9 0.98940 0.35125   3
  -1   3  -9 0.82844 0.38715   1
  -1   3  -9 1.00086 0.43677   5
   1  -3   9 0.65549 0.31433   6
   1  -3   9 1.53794 0.56172   2
   1  -3   9 0.89093 0.40319   4
  -2   3  -9 238.807 6.69025   3
  -2   3  -9 232.132 7.02320   5
  -2   3  -9 235.812 6.79255   1
   2  -3   9 226.873 6.86142   4
   2  -3   9 230.832 7.10121   2
   2  -3   9 230.589 6.70222   6
  -3   3  -9 7.95397 0.75419   1
  -3   3  -9 7.81900 0.90597   5
  -3   3  -9 8.54241 0.78262   3
   3  -3   9 7.96382 0.80383   6
   3  -3   9 7.86893 0.83509   4
   3  -3   9 6.63018 0.89380   2
  -4   3  -9 51.1534 2.21512   5
  -4   3  -9 50.6383 2.04763   1
  -4   3  -9 48.6843 2.00922   3
   4  -3   9 56.3638 2.20527   4
   4  -3   9 51.4999 2.12735   6
   4  -3   9 50.4076 2.31351   2
  -5   3  -9 22.0356 1.29062   1
  -5   3  -9 21.3542 1.38156   5
  -5   3  -9 21.4808 1.31715   3
   5  -3   9 21.1744 1.36783   6
   5  -3   9 23.3082 1.37915   4
   5  -3   9 20.3912 1.45715   2
  -6   3  -9 152.237 5.17470   1
  -6   3  -9 148.531 4.86356   5
   6  -3   9 155.938 5.15876   4
   6  -3   9 144.300 4.98027   2
   6  -3   9 144.289 4.97150   6
   7  -3   9 8.74862 1.15221   6
   7  -3   9 9.46092 1.08701   3
  -8   3  -9 6.20065 1.13126   6
   8  -3   9 5.34189 0.97781   3
  -9   3  -9 7.94650 1.31958   6
   9  -3   9 6.16309 1.09276   3
   8   2  -9 319.344 10.2176   4
  -8  -2   9 327.516 10.3800   1
   7   2  -9 0.63205 0.69079   4
  -7  -2   9 -0.0885 0.80887   1
   6   2  -9 687.678 19.6552   4
   6   2  -9 691.287 19.3684   3
  -6  -2   9 686.173 19.7788   1
  -6  -2   9 722.186 19.4319   6
   5   2  -9 113.654 3.92515   3
   5   2  -9 116.959 4.21735   1
   5   2  -9 113.128 4.12585   4
  -5  -2   9 120.613 3.99050   6
   4   2  -9 577.393 15.9008   5
   4   2  -9 576.640 16.1779   4
   4   2  -9 571.999 16.2094   1
   4   2  -9 573.412 15.9307   3
  -4  -2   9 581.553 15.9786   2
  -4  -2   9 579.024 15.9637   6
   3   2  -9 387.511 11.6778   4
   3   2  -9 427.186 11.5450   3
   3   2  -9 405.558 11.7747   1
   3   2  -9 415.454 11.6195   5
  -3  -2   9 415.407 11.6975   2
  -3  -2   9 427.808 11.5797   6
   2   2  -9 244.686 7.26792   1
   2   2  -9 253.807 7.28015   5
   2   2  -9 244.460 7.03890   3
  -2  -2   9 250.684 7.28482   4
  -2  -2   9 243.388 7.31659   2
  -2  -2   9 244.060 7.08550   6
   1   2  -9 151.669 4.73315   1
   1   2  -9 158.222 4.61676   3
   1   2  -9 156.162 4.86670   5
  -1  -2   9 153.513 4.92810   2
  -1  -2   9 157.063 4.64328   6
  -1  -2   9 153.490 4.76322   4
   0   2  -9 1.28881 0.38800   1
   0   2  -9 1.23897 0.35500   3
   0   2  -9 0.98775 0.43106   5
   0  -2   9 1.07203 0.46498   2
   0  -2   9 1.14599 0.40443   4
   0  -2   9 0.84531 0.35150   6
  -1   2  -9 1.73270 0.41345   3
  -1   2  -9 1.27462 0.35404   1
  -1   2  -9 1.05310 0.45441   5
   1  -2   9 1.14639 0.34414   6
   1  -2   9 1.37733 0.39147   4
   1  -2   9 1.22169 0.49305   2
  -2   2  -9 1.53085 0.36649   1
  -2   2  -9 0.89108 0.46400   5
  -2   2  -9 1.28679 0.37569   3
   2  -2   9 1.21619 0.37676   6
   2  -2   9 0.79807 0.35065   4
   2  -2   9 0.83799 0.52879   2
  -3   2  -9 1566.70 40.7672   3
  -3   2  -9 1571.37 40.6639   1
  -3   2  -9 1497.35 40.9686   5
   3  -2   9 1524.86 40.8303   6
   3  -2   9 1473.20 41.0647   2
  -4   2  -9 107.169 3.39271   1
  -4   2  -9 110.087 3.53189   3
  -4   2  -9 103.442 3.64817   5
   4  -2   9 107.283 3.76960   2
   4  -2   9 102.889 3.59334   6
  -5   2  -9 127.701 4.29247   5
  -5   2  -9 132.559 4.11582   1
  -5   2  -9 126.100 4.21008   3
   5  -2   9 133.712 4.38862   6
   5  -2   9 126.276 4.39813   2
  -6   2  -9 292.874 8.56816   5
  -6   2  -9 280.676 8.58238   3
   6  -2   9 294.812 8.76065   6
   6  -2   9 289.107 8.70176   2
  -7   2  -9 4.47529 0.76254   5
   7  -2   9 4.15828 0.80635   2
   7  -2   9 4.86475 0.92230   6
   8  -2   9 94.5076 3.72745   3
   8  -2   9 97.1532 3.90294   6
  -9   2  -9 27.8662 2.15412   6
   9  -2   9 24.2918 1.86170   3
   9   1  -9 129.929 4.97234   3
   8   1  -9 15.5769 1.73490   4
   8   1  -9 13.8322 1.49992   3
  -8  -1   9 15.9844 1.81723   1
  -8  -1   9 18.8851 1.77565   6
   7   1  -9 188.999 6.59158   4
   7   1  -9 199.647 6.43865   3
  -7  -1   9 199.399 6.45950   6
  -7  -1   9 194.406 6.69201   1
   6   1  -9 0.57140 0.55918   3
   6   1  -9 0.01854 0.67036   4
  -6  -1   9 -0.0283 0.62185   6
  -6  -1   9 1.14296 0.75367   1
   5   1  -9 261.893 7.91918   3
   5   1  -9 265.514 8.08135   4
  -5  -1   9 260.892 8.14139   1
  -5  -1   9 266.084 7.95715   6
   4   1  -9 39.8672 1.65791   5
   4   1  -9 35.7277 1.75795   3
   4   1  -9 40.3461 1.92761   4
  -4  -1   9 39.2329 1.71487   2
  -4  -1   9 39.8790 1.84394   6
   3   1  -9 296.959 8.50271   3
   3   1  -9 289.093 8.60043   1
   3   1  -9 302.426 8.47839   5
   3   1  -9 285.982 8.57119   4
  -3  -1   9 292.142 8.54312   6
  -3  -1   9 307.328 8.55145   2
   2   1  -9 71.8410 2.48800   3
   2   1  -9 70.6298 2.53617   5
   2   1  -9 72.6693 2.53037   4
   2   1  -9 70.2057 2.54041   1
  -2  -1   9 68.6417 2.58567   2
  -2  -1   9 68.0974 2.51465   6
   1   1  -9 528.792 14.6009   3
   1   1  -9 536.762 14.5966   1
   1   1  -9 538.092 14.7462   5
  -1  -1   9 523.949 14.5963   4
  -1  -1   9 536.999 14.6322   6
  -1  -1   9 528.331 14.7953   2
   0   1  -9 750.179 20.6451   5
   0   1  -9 756.202 20.3796   1
   0   1  -9 760.871 20.4909   3
   0  -1   9 750.650 20.4228   4
   0  -1   9 757.428 20.7289   2
   0  -1   9 764.043 20.4992   6
  -1   1  -9 1.24475 0.39033   3
  -1   1  -9 1.65679 0.47403   5
  -1   1  -9 1.22683 0.31219   1
   1  -1   9 0.44288 0.19858   4
   1  -1   9 1.13944 0.39423   6
   1  -1   9 0.74579 0.50362   2
  -2   1  -9 502.969 14.5983   5
  -2   1  -9 553.510 14.2398   1
  -2   1  -9 536.436 14.4565   3
   2  -1   9 527.535 14.5004   6
   2  -1   9 498.087 14.6761   2
   2  -1   9 530.640 14.2852   4
  -3   1  -9 44.4852 1.55470   1
  -3   1  -9 43.0533 1.78226   3
  -3   1  -9 40.5361 1.85500   5
   3  -1   9 42.3976 1.82371   6
   3  -1   9 42.4934 1.59102   4
   3  -1   9 42.4662 1.99734   2
  -4   1  -9 1.47425 0.47456   3
  -4   1  -9 1.55507 0.41127   1
  -4   1  -9 1.35812 0.53073   5
   4  -1   9 2.07438 0.39753   4
   4  -1   9 1.47920 0.55757   2
   4  -1   9 1.03896 0.43040   6
  -5   1  -9 130.737 4.24433   3
  -5   1  -9 125.725 4.25907   5
   5  -1   9 129.370 4.36938   6
   5  -1   9 127.490 4.38717   2
  -6   1  -9 80.9678 3.15532   3
  -6   1  -9 86.1207 3.12876   5
   6  -1   9 82.8687 3.28997   6
   6  -1   9 85.8789 3.23702   2
  -7   1  -9 149.294 4.81016   5
   7  -1   9 143.070 4.89399   2
   7  -1   9 144.796 5.10753   6
   8  -1   9 89.9617 3.74796   6
   9  -1   9 -0.0796 0.73168   6
 -10   1  -9 25.5299 2.27585   6
   8   0  -9 10.6387 1.37917   3
   8   0  -9 9.59324 1.36916   4
  -8   0   9 11.1918 1.51339   1
  -8   0   9 9.66999 1.33845   6
   7   0  -9 53.2462 2.77654   4
   7   0  -9 50.7704 2.61488   3
  -7   0   9 55.8676 2.71198   6
  -7   0   9 56.9157 2.89261   1
   6   0  -9 394.503 11.4635   3
   6   0  -9 388.242 11.5249   4
  -6   0   9 379.867 11.5461   1
  -6   0   9 389.693 11.4635   6
   5   0  -9 140.185 4.78104   3
   5   0  -9 146.903 4.89359   4
  -5   0   9 143.091 4.84460   6
  -5   0   9 142.311 4.89742   1
   4   0  -9 449.484 13.0522   3
   4   0  -9 456.237 13.0998   4
  -4   0   9 485.407 13.1872   1
  -4   0   9 455.382 13.0942   6
   3   0  -9 22.9817 1.18229   5
   3   0  -9 23.1512 1.33696   3
   3   0  -9 22.2265 1.28851   4
  -3   0   9 23.9544 1.25257   2
  -3   0   9 22.8278 1.37180   6
   2   0  -9 23.7794 1.20567   5
   2   0  -9 22.0487 1.16868   4
   2   0  -9 23.0483 1.21045   1
   2   0  -9 22.4425 1.24053   3
  -2   0   9 23.6478 1.33684   6
  -2   0   9 25.0401 1.27588   2
   1   0  -9 929.340 25.0443   1
   1   0  -9 929.232 25.1907   5
   1   0  -9 945.283 25.0272   4
   1   0  -9 930.741 25.1820   3
  -1   0   9 922.275 25.2059   6
  -1   0   9 937.848 25.2664   2
   0   0  -9 73.2750 2.60382   5
   0   0  -9 72.1167 2.53975   3
   0   0  -9 72.9446 2.32021   1
   0   0   9 69.9037 2.63603   2
   0   0   9 70.3439 2.55046   6
  -1   0  -9 469.181 13.2903   3
  -1   0  -9 472.915 13.3877   5
  -1   0  -9 482.431 12.9635   1
   1   0   9 482.714 13.4954   2
   1   0   9 497.245 13.0243   4
   1   0   9 477.012 13.3259   6
  -2   0  -9 178.334 4.81816   1
  -2   0  -9 167.024 5.30483   5
  -2   0  -9 171.635 5.20498   3
   2   0   9 170.815 5.24699   6
   2   0   9 172.113 4.85298   4
   2   0   9 169.851 5.39403   2
  -3   0  -9 451.716 12.3321   3
  -3   0  -9 432.213 12.4174   5
   3   0   9 449.350 12.4197   6
   3   0   9 428.858 12.4886   2
  -4   0  -9 1.66529 0.50803   5
  -4   0  -9 2.41914 0.55931   3
   4   0   9 1.54681 0.57769   2
   4   0   9 2.53125 0.59947   6
  -5   0  -9 1423.79 38.5989   3
  -5   0  -9 1442.11 38.6522   5
   5   0   9 1410.86 38.7357   2
   5   0   9 1466.75 38.7849   6
  -6   0  -9 24.6962 1.50932   5
  -6   0  -9 25.2259 1.56364   3
   6   0   9 25.2826 1.59953   2
   6   0   9 25.9365 1.64514   6
  -7   0  -9 107.736 3.83283   5
   7   0   9 107.278 4.10947   6
   7   0   9 112.088 3.97873   2
  -8   0  -9 15.2898 1.49762   3
   8   0   9 16.0830 1.56209   6
   9   0   9 50.9627 2.79249   6
   8  -1  -9 21.7888 1.92954   4
   8  -1  -9 22.1555 1.96565   3
  -8   1   9 23.1663 1.97822   6
  -8   1   9 20.1754 2.02307   1
   7  -1  -9 232.783 7.39674   4
   7  -1  -9 218.488 7.28509   3
  -7   1   9 222.073 7.38567   1
  -7   1   9 214.349 7.25375   6
   6  -1  -9 141.411 4.93472   4
   6  -1  -9 136.436 4.89910   3
  -6   1   9 136.582 4.92413   1
  -6   1   9 140.060 4.95474   6
   5  -1  -9 2.72844 0.71760   3
   5  -1  -9 3.14896 0.73253   4
  -5   1   9 4.91950 0.90561   6
  -5   1   9 3.14282 0.79503   1
   4  -1  -9 0.61773 0.48181   4
   4  -1  -9 0.70253 0.50871   3
  -4   1   9 0.05773 0.45298   1
  -4   1   9 0.74375 0.57525   6
   3  -1  -9 260.093 7.77978   3
   3  -1  -9 249.362 7.63969   4
  -3   1   9 261.588 7.71890   1
  -3   1   9 262.030 7.84602   6
  -3   1   9 276.259 7.58934   2
   2  -1  -9 60.2546 2.21745   5
   2  -1  -9 61.9633 2.36090   3
   2  -1  -9 60.3647 2.22899   4
  -2   1   9 62.1698 2.44645   6
  -2   1   9 60.9105 2.26196   1
  -2   1   9 60.1366 2.27130   2
   1  -1  -9 998.490 26.9565   5
   1  -1  -9 1002.15 27.0314   3
   1  -1  -9 1023.89 26.7723   4
  -1   1   9 968.910 27.0482   6
  -1   1   9 997.163 27.0133   2
  -1   1   9 1008.61 26.7971   1
   0  -1  -9 7.23066 0.77254   3
   0  -1  -9 9.08931 0.80311   5
   0   1   9 10.1288 0.87410   2
   0   1   9 8.11967 0.83526   6
  -1  -1  -9 214.751 6.55939   5
  -1  -1  -9 215.169 6.50900   3
  -1  -1  -9 232.155 6.07743   1
   1   1   9 229.072 6.09296   4
   1   1   9 215.813 6.53964   6
   1   1   9 212.394 6.61768   2
  -2  -1  -9 134.628 4.41227   5
  -2  -1  -9 141.096 4.37566   3
   2   1   9 139.297 4.42499   6
   2   1   9 137.800 4.51777   2
  -3  -1  -9 3.69914 0.57434   3
  -3  -1  -9 4.15056 0.64161   5
   3   1   9 2.85074 0.54400   6
   3   1   9 4.66520 0.71321   2
  -4  -1  -9 846.490 23.0531   3
  -4  -1  -9 839.281 23.1318   5
   4   1   9 851.179 23.2440   2
   4   1   9 845.382 23.1575   6
  -5  -1  -9 4.52076 0.75169   3
  -5  -1  -9 3.96011 0.66054   5
   5   1   9 4.85472 0.78689   6
   5   1   9 4.38471 0.76682   2
  -6  -1  -9 254.420 7.69872   3
  -6  -1  -9 258.860 7.67997   5
   6   1   9 254.345 7.76480   2
   6   1   9 246.239 7.80992   6
  -7  -1  -9 1.62993 0.60234   5
  -7  -1  -9 3.28820 0.80147   3
   7   1   9 2.85777 0.76929   6
   7   1   9 2.97655 0.71976   2
  -8  -1  -9 42.0754 2.07754   5
  -8  -1  -9 41.9579 2.27987   3
   8   1   9 38.9896 2.12422   2
   8   1   9 40.2863 2.33756   6
  -9  -1  -9 70.4838 3.23861   3
   9   1   9 68.1892 3.31947   6
 -10  -1  -9 135.564 5.07441   3
  10   1   9 119.986 5.05755   6
   8  -2  -9 3.11014 1.04426   3
   8  -2  -9 4.79845 1.16077   4
  -8   2   9 4.71983 1.22001   1
  -8   2   9 3.48699 1.09824   6
   7  -2  -9 26.3446 1.95035   4
   7  -2  -9 26.3273 2.01801   3
  -7   2   9 25.0973 2.02807   1
  -7   2   9 23.3615 1.98995   6
   6  -2  -9 0.98817 0.68059   4
   6  -2  -9 0.33284 0.62040   3
  -6   2   9 0.38621 0.73642   6
  -6   2   9 1.50245 0.75968   1
   5  -2  -9 24.4860 1.57739   4
   5  -2  -9 24.3276 1.63018   3
  -5   2   9 18.7871 1.59337   6
  -5   2   9 20.8581 1.55913   1
   4  -2  -9 90.8582 3.21769   4
   4  -2  -9 82.8264 3.25155   3
  -4   2   9 81.2577 3.28764   6
  -4   2   9 84.3137 3.20432   1
   3  -2  -9 -0.1937 0.36521   4
   3  -2  -9 -0.0903 0.42022   3
   3  -2  -9 -0.0169 0.11124   5
  -3   2   9 -0.3929 0.48850   6
  -3   2   9 -0.0272 0.41664   1
  -3   2   9 -0.0324 0.33540   2
   2  -2  -9 560.974 16.0882   3
   2  -2  -9 579.516 15.8788   5
   2  -2  -9 574.606 15.8763   4
  -2   2   9 595.884 15.9285   1
  -2   2   9 603.978 15.9812   2
  -2   2   9 562.434 16.1789   6
   1  -2  -9 10.8614 0.71649   4
   1  -2  -9 11.1937 0.97006   3
   1  -2  -9 11.7321 0.88882   5
  -1   2   9 12.3982 0.79373   1
  -1   2   9 11.2328 0.94759   2
  -1   2   9 10.7811 1.02969   6
   0  -2  -9 168.053 5.26583   3
   0  -2  -9 165.066 5.20571   5
   0  -2  -9 171.508 4.81444   4
   0   2   9 178.591 4.86884   1
   0   2   9 170.875 5.28955   2
   0   2   9 165.043 5.29365   6
  -1  -2  -9 480.956 13.4152   3
  -1  -2  -9 489.506 13.4497   5
   1   2   9 467.772 13.4837   2
   1   2   9 483.573 13.4702   6
  -2  -2  -9 193.234 5.87633   3
  -2  -2  -9 194.618 5.92420   5
   2   2   9 191.127 5.98668   2
   2   2   9 193.604 5.93171   6
  -3  -2  -9 20.4272 1.29472   5
  -3  -2  -9 20.5306 1.22038   3
   3   2   9 17.8123 1.24363   2
   3   2   9 20.7398 1.25054   6
  -4  -2  -9 192.107 5.91376   3
  -4  -2  -9 191.585 5.98211   5
   4   2   9 188.769 6.03253   2
   4   2   9 194.619 6.04200   6
  -5  -2  -9 2.31600 0.63205   3
  -5  -2  -9 1.99407 0.62431   5
   5   2   9 1.94745 0.61095   2
   5   2   9 3.03101 0.69789   6
  -6  -2  -9 15.0939 1.24788   5
  -6  -2  -9 14.5855 1.24569   3
   6   2   9 15.3062 1.28988   6
   6   2   9 14.5952 1.28962   2
  -7  -2  -9 49.8509 2.37623   3
  -7  -2  -9 46.9529 2.23536   5
   7   2   9 46.3660 2.37704   6
   7   2   9 50.8699 2.37512   2
  -8  -2  -9 16.0711 1.39584   5
  -8  -2  -9 17.1733 1.56690   3
   8   2   9 19.9210 1.71066   6
   8   2   9 16.1497 1.47693   2
  -9  -2  -9 194.161 6.61450   3
   9   2   9 197.084 6.83460   6
 -10  -2  -9 69.6841 3.37918   3
  10   2   9 70.3183 3.53664   6
   8  -3  -9 51.6522 3.11478   4
  -8   3   9 52.6316 3.05054   1
   7  -3  -9 0.42737 0.72282   4
   7  -3  -9 -0.7736 0.70217   3
  -7   3   9 -1.0128 0.77056   6
  -7   3   9 -0.1689 0.67669   1
   6  -3  -9 16.2996 1.59761   3
   6  -3  -9 15.8734 1.47679   4
  -6   3   9 16.1939 1.67385   6
  -6   3   9 14.8350 1.53073   1
   5  -3  -9 2.84754 0.78455   3
   5  -3  -9 2.78588 0.75514   4
  -5   3   9 2.39537 0.74986   1
  -5   3   9 1.58265 0.76079   6
   4  -3  -9 12.6288 1.27747   3
   4  -3  -9 16.0967 1.22060   4
  -4   3   9 9.35820 1.10919   6
  -4   3   9 14.1513 1.26334   1
   3  -3  -9 91.2078 3.45748   3
   3  -3  -9 97.6154 3.31983   4
  -3   3   9 93.9017 3.34112   1
  -3   3   9 92.0350 3.55263   6
   2  -3  -9 24.1799 1.25757   5
   2  -3  -9 26.3060 1.44471   3
   2  -3  -9 23.0388 1.23808   4
  -2   3   9 23.9730 1.30349   1
  -2   3   9 24.4689 1.30187   2
  -2   3   9 25.3154 1.58535   6
   1  -3  -9 23.1871 1.25673   5
   1  -3  -9 23.9917 1.09624   4
   1  -3  -9 23.5571 1.37455   3
  -1   3   9 22.7962 1.29829   2
  -1   3   9 21.6434 1.45119   6
  -1   3   9 23.8167 1.13872   1
   0  -3  -9 20.1805 1.20317   5
   0  -3  -9 19.2609 1.24942   3
   0   3   9 20.1582 1.32127   6
   0   3   9 18.4187 1.20805   2
  -1  -3  -9 156.743 4.88157   5
  -1  -3  -9 152.385 4.88208   3
   1   3   9 153.073 4.91649   2
   1   3   9 152.409 4.94530   6
  -2  -3  -9 278.015 8.08433   3
  -2  -3  -9 275.060 8.10315   5
   2   3   9 270.778 8.13288   6
   2   3   9 274.326 8.17910   2
  -3  -3  -9 171.590 5.49213   5
  -3  -3  -9 173.118 5.43370   3
   3   3   9 178.804 5.60314   2
   3   3   9 174.192 5.51955   6
  -4  -3  -9 215.375 6.63713   5
  -4  -3  -9 207.168 6.54263   3
   4   3   9 213.186 6.69725   2
   4   3   9 223.443 6.71111   6
  -5  -3  -9 150.794 4.92808   3
  -5  -3  -9 149.254 4.97241   5
   5   3   9 152.548 5.05053   6
   5   3   9 150.053 5.06789   2
  -6  -3  -9 71.1406 2.91606   5
  -6  -3  -9 72.4790 2.92334   3
   6   3   9 72.9591 3.02079   6
   6   3   9 73.8307 3.04312   2
  -7  -3  -9 1.03043 0.63074   3
  -7  -3  -9 0.98382 0.59396   5
   7   3   9 -0.2910 0.54272   2
   7   3   9 1.07703 0.70553   6
  -8  -3  -9 14.5880 1.36432   5
  -8  -3  -9 16.1560 1.58186   3
   8   3   9 12.9174 1.54043   6
   8   3   9 14.6448 1.45742   2
  -9  -3  -9 1.24829 0.85717   3
   9   3   9 2.15971 0.96473   6
 -10  -3  -9 122.871 4.84075   3
  10   3   9 122.758 5.01546   6
   7  -4  -9 7.49453 1.21317   4
   7  -4  -9 4.61529 1.14725   3
  -7   4   9 6.98424 1.23497   1
  -7   4   9 6.17942 1.30722   6
   6  -4  -9 21.0878 1.68112   4
   6  -4  -9 20.3759 1.79723   3
  -6   4   9 20.6270 1.72535   1
  -6   4   9 17.9767 1.82509   6
   5  -4  -9 10.5732 1.22415   4
   5  -4  -9 12.7924 1.41218   3
  -5   4   9 10.6015 1.33602   6
  -5   4   9 12.1683 1.32115   1
   4  -4  -9 14.8552 1.21494   4
   4  -4  -9 11.7915 1.24526   3
  -4   4   9 9.74493 1.10862   1
  -4   4   9 14.0791 1.45077   6
   3  -4  -9 4.59973 0.72265   4
   3  -4  -9 5.45117 0.87512   3
  -3   4   9 6.32834 1.00208   6
  -3   4   9 6.72593 0.84326   1
   2  -4  -9 46.0658 1.88095   4
   2  -4  -9 41.3040 2.06897   3
   2  -4  -9 48.0526 1.90904   5
  -2   4   9 45.9584 1.92809   2
  -2   4   9 42.8734 2.23060   6
  -2   4   9 47.5445 1.94182   1
   1  -4  -9 2.80837 0.46125   4
   1  -4  -9 1.50795 0.54583   3
   1  -4  -9 3.06910 0.58267   5
  -1   4   9 1.97549 0.60326   6
  -1   4   9 2.52774 0.56753   2
  -1   4   9 2.99685 0.49639   1
   0  -4  -9 66.7571 2.51337   5
   0  -4  -9 65.3238 2.59396   3
   0   4   9 65.7232 2.67696   6
   0   4   9 63.5179 2.54241   2
  -1  -4  -9 10.1488 0.99504   5
  -1  -4  -9 10.0141 0.98759   3
   1   4   9 8.47630 0.93292   2
   1   4   9 10.0830 0.97685   6
  -2  -4  -9 92.3739 3.31197   3
  -2  -4  -9 90.1503 3.31793   5
   2   4   9 91.8918 3.39312   2
   2   4   9 94.5335 3.39270   6
  -3  -4  -9 159.596 5.14087   3
  -3  -4  -9 161.044 5.21130   5
   3   4   9 158.430 5.19849   6
   3   4   9 163.211 5.29425   2
  -4  -4  -9 3.29219 0.72065   5
  -4  -4  -9 3.24245 0.63485   3
   4   4   9 2.99929 0.75213   2
   4   4   9 2.93659 0.71426   6
  -5  -4  -9 28.5442 1.62441   3
  -5  -4  -9 27.0688 1.65063   5
   5   4   9 26.0113 1.71657   2
   5   4   9 29.6799 1.73840   6
  -6  -4  -9 9.78285 1.06642   3
  -6  -4  -9 12.9005 1.22740   5
   6   4   9 11.8903 1.27182   2
   6   4   9 12.3932 1.20581   6
  -7  -4  -9 0.67546 0.59355   5
  -7  -4  -9 0.82235 0.62827   3
   7   4   9 0.10593 0.60711   2
   7   4   9 0.76105 0.65785   6
  -8  -4  -9 6.39913 1.01508   5
  -8  -4  -9 7.26926 1.16322   3
   8   4   9 7.14285 1.11467   2
   8   4   9 6.15829 1.13051   6
  -9  -4  -9 39.3072 2.24183   5
  -9  -4  -9 42.4800 2.46038   3
   9   4   9 41.0461 2.32529   2
   9   4   9 43.9603 2.62148   6
 -10  -4  -9 -0.1213 0.85173   3
  10   4   9 0.02652 0.83821   6
   7  -5  -9 2.43821 1.61517   3
   7  -5  -9 2.78105 0.99017   4
  -7   5   9 1.25849 0.87231   1
   6  -5  -9 27.9856 1.96801   4
   6  -5  -9 27.7312 2.11353   3
  -6   5   9 28.8592 2.04195   1
  -6   5   9 32.1709 2.30464   6
   5  -5  -9 9.09023 1.23745   3
   5  -5  -9 12.4151 1.32874   4
  -5   5   9 10.2938 1.28836   1
  -5   5   9 11.9845 1.49563   6
   4  -5  -9 1.87535 0.71394   3
   4  -5  -9 3.37658 0.74233   4
  -4   5   9 2.97986 0.88834   6
  -4   5   9 2.54901 0.75781   1
   3  -5  -9 0.41902 0.55386   3
   3  -5  -9 0.43017 0.46999   4
  -3   5   9 -0.3231 0.58444   6
  -3   5   9 -0.3077 0.45538   1
   2  -5  -9 137.952 4.36207   4
   2  -5  -9 130.818 4.63314   3
   2  -5  -9 152.332 5.25171   5
  -2   5   9 130.736 4.36398   1
  -2   5   9 133.035 4.78676   6
   1  -5  -9 12.1889 1.13379   3
   1  -5  -9 13.1818 1.06418   5
  -1   5   9 13.8170 1.09731   2
  -1   5   9 12.0817 1.24812   6
   0  -5  -9 10.9098 1.00890   5
   0  -5  -9 8.42639 0.93492   3
   0   5   9 11.7345 1.05411   2
   0   5   9 8.83090 1.02504   6
  -1  -5  -9 157.431 5.03552   5
  -1  -5  -9 156.033 5.03634   3
   1   5   9 152.887 5.11186   6
   1   5   9 151.658 5.04687   2
  -2  -5  -9 11.1366 1.08810   5
  -2  -5  -9 9.58980 1.01317   3
   2   5   9 11.8513 1.07498   6
   2   5   9 8.84316 1.01800   2
  -3  -5  -9 3.76082 0.74592   3
  -3  -5  -9 4.72541 0.76951   5
   3   5   9 3.69102 0.78205   2
   3   5   9 3.36288 0.71885   6
  -4  -5  -9 39.5775 1.92420   3
  -4  -5  -9 36.2354 1.96534   5
   4   5   9 39.3404 2.01508   6
   4   5   9 38.3767 2.04182   2
  -5  -5  -9 6.34349 0.93945   5
  -5  -5  -9 5.25858 0.81566   3
   5   5   9 7.64978 1.06206   2
   5   5   9 6.97744 0.99062   6
  -6  -5  -9 1.24066 0.69498   5
  -6  -5  -9 2.86782 0.74276   3
   6   5   9 1.68578 0.72608   6
   6   5   9 2.40656 0.79123   2
  -7  -5  -9 2.12637 0.75579   5
  -7  -5  -9 0.51707 0.65775   3
   7   5   9 0.58896 0.63516   6
   7   5   9 0.43193 0.66704   2
  -8  -5  -9 22.0576 1.74990   3
  -8  -5  -9 19.8077 1.66807   5
   8   5   9 22.2993 1.86007   6
   8   5   9 21.6716 1.73768   2
  -9  -5  -9 0.25893 0.62046   5
  -9  -5  -9 0.33246 0.71742   3
   9   5   9 -0.2723 0.77281   6
   9   5   9 -0.5185 0.68808   2
 -10  -5  -9 38.3101 2.68842   3
  10   5   9 39.0964 2.88226   6
   6  -6  -9 -1.0816 0.59271   4
   6  -6  -9 0.06145 0.77281   3
  -6   6   9 0.93041 0.90624   6
  -6   6   9 0.08197 0.74345   1
   5  -6  -9 1.29664 0.76320   3
   5  -6  -9 1.05111 0.67309   4
  -5   6   9 1.35009 0.95545   6
  -5   6   9 1.27314 0.74821   1
   4  -6  -9 1.88929 0.75054   3
   4  -6  -9 1.06949 0.62861   4
  -4   6   9 0.93251 0.65724   1
  -4   6   9 1.28180 0.83350   6
   3  -6  -9 93.6538 3.75185   3
   3  -6  -9 101.208 3.58476   4
  -3   6   9 99.4031 3.62935   1
  -3   6   9 98.1217 3.95676   6
   2  -6  -9 0.09114 0.52374   3
  -2   6   9 -0.3079 0.59270   6
   1  -6  -9 77.8674 2.93304   5
   1  -6  -9 74.8167 3.06931   3
  -1   6   9 84.2820 3.02470   2
  -1   6   9 76.6818 3.21330   6
   0  -6  -9 177.696 5.72689   3
   0  -6  -9 177.888 5.61790   5
   0   6   9 179.249 5.85719   6
   0   6   9 174.287 5.65753   2
  -1  -6  -9 38.6171 1.93099   5
  -1  -6  -9 42.0068 2.01952   3
   1   6   9 38.6369 2.00903   2
   1   6   9 39.7946 2.03021   6
  -2  -6  -9 -0.0262 0.47453   5
  -2  -6  -9 1.09030 0.52037   3
   2   6   9 1.41299 0.62817   6
   2   6   9 0.66697 0.56674   2
  -3  -6  -9 22.9744 1.59445   5
  -3  -6  -9 24.0825 1.55736   3
   3   6   9 25.8062 1.62249   6
   3   6   9 23.3779 1.57762   2
  -4  -6  -9 1.06051 0.54941   3
  -4  -6  -9 0.57827 0.54710   5
   4   6   9 0.70774 0.61556   2
   4   6   9 1.07297 0.64215   6
  -5  -6  -9 2.67604 0.71407   3
  -5  -6  -9 0.99412 0.68513   5
   5   6   9 2.08510 0.76956   2
   5   6   9 2.83625 0.79267   6
  -6  -6  -9 3.38299 0.82175   5
  -6  -6  -9 2.50224 0.71794   3
   6   6   9 3.63228 0.84514   6
   6   6   9 3.49166 0.90139   2
  -7  -6  -9 9.14644 1.11471   3
  -7  -6  -9 13.4651 1.41290   5
   7   6   9 14.0300 1.53264   2
   7   6   9 11.9471 1.44305   6
  -8  -6  -9 53.1863 2.64817   5
  -8  -6  -9 46.6531 2.49024   3
   8   6   9 50.6892 2.76105   6
   8   6   9 47.7272 2.65826   2
  -9  -6  -9 4.16373 0.96532   5
  -9  -6  -9 4.86594 1.09656   3
   9   6   9 3.34034 1.00241   2
   9   6   9 3.76711 1.09546   6
   6  -7  -9 11.7602 1.46154   4
  -6   7   9 14.2265 1.66787   1
   5  -7  -9 19.0237 1.82517   3
   5  -7  -9 18.8776 1.61438   4
  -5   7   9 19.7594 1.78282   1
  -5   7   9 21.0336 2.05435   6
   4  -7  -9 34.9446 2.21685   3
  -4   7   9 36.1236 2.39400   6
   3  -7  -9 0.59480 0.62492   3
  -3   7   9 -0.0092 0.73920   6
   2  -7  -9 9.67405 1.21219   3
  -2   7   9 10.4470 1.35553   6
   1  -7  -9 131.587 4.44209   5
   1  -7  -9 133.028 4.61567   3
  -1   7   9 127.093 4.69919   6
  -1   7   9 135.550 4.48467   2
   0  -7  -9 25.1210 1.59262   3
   0  -7  -9 22.3783 1.47831   5
   0   7   9 24.9160 1.71047   6
   0   7   9 23.3397 1.61436   2
  -1  -7  -9 92.8973 3.49486   5
  -1  -7  -9 89.4534 3.45427   3
   1   7   9 91.7427 3.53843   2
   1   7   9 93.3601 3.61157   6
  -2  -7  -9 19.5669 1.43938   3
  -2  -7  -9 20.3422 1.51606   5
   2   7   9 19.3797 1.48998   6
   2   7   9 19.4253 1.52273   2
  -3  -7  -9 40.6428 2.07947   3
  -3  -7  -9 37.2288 2.11992   5
   3   7   9 38.5655 2.17469   2
   3   7   9 40.0023 2.11154   6
  -4  -7  -9 6.91447 1.05439   5
  -4  -7  -9 6.71950 0.97859   3
   4   7   9 6.89443 1.12062   2
   4   7   9 6.73877 0.97656   6
  -5  -7  -9 563.372 16.5791   3
  -5  -7  -9 598.329 16.9135   5
   5   7   9 595.917 16.9523   2
   5   7   9 589.911 16.8047   6
  -6  -7  -9 -1.0666 0.50619   3
  -6  -7  -9 -0.1040 0.69376   5
   6   7   9 0.13533 0.68608   2
   6   7   9 -0.9059 0.59606   6
  -7  -7  -9 0.83878 0.64583   3
  -7  -7  -9 3.57644 0.92849   5
   7   7   9 2.40551 0.91318   2
   7   7   9 3.06048 0.89647   6
  -8  -7  -9 7.83916 1.16099   3
  -8  -7  -9 8.38343 1.21824   5
   8   7   9 9.22360 1.37192   6
   8   7   9 9.43524 1.38545   2
  -9  -7  -9 -0.4490 0.68359   3
  -9  -7  -9 0.29392 0.72247   5
   9   7   9 -0.4027 0.82057   2
   9   7   9 -0.2646 0.79029   6
   4  -8  -9 -0.1331 0.69812   3
  -4   8   9 -0.3265 0.81873   6
   3  -8  -9 23.5923 1.83329   3
  -3   8   9 24.7121 2.01219   6
   2  -8  -9 0.65726 0.71862   3
  -2   8   9 1.27649 0.80133   6
   1  -8  -9 253.284 7.85830   3
  -1   8   9 247.370 7.98481   6
   0  -8  -9 5.13586 0.87214   5
   0  -8  -9 4.69532 0.89631   3
   0   8   9 6.47538 1.08117   6
   0   8   9 4.58068 0.88000   2
  -1  -8  -9 114.247 4.14397   3
  -1  -8  -9 107.163 4.11961   5
   1   8   9 110.485 4.18855   2
   1   8   9 121.143 4.31339   6
  -2  -8  -9 244.401 7.83659   5
  -2  -8  -9 257.751 7.77589   3
   2   8   9 249.862 7.90822   2
   2   8   9 246.054 7.83396   6
  -3  -8  -9 17.8723 1.50593   5
  -3  -8  -9 19.1840 1.54513   3
   3   8   9 20.9492 1.60187   6
   3   8   9 21.0332 1.68860   2
  -4  -8  -9 208.444 6.56791   3
  -4  -8  -9 203.262 6.78666   5
   4   8   9 197.781 6.79092   2
   4   8   9 202.200 6.65050   6
  -5  -8  -9 3.86016 0.98055   5
  -5  -8  -9 4.38374 0.91810   3
   5   8   9 5.02804 1.02885   6
   5   8   9 4.34471 1.04934   2
  -6  -8  -9 34.6805 2.03370   3
  -6  -8  -9 31.2938 2.21219   5
   6   8   9 35.3055 2.16607   6
   6   8   9 32.7731 2.23916   2
  -7  -8  -9 4.61961 1.09880   5
  -7  -8  -9 2.66948 0.81687   3
   7   8   9 4.02611 1.13029   2
   7   8   9 3.96011 0.98472   6
  -8  -8  -9 47.6633 2.71118   5
  -8  -8  -9 46.5999 2.52015   3
   8   8   9 46.2172 2.71365   6
   8   8   9 47.8939 2.82981   2
   9   8   9 33.8553 2.42673   6
   4  -9  -9 164.742 6.39560   3
  -4   9   9 168.138 6.90069   6
   3  -9  -9 40.1249 2.45336   3
  -3   9   9 41.3823 2.59313   6
   2  -9  -9 221.733 7.19424   3
  -2   9   9 215.690 7.32757   6
   1  -9  -9 6.90715 1.06519   3
  -1   9   9 4.90097 1.08034   6
   0  -9  -9 54.5488 2.56856   3
   0  -9  -9 52.8808 2.56784   5
   0   9   9 54.1124 2.61325   2
   0   9   9 54.6813 2.72747   6
  -1  -9  -9 96.3811 3.59519   3
  -1  -9  -9 87.5316 3.58831   5
   1   9   9 85.6219 3.63099   6
   1   9   9 89.7576 3.67939   2
  -2  -9  -9 98.0757 3.96305   5
  -2  -9  -9 103.860 3.86142   3
   2   9   9 99.3711 3.93321   6
   2   9   9 103.317 4.09829   2
  -3  -9  -9 63.0469 2.98146   5
  -3  -9  -9 59.4440 2.74894   3
   3   9   9 58.7691 2.77787   6
   3   9   9 57.9443 2.96034   2
  -4  -9  -9 468.198 14.0633   5
   4   9   9 483.716 14.1714   2
   4   9   9 469.082 13.8492   6
  -5  -9  -9 83.0119 3.71189   5
  -5  -9  -9 81.5380 3.42273   3
   5   9   9 83.2391 3.57986   6
   5   9   9 82.2040 3.75672   2
  -6  -9  -9 7.11684 1.12335   3
  -6  -9  -9 7.03658 1.22548   5
   6   9   9 9.53845 1.32809   6
   6   9   9 10.9270 1.54916   2
  -7  -9  -9 73.4239 3.57870   5
  -7  -9  -9 66.8062 3.13300   3
   7   9   9 71.7701 3.60169   2
   7   9   9 76.7654 3.44967   6
   3 -10  -9 3.11604 1.16858   3
  -3  10   9 2.05299 1.49008   6
   2 -10  -9 3.48024 0.91570   3
  -2  10   9 0.48934 0.84346   6
   1 -10  -9 -0.2524 0.66022   3
  -1  10   9 0.60564 0.77323   6
   0 -10  -9 3.63554 0.87424   3
   0  10   9 4.99637 1.08932   6
  -1 -10  -9 234.255 7.72536   5
  -1 -10  -9 244.581 7.62463   3
   1  10   9 232.618 7.70007   6
   1  10   9 246.016 7.84886   2
  -2 -10  -9 13.5265 1.38976   3
  -2 -10  -9 10.4248 1.35180   5
   2  10   9 12.2308 1.46878   2
   2  10   9 12.3305 1.41323   6
  -3 -10  -9 49.2253 2.75831   5
  -3 -10  -9 51.1551 2.54310   3
   3  10   9 47.0144 2.80873   2
   3  10   9 47.1867 2.55742   6
  -4 -10  -9 134.996 5.23676   5
   4  10   9 139.790 5.32883   2
   4  10   9 130.233 5.65954   6
  -5 -10  -9 0.88919 0.87300   5
   5  10   9 0.66392 0.89319   2
  -6 -10  -9 111.146 5.00792   5
   6  10   9 123.997 5.08097   2
  -1 -11  -9 -0.5926 0.72382   5
   1  11   9 0.37723 0.81484   2
  -2 -11  -9 50.4240 2.79589   5
   2  11   9 48.8993 2.84021   2
  -3 -11  -9 8.91892 1.45212   5
   3  11   9 11.8493 1.58931   2
  -4 -11  -9 82.8423 4.69328   5
   4  11   9 75.5999 4.47928   2
   4   9 -10 1.05813 0.86595   5
  -4  -9  10 0.45668 0.90239   2
   3   9 -10 0.18185 0.75788   1
   3   9 -10 -0.4257 0.70648   5
  -3  -9  10 0.94023 0.91916   2
  -3  -9  10 -0.1166 0.83000   4
   2   9 -10 -0.7201 0.58576   5
   2   9 -10 -0.0735 0.73102   1
  -2  -9  10 0.08281 0.77568   4
  -2  -9  10 -0.6922 0.74795   2
   1   9 -10 7.92935 1.28952   5
   1   9 -10 5.81077 1.13287   1
  -1  -9  10 6.56395 1.20044   2
  -1  -9  10 5.37988 1.16744   4
   0   9 -10 37.5653 2.24505   5
   0  -9  10 39.1416 2.46389   4
   0  -9  10 33.8267 2.37837   2
  -1   9 -10 7.48353 1.22249   1
  -1   9 -10 8.52861 1.24944   5
   1  -9  10 8.12842 1.36490   4
   1  -9  10 6.98141 1.31975   2
  -2   9 -10 -0.1688 0.69800   5
  -2   9 -10 0.16397 0.71123   1
   2  -9  10 -0.7381 0.70953   2
   2  -9  10 1.23386 0.88938   4
  -3   9 -10 0.86922 0.73560   5
  -3   9 -10 0.93629 0.78613   1
   3  -9  10 1.24541 0.90843   2
   3  -9  10 0.11799 0.84940   4
  -4   9 -10 5.03710 0.99735   5
  -4   9 -10 3.98789 1.25743   1
   4  -9  10 4.06349 1.76906   4
   4  -9  10 3.65109 1.10258   2
   6   8 -10 13.8970 1.69624   5
   5   8 -10 13.9875 1.48060   5
   5   8 -10 15.0875 1.73811   1
  -5  -8  10 11.8889 1.48408   2
  -5  -8  10 10.4690 1.52513   4
   4   8 -10 19.7675 1.84159   1
   4   8 -10 17.2639 1.60401   5
  -4  -8  10 19.6756 1.90256   4
  -4  -8  10 18.1395 1.79098   2
   3   8 -10 2.38413 0.84690   5
   3   8 -10 2.31347 0.91746   1
  -3  -8  10 1.68198 0.84126   2
  -3  -8  10 2.02564 0.84806   4
   2   8 -10 83.4090 3.61117   1
   2   8 -10 87.3280 3.60656   5
  -2  -8  10 87.0887 3.76462   4
  -2  -8  10 82.6044 3.68111   2
   1   8 -10 5.03856 1.00692   1
   1   8 -10 4.48693 0.99522   5
  -1  -8  10 3.47069 1.00287   4
  -1  -8  10 4.63132 1.00094   2
   0   8 -10 23.5398 1.81504   5
   0  -8  10 22.8936 1.87933   4
   0  -8  10 24.4526 1.93568   2
  -1   8 -10 0.00427 0.58065   1
  -1   8 -10 -1.3426 0.63613   5
   1  -8  10 0.36591 0.71513   4
   1  -8  10 -0.5594 0.71876   2
  -2   8 -10 9.47269 1.25034   5
  -2   8 -10 9.44785 1.25815   1
   2  -8  10 9.68861 1.37906   2
   2  -8  10 8.69664 1.32360   4
  -3   8 -10 0.22647 0.64384   1
  -3   8 -10 -0.1951 0.62721   5
   3  -8  10 0.22022 0.82223   2
   3  -8  10 0.79016 0.82164   4
  -4   8 -10 10.8988 1.27939   5
  -4   8 -10 11.0915 1.38518   1
   4  -8  10 14.0666 1.67527   4
   4  -8  10 11.8806 1.55732   2
  -5   8 -10 8.37631 1.30092   1
   5  -8  10 5.72685 1.27932   4
   6   7 -10 11.4237 1.58600   1
  -6  -7  10 13.1617 1.71085   4
   5   7 -10 11.3135 1.28586   5
   5   7 -10 10.5351 1.43130   1
  -5  -7  10 10.6208 1.35136   2
  -5  -7  10 10.2306 1.46913   4
   4   7 -10 6.71222 1.10054   5
   4   7 -10 5.55076 1.12939   1
  -4  -7  10 7.38482 1.22733   4
  -4  -7  10 7.08742 1.17264   2
   3   7 -10 68.8786 2.98194   5
   3   7 -10 67.6670 3.09615   1
  -3  -7  10 67.2980 3.15383   4
  -3  -7  10 61.8285 3.02092   2
   2   7 -10 43.1620 2.35752   1
   2   7 -10 44.0450 2.34899   5
  -2  -7  10 47.9348 2.48564   2
  -2  -7  10 46.1481 2.48242   4
   1   7 -10 42.3774 2.26964   5
   1   7 -10 44.4342 2.28528   1
  -1  -7  10 41.9572 2.33434   4
  -1  -7  10 41.4406 2.38503   2
   0   7 -10 0.70633 0.60016   5
   0   7 -10 0.90419 0.66416   1
   0  -7  10 0.97149 0.72424   2
   0  -7  10 -0.3167 0.58893   4
  -1   7 -10 1.29143 0.72846   5
  -1   7 -10 2.55096 0.75981   1
   1  -7  10 1.15959 0.82338   2
   1  -7  10 1.99280 0.75562   4
  -2   7 -10 131.488 4.64973   5
  -2   7 -10 130.526 4.60816   1
   2  -7  10 135.468 4.81492   4
   2  -7  10 116.257 4.68043   2
  -3   7 -10 4.29726 0.89697   5
  -3   7 -10 4.88116 0.92951   1
   3  -7  10 3.84819 0.99180   4
   3  -7  10 4.81240 1.06088   2
  -4   7 -10 208.291 6.82576   5
  -4   7 -10 212.066 6.94343   1
   4  -7  10 221.931 7.18075   2
   4  -7  10 213.556 7.18138   4
  -5   7 -10 1.69712 0.73369   5
  -5   7 -10 2.70671 0.85318   1
   5  -7  10 1.15126 0.85194   4
   5  -7  10 2.14427 0.88489   2
  -6   7 -10 1.15993 0.75348   1
   6  -7  10 -0.1813 0.80972   4
   6   6 -10 106.547 4.41826   1
  -6  -6  10 102.736 4.34899   4
   5   6 -10 6.35805 1.14789   1
   5   6 -10 6.67186 0.99479   5
  -5  -6  10 5.92557 1.10782   4
  -5  -6  10 6.72856 1.11491   2
   4   6 -10 514.036 15.0482   1
   4   6 -10 513.387 14.7717   5
  -4  -6  10 529.290 14.9563   2
  -4  -6  10 507.275 15.0388   4
   3   6 -10 77.5519 3.20199   5
   3   6 -10 79.3928 3.33381   1
  -3  -6  10 79.6875 3.36924   4
  -3  -6  10 83.3853 3.38868   2
   2   6 -10 129.760 4.59798   5
   2   6 -10 134.893 4.66975   1
  -2  -6  10 133.089 4.71789   4
  -2  -6  10 125.528 4.69145   2
   1   6 -10 1.82586 0.70609   5
   1   6 -10 0.94959 0.59885   1
  -1  -6  10 1.27339 0.64439   4
  -1  -6  10 2.00349 0.69951   2
   0   6 -10 128.211 4.48843   5
   0  -6  10 126.665 4.48955   4
   0  -6  10 119.520 4.50340   2
  -1   6 -10 1.26606 0.64975   5
  -1   6 -10 0.77657 0.58227   1
   1  -6  10 0.51796 0.65400   2
   1  -6  10 1.16876 0.65278   4
  -2   6 -10 99.0535 3.68075   1
  -2   6 -10 98.0808 3.75792   5
   2  -6  10 101.417 3.94310   2
   2  -6  10 101.912 3.86572   4
  -3   6 -10 25.3620 1.64619   1
  -3   6 -10 23.7939 1.66292   5
   3  -6  10 25.5742 1.75711   4
   3  -6  10 28.7943 1.90903   2
  -4   6 -10 83.3204 3.38478   5
  -4   6 -10 89.3164 3.42680   1
   4  -6  10 83.3054 3.55261   2
   4  -6  10 88.8346 3.63967   4
  -5   6 -10 35.9613 1.95431   5
  -5   6 -10 33.6684 2.02015   1
   5  -6  10 36.5218 2.21680   2
   5  -6  10 35.9173 2.23946   4
  -6   6 -10 3.94847 0.91643   1
   6  -6  10 3.71428 1.01679   4
   7   5 -10 26.8158 2.14805   1
  -7  -5  10 26.1342 2.17174   4
   6   5 -10 60.1077 3.13348   1
  -6  -5  10 67.2975 3.18185   4
   5   5 -10 224.697 7.45994   1
   5   5 -10 221.895 7.04708   5
  -5  -5  10 229.712 7.21742   2
  -5  -5  10 231.983 7.46008   4
   4   5 -10 68.0133 3.00975   1
   4   5 -10 66.8159 2.78549   5
  -4  -5  10 68.6802 2.93128   2
  -4  -5  10 61.6971 2.93000   4
   3   5 -10 2.14315 0.70194   1
   3   5 -10 2.69534 0.67530   5
  -3  -5  10 1.69572 0.72401   4
  -3  -5  10 1.18587 0.67521   2
   2   5 -10 18.1342 1.37958   5
   2   5 -10 16.2364 1.35286   1
  -2  -5  10 15.6477 1.41484   2
  -2  -5  10 17.0220 1.36950   4
   1   5 -10 83.8799 3.24222   5
   1   5 -10 82.9387 3.19709   1
  -1  -5  10 84.8718 3.37711   2
  -1  -5  10 84.3550 3.27555   4
   0   5 -10 25.6303 1.64064   5
   0   5 -10 25.8498 1.53869   1
   0  -5  10 26.2934 1.61309   4
   0  -5  10 25.8851 1.73238   2
  -1   5 -10 743.822 20.1722   1
  -1   5 -10 714.245 20.2940   5
   1  -5  10 733.384 20.4346   2
   1  -5  10 726.611 20.2771   4
  -2   5 -10 21.1743 1.50716   5
  -2   5 -10 21.2679 1.38999   1
   2  -5  10 25.4483 1.58272   4
   2  -5  10 23.6948 1.69523   2
  -3   5 -10 99.3526 3.71214   5
  -3   5 -10 98.6178 3.58318   1
   3  -5  10 100.192 3.88601   2
   3  -5  10 105.515 3.79083   4
  -4   5 -10 118.594 4.12649   1
  -4   5 -10 118.891 4.21569   5
   4  -5  10 116.908 4.38338   2
   4  -5  10 121.399 4.33906   4
  -5   5 -10 34.8119 1.90201   1
  -5   5 -10 37.4659 1.95677   5
   5  -5  10 37.5722 2.13788   4
   5  -5  10 38.5819 2.19879   2
  -6   5 -10 19.5425 1.69560   5
   6  -5  10 18.6904 1.63834   2
   6   4 -10 0.64537 0.71658   1
   5   4 -10 713.343 20.1337   5
   5   4 -10 715.478 20.4248   1
  -5  -4  10 699.533 20.3513   4
  -5  -4  10 759.420 21.4757   2
   4   4 -10 121.381 4.35246   1
   4   4 -10 114.345 4.03477   5
  -4  -4  10 122.064 4.21422   2
  -4  -4  10 113.129 4.24376   4
   3   4 -10 72.0370 2.83805   5
   3   4 -10 72.1311 2.94494   1
  -3  -4  10 73.9324 2.96859   2
  -3  -4  10 72.0653 2.93726   4
   2   4 -10 285.748 8.76702   5
   2   4 -10 304.445 8.82959   1
  -2  -4  10 298.043 8.83413   4
  -2  -4  10 295.492 8.90493   2
   1   4 -10 100.985 3.56106   1
   1   4 -10 103.820 3.66794   5
  -1  -4  10 96.7130 3.68909   2
  -1  -4  10 102.391 3.61576   4
   0   4 -10 33.4632 1.65592   1
   0   4 -10 31.2287 1.74802   5
   0  -4  10 32.9444 1.81033   2
   0  -4  10 32.0304 1.68279   4
  -1   4 -10 39.8895 1.99640   5
  -1   4 -10 37.3496 1.77494   1
   1  -4  10 39.2394 1.89706   4
   1  -4  10 41.1539 2.10530   2
  -2   4 -10 0.46992 0.41828   1
  -2   4 -10 -0.1642 0.51232   5
   2  -4  10 0.13006 0.53426   2
   2  -4  10 -0.3401 0.44766   4
  -3   4 -10 31.7660 1.59527   1
  -3   4 -10 31.9336 1.78288   5
   3  -4  10 31.4739 1.69091   4
   3  -4  10 31.9680 1.87735   2
  -4   4 -10 202.216 6.17889   1
  -4   4 -10 198.304 6.34561   5
   4  -4  10 200.138 6.51505   2
   4  -4  10 203.445 6.34275   4
  -5   4 -10 2.46523 0.63713   1
  -5   4 -10 2.07272 0.65927   5
   5  -4  10 1.33741 0.72731   2
   5  -4  10 3.12028 0.74830   4
  -6   4 -10 38.1996 2.01638   3
  -6   4 -10 38.4343 1.97214   5
   6  -4  10 37.2614 2.05070   6
   6  -4  10 37.5739 2.12524   2
  -7   4 -10 217.842 6.99028   3
  -7   4 -10 227.417 8.16276   6
  -8   4 -10 1.77489 1.31462   6
  -8   4 -10 2.25921 0.81739   3
  -8  -3  10 55.6020 4.32089   1
   7   3 -10 0.01904 0.71049   4
  -7  -3  10 1.44578 0.90601   1
   6   3 -10 186.436 6.31647   4
   5   3 -10 112.606 4.10918   4
   5   3 -10 106.648 4.12684   1
   4   3 -10 80.8917 2.94707   5
   4   3 -10 77.2232 3.17947   1
  -4  -3  10 79.5673 3.04757   2
   3   3 -10 54.7088 2.29633   5
   3   3 -10 56.2912 2.44487   1
  -3  -3  10 55.2137 2.39626   4
  -3  -3  10 54.1783 2.39489   2
   2   3 -10 53.8069 2.24101   1
   2   3 -10 50.1543 2.19999   5
  -2  -3  10 52.2327 2.31951   2
  -2  -3  10 52.5654 2.23122   4
   1   3 -10 2.87576 0.58722   1
   1   3 -10 5.43535 0.78025   5
  -1  -3  10 3.26900 0.68287   2
  -1  -3  10 2.73539 0.58939   4
   0   3 -10 168.854 5.14065   1
   0   3 -10 167.471 5.32710   5
   0  -3  10 163.439 5.39827   2
   0  -3  10 163.210 5.16979   4
  -1   3 -10 736.632 20.7307   5
  -1   3 -10 721.276 20.4626   1
  -1   3 -10 779.838 20.3639   3
   1  -3  10 785.057 20.3702   6
   1  -3  10 745.412 20.5654   4
   1  -3  10 740.445 20.8304   2
  -2   3 -10 21.1580 1.42408   5
  -2   3 -10 23.7229 1.20357   3
  -2   3 -10 23.3490 1.24587   1
   2  -3  10 22.5728 1.19747   6
   2  -3  10 22.8626 1.29459   4
   2  -3  10 21.4349 1.50730   2
  -3   3 -10 738.423 19.8659   3
  -3   3 -10 737.716 19.8735   1
  -3   3 -10 715.955 20.1923   5
   3  -3  10 725.874 20.3310   2
   3  -3  10 731.768 20.0000   4
   3  -3  10 726.360 19.9187   6
  -4   3 -10 0.38759 0.52595   5
  -4   3 -10 0.14195 0.38978   3
  -4   3 -10 0.19281 0.38028   1
   4  -3  10 0.36161 0.56546   2
   4  -3  10 0.00836 0.41433   6
   4  -3  10 -0.0015 0.43548   4
  -5   3 -10 3.86478 0.68205   3
  -5   3 -10 2.55864 0.69163   5
   5  -3  10 2.24445 0.73101   2
   5  -3  10 3.54282 0.69030   6
  -6   3 -10 265.758 7.98300   3
  -6   3 -10 277.765 8.09273   5
   6  -3  10 271.991 8.16449   6
   6  -3  10 246.511 8.12345   2
  -7   3 -10 8.72384 1.06338   3
   7  -3  10 11.1823 1.30877   6
  -8   3 -10 113.810 4.35477   3
  -8   3 -10 117.142 4.53443   6
  -9   3 -10 14.6823 1.70449   6
   8   2 -10 47.8837 2.82840   4
  -8  -2  10 48.4098 2.94393   1
   7   2 -10 18.0042 1.69275   4
  -7  -2  10 18.8743 1.86620   1
   6   2 -10 11.1134 1.33690   4
  -6  -2  10 13.5182 1.53348   1
   5   2 -10 282.034 8.63587   4
   5   2 -10 281.262 8.52581   3
   4   2 -10 28.3017 1.51156   3
   4   2 -10 26.5782 1.61744   4
   4   2 -10 28.6534 1.48858   5
   4   2 -10 28.9611 1.68958   1
  -4  -2  10 28.6632 1.56367   2
  -4  -2  10 33.4622 1.63812   6
   3   2 -10 256.762 7.91550   1
   3   2 -10 267.997 7.69509   3
   3   2 -10 260.616 7.77217   5
  -3  -2  10 274.485 7.74701   6
  -3  -2  10 261.280 7.86059   2
   2   2 -10 73.0040 2.56682   3
   2   2 -10 76.5302 2.79117   1
   2   2 -10 76.4060 2.78914   5
  -2  -2  10 73.0236 2.74102   4
  -2  -2  10 76.8937 2.63776   6
  -2  -2  10 70.7941 2.82693   2
   1   2 -10 10.8058 0.89162   1
   1   2 -10 10.1710 0.99317   5
   1   2 -10 9.91825 0.78347   3
  -1  -2  10 10.3058 0.83832   6
  -1  -2  10 9.66763 0.86629   4
  -1  -2  10 10.7607 1.04892   2
   0   2 -10 1229.50 32.8848   1
   0   2 -10 1265.38 32.8657   3
   0   2 -10 1156.79 33.0980   5
   0  -2  10 1223.40 32.9291   4
   0  -2  10 1279.33 32.8800   6
   0  -2  10 1204.92 33.2058   2
  -1   2 -10 -0.2254 0.39708   5
  -1   2 -10 -0.0188 0.32125   3
  -1   2 -10 0.01925 0.32028   1
   1  -2  10 0.09686 0.35708   4
   1  -2  10 -0.0136 0.48392   2
   1  -2  10 -0.3167 0.31901   6
  -2   2 -10 542.660 14.8609   3
  -2   2 -10 558.110 14.7831   1
  -2   2 -10 514.477 15.1048   5
   2  -2  10 538.628 14.8957   6
   2  -2  10 542.949 15.2627   2
  -3   2 -10 124.598 4.05389   3
  -3   2 -10 122.635 4.26019   5
  -3   2 -10 135.911 3.96455   1
   3  -2  10 124.478 4.40255   2
   3  -2  10 126.806 4.13816   6
  -4   2 -10 7.02937 0.91488   5
  -4   2 -10 8.11911 0.86519   3
   4  -2  10 9.26226 0.94200   6
   4  -2  10 9.96096 1.11847   2
  -5   2 -10 0.23601 0.46286   3
  -5   2 -10 0.50267 0.51905   5
   5  -2  10 0.25105 0.47843   6
   5  -2  10 0.14101 0.52030   2
  -6   2 -10 664.667 17.9903   5
  -6   2 -10 626.787 17.8912   3
   6  -2  10 628.232 18.0895   2
   6  -2  10 650.190 18.1054   6
  -7   2 -10 13.0271 1.19609   5
  -7   2 -10 10.1539 1.12913   3
   7  -2  10 13.5228 1.35105   2
   7  -2  10 11.4027 1.29357   6
  -8   2 -10 80.3920 3.40638   3
   8  -2  10 79.4387 3.50334   6
  -9   2 -10 49.0211 2.81809   6
  -9   2 -10 42.6246 2.58109   3
   8   1 -10 93.6481 4.03792   4
   8   1 -10 85.7491 4.29793   3
  -8  -1  10 90.8361 4.13719   1
   7   1 -10 6.34943 1.02179   3
   7   1 -10 6.70037 1.20206   4
  -7  -1  10 7.59487 1.18154   6
  -7  -1  10 7.38663 1.28146   1
   6   1 -10 349.546 10.4254   3
   6   1 -10 361.596 10.6708   4
  -6  -1  10 341.620 10.6538   1
  -6  -1  10 350.055 10.4482   6
   5   1 -10 0.11436 0.48555   3
   5   1 -10 0.38665 0.56076   4
  -5  -1  10 -0.2435 0.60359   1
  -5  -1  10 -0.2922 0.55412   6
   4   1 -10 14.6533 1.18109   4
   4   1 -10 15.0715 1.10507   5
   4   1 -10 14.7305 1.14888   3
  -4  -1  10 13.8405 1.18287   6
   3   1 -10 10.4763 0.97094   1
   3   1 -10 11.1887 0.93414   3
   3   1 -10 10.3034 0.92318   5
   3   1 -10 10.4038 0.96332   4
  -3  -1  10 10.4880 0.95572   2
  -3  -1  10 9.96856 0.99076   6
   2   1 -10 49.5733 1.96852   4
   2   1 -10 48.6084 2.02690   5
   2   1 -10 48.5467 1.96916   3
   2   1 -10 49.2236 2.02424   1
  -2  -1  10 48.1745 2.01295   6
  -2  -1  10 49.4989 2.10160   2
   1   1 -10 94.1466 3.15844   3
   1   1 -10 96.9164 3.31466   5
   1   1 -10 92.0995 3.12557   1
  -1  -1  10 94.5134 3.18773   6
  -1  -1  10 95.6041 3.37583   2
  -1  -1  10 93.6683 3.12874   4
   0   1 -10 624.299 16.4293   1
   0   1 -10 625.748 16.5744   3
   0   1 -10 606.629 16.7266   5
   0  -1  10 526.240 16.3731   4
   0  -1  10 621.579 16.8407   2
   0  -1  10 615.511 16.5611   6
  -1   1 -10 72.2291 2.35514   1
  -1   1 -10 69.8832 2.68507   5
  -1   1 -10 70.2397 2.54059   3
   1  -1  10 72.6737 2.41936   4
   1  -1  10 68.8179 2.76597   2
   1  -1  10 70.3070 2.55261   6
  -2   1 -10 377.936 9.96715   1
  -2   1 -10 363.302 10.2284   3
  -2   1 -10 353.835 10.4107   5
   2  -1  10 346.994 10.2533   6
   2  -1  10 360.400 10.5200   2
   2  -1  10 364.341 10.0232   4
  -3   1 -10 422.219 12.1101   5
  -3   1 -10 426.348 11.9258   3
   3  -1  10 425.389 12.2321   2
   3  -1  10 422.259 11.9889   6
  -4   1 -10 0.61159 0.41813   3
  -4   1 -10 0.00954 0.46425   5
   4  -1  10 -0.1495 0.47788   2
   4  -1  10 0.78749 0.48237   6
  -5   1 -10 474.324 13.5348   3
  -5   1 -10 478.539 13.6416   5
   5  -1  10 485.207 13.7948   2
   5  -1  10 482.024 13.7005   6
  -6   1 -10 71.1908 2.88431   5
  -6   1 -10 73.5228 2.92882   3
   6  -1  10 71.4866 3.01726   6
   6  -1  10 72.4071 2.99660   2
  -7   1 -10 170.546 5.55260   3
  -7   1 -10 172.027 5.46043   5
   7  -1  10 163.450 5.68250   6
   7  -1  10 158.560 5.52980   2
  -8   1 -10 9.35282 1.19697   3
   8  -1  10 8.54243 1.23569   6
  -9   1 -10 16.5613 1.67929   3
   9  -1  10 14.2378 1.61052   6
   8   0 -10 47.8522 2.69257   3
   8   0 -10 45.8679 2.72327   4
  -8   0  10 47.1811 2.70162   6
  -8   0  10 47.7404 2.84694   1
   7   0 -10 41.2818 2.33735   3
   7   0 -10 43.8387 2.48760   4
  -7   0  10 40.0703 2.48463   1
  -7   0  10 44.2543 2.45218   6
   6   0 -10 0.06231 0.66544   4
   6   0 -10 0.36163 0.62601   3
  -6   0  10 0.98324 0.77864   1
  -6   0  10 0.30152 0.70566   6
   5   0 -10 142.068 4.80352   3
   5   0 -10 137.496 4.80886   4
  -5   0  10 139.401 4.87218   1
  -5   0  10 139.703 4.82362   6
   4   0 -10 0.75991 0.52192   3
   4   0 -10 0.64986 0.50419   4
  -4   0  10 3.46318 0.77009   6
  -4   0  10 0.95197 0.59387   1
   3   0 -10 64.6921 2.60789   3
   3   0 -10 67.0836 2.60043   4
   3   0 -10 69.5062 2.49762   5
  -3   0  10 67.2350 2.68846   6
  -3   0  10 69.5658 2.64287   1
  -3   0  10 69.7712 2.56282   2
   2   0 -10 17.3326 1.11210   3
   2   0 -10 16.4523 1.05541   1
   2   0 -10 17.7286 1.09796   5
   2   0 -10 15.5124 1.01519   4
  -2   0  10 16.0092 1.14179   2
  -2   0  10 16.7244 1.16593   6
   1   0 -10 597.104 16.3332   5
   1   0 -10 597.159 16.1193   1
   1   0 -10 591.146 16.2988   3
  -1   0  10 593.449 16.3268   6
  -1   0  10 573.449 16.3805   2
   0   0 -10 40.2461 1.74074   3
   0   0 -10 38.4010 1.78594   5
   0   0 -10 40.2335 1.50828   1
   0   0  10 38.3903 1.84421   2
   0   0  10 40.9909 1.52395   4
   0   0  10 35.7718 1.71311   6
  -1   0 -10 256.345 7.97963   5
  -1   0 -10 269.276 7.90549   3
  -1   0 -10 273.794 7.54736   1
   1   0  10 275.852 8.14046   2
   1   0  10 287.431 7.61921   4
   1   0  10 268.930 7.93745   6
  -2   0 -10 874.776 24.2161   5
  -2   0 -10 923.283 24.1346   3
   2   0  10 886.166 24.3300   2
   2   0  10 865.845 24.1218   6
  -3   0 -10 39.7788 1.76200   3
  -3   0 -10 37.9703 1.85584   5
   3   0  10 36.7032 1.91246   2
   3   0  10 38.7812 1.81820   6
  -4   0 -10 0.54091 0.45939   3
  -4   0 -10 0.37530 0.51919   5
   4   0  10 0.80774 0.51162   6
   4   0  10 0.32366 0.53664   2
  -5   0 -10 5.97898 0.87067   5
  -5   0 -10 4.37172 0.74401   3
   5   0  10 5.82257 0.91517   2
   5   0  10 4.43633 0.79288   6
  -6   0 -10 2.67676 0.69196   3
  -6   0 -10 2.83369 0.72835   5
   6   0  10 1.54666 0.68061   2
   6   0  10 2.78086 0.75634   6
  -7   0 -10 -0.0620 0.51005   5
  -7   0 -10 -0.7013 0.48451   3
   7   0  10 -1.1301 0.48066   6
   7   0  10 -0.1283 0.51452   2
  -8   0 -10 45.5982 2.41175   3
   8   0  10 43.1882 3.11670   2
   8   0  10 47.8175 2.58888   6
  -9   0 -10 19.5955 1.79265   3
   9   0  10 20.3734 1.90007   6
   8  -1 -10 -0.0308 0.76126   4
   8  -1 -10 -0.0472 0.74161   3
  -8   1  10 0.84602 0.91038   1
  -8   1  10 -0.5089 0.87959   6
   7  -1 -10 66.0411 3.13043   4
   7  -1 -10 60.3973 3.09058   3
  -7   1  10 69.8556 3.28411   6
  -7   1  10 72.3637 3.33598   1
   6  -1 -10 116.188 4.23754   4
   6  -1 -10 110.758 4.22401   3
  -6   1  10 106.034 4.18314   1
  -6   1  10 106.148 4.21764   6
   5  -1 -10 -0.2849 0.51166   3
   5  -1 -10 0.00873 0.54680   4
  -5   1  10 -0.8885 0.54707   6
  -5   1  10 -0.0038 0.57340   1
   4  -1 -10 7.96116 0.95570   4
   4  -1 -10 6.14894 0.87920   3
  -4   1  10 6.84417 1.00289   6
  -4   1  10 7.37480 0.94866   1
   3  -1 -10 14.7092 1.06629   4
   3  -1 -10 15.4475 1.18048   3
   3  -1 -10 15.6600 1.00265   5
  -3   1  10 15.0555 1.14220   1
  -3   1  10 15.1408 1.05022   2
  -3   1  10 10.7877 1.14285   6
   2  -1 -10 15.4244 1.03264   5
   2  -1 -10 15.0584 1.09944   3
   2  -1 -10 15.9553 1.00417   4
  -2   1  10 15.4849 1.04294   1
  -2   1  10 15.2069 1.08764   2
  -2   1  10 14.8594 1.19483   6
   1  -1 -10 -0.0461 0.34255   3
   1  -1 -10 0.22745 0.36366   5
   1  -1 -10 -0.0678 0.26652   4
  -1   1  10 0.27073 0.33200   1
  -1   1  10 0.48936 0.39489   2
  -1   1  10 -0.3198 0.40356   6
   0  -1 -10 122.254 4.07508   3
   0  -1 -10 119.097 4.05140   5
   0   1  10 122.940 4.10192   6
   0   1  10 123.134 4.13679   2
   0   1  10 125.121 3.69633   4
   0   1  10 131.499 3.73023   1
  -1  -1 -10 9.39155 0.89451   5
  -1  -1 -10 10.8024 0.95725   3
   1   1  10 11.1270 0.92254   6
   1   1  10 13.6262 1.05274   2
  -2  -1 -10 455.654 13.0939   5
  -2  -1 -10 472.302 13.0351   3
   2   1  10 458.213 13.1852   2
   2   1  10 468.124 13.0833   6
  -3  -1 -10 66.3341 2.65135   5
  -3  -1 -10 69.1733 2.59871   3
   3   1  10 68.2988 2.76603   2
   3   1  10 67.4494 2.64872   6
  -4  -1 -10 43.3954 2.03438   5
  -4  -1 -10 42.4099 1.94062   3
   4   1  10 41.2591 1.99821   6
   4   1  10 41.8527 2.09372   2
  -5  -1 -10 275.193 8.39251   5
  -5  -1 -10 285.239 8.36531   3
   5   1  10 275.272 8.46270   6
   5   1  10 282.849 8.50172   2
  -6  -1 -10 60.9308 2.59355   3
  -6  -1 -10 58.7495 2.56824   5
   6   1  10 59.9585 2.66254   6
   6   1  10 57.8337 2.63153   2
  -7  -1 -10 34.8144 1.86992   5
  -7  -1 -10 32.1067 1.92309   3
   7   1  10 33.4291 2.06769   6
   7   1  10 28.5601 1.86504   2
  -8  -1 -10 6.02283 1.10521   3
  -8  -1 -10 4.02168 0.83731   5
   8   1  10 5.59134 1.12215   6
   8   1  10 6.51095 1.03078   2
  -9  -1 -10 6.10961 1.15252   3
   9   1  10 4.45090 1.01501   6
 -10  -1 -10 5.30460 1.66171   3
   7  -2 -10 10.5532 1.35632   4
   7  -2 -10 11.6009 1.49841   3
  -7   2  10 13.2047 1.58873   1
  -7   2  10 9.62751 1.44912   6
   6  -2 -10 83.0893 3.64919   3
   6  -2 -10 87.7623 3.57924   4
  -6   2  10 83.6931 3.58674   1
  -6   2  10 90.7227 3.74277   6
   5  -2 -10 -0.6514 0.48210   4
   5  -2 -10 0.08527 0.53366   3
  -5   2  10 0.26478 0.59847   1
  -5   2  10 -0.5505 0.57240   6
   4  -2 -10 16.3306 1.20672   4
   4  -2 -10 12.9164 1.31156   3
  -4   2  10 14.6812 1.40176   6
  -4   2  10 13.8268 1.21339   1
   3  -2 -10 35.8134 1.67119   4
   3  -2 -10 33.2863 1.81004   3
  -3   2  10 33.2734 1.83331   6
  -3   2  10 34.7854 1.71487   1
   2  -2 -10 17.8537 1.23515   3
   2  -2 -10 16.9447 1.08414   5
   2  -2 -10 15.6141 1.00924   4
  -2   2  10 15.6401 1.05571   1
  -2   2  10 16.1008 1.29097   6
  -2   2  10 16.3634 1.13019   2
   1  -2 -10 -0.1344 0.25184   4
   1  -2 -10 -0.0185 0.36711   3
   1  -2 -10 0.25595 0.38057   5
  -1   2  10 0.72106 0.43626   2
  -1   2  10 -0.3978 0.42256   6
  -1   2  10 0.35918 0.32311   1
   0  -2 -10 56.6862 2.30004   5
   0  -2 -10 56.0642 2.32856   3
   0   2  10 58.5203 2.39646   6
   0   2  10 58.4329 2.37053   2
  -1  -2 -10 14.6407 1.10212   3
  -1  -2 -10 12.2772 1.00080   5
   1   2  10 12.9570 1.03174   6
   1   2  10 11.2849 1.05364   2
  -2  -2 -10 53.0718 2.22700   3
  -2  -2 -10 52.9651 2.25815   5
   2   2  10 53.2673 2.25611   6
   2   2  10 52.2741 2.31433   2
  -3  -2 -10 28.8523 1.51307   3
  -3  -2 -10 25.8329 1.53870   5
   3   2  10 24.7392 1.51513   6
   3   2  10 26.5776 1.59270   2
  -4  -2 -10 124.490 4.17536   3
  -4  -2 -10 119.305 4.20620   5
   4   2  10 120.117 4.27234   2
   4   2  10 125.666 4.28007   6
  -5  -2 -10 5.83513 0.82218   5
  -5  -2 -10 7.14778 0.90650   3
   5   2  10 5.23076 0.83118   6
   5   2  10 5.24519 0.84288   2
  -6  -2 -10 2.38971 0.67190   5
  -6  -2 -10 2.50098 0.69291   3
   6   2  10 4.12221 0.82549   2
   6   2  10 1.73096 0.68720   6
  -7  -2 -10 0.95477 0.64489   3
  -7  -2 -10 0.94486 0.60256   5
   7   2  10 1.24481 0.64831   2
   7   2  10 0.55767 0.67558   6
  -8  -2 -10 0.00816 0.56878   5
  -8  -2 -10 0.82420 0.75780   3
   8   2  10 0.16549 0.77522   6
   8   2  10 -0.6816 0.54636   2
  -9  -2 -10 24.9847 1.97114   3
   9   2  10 22.1803 1.98659   6
 -10  -2 -10 34.5383 2.89942   3
   7  -3 -10 0.75720 0.87256   3
   7  -3 -10 2.68938 0.94642   4
  -7   3  10 0.62744 1.00485   6
  -7   3  10 1.53085 0.85902   1
   6  -3 -10 4.18377 0.92022   4
   6  -3 -10 7.25011 1.17326   3
  -6   3  10 3.94724 1.03637   6
  -6   3  10 7.19223 1.15225   1
   5  -3 -10 101.438 3.83625   4
   5  -3 -10 100.702 3.98820   3
  -5   3  10 99.5818 3.83814   1
  -5   3  10 101.332 4.05118   6
   4  -3 -10 6.17189 0.87883   4
   4  -3 -10 5.57508 0.91873   3
  -4   3  10 5.08810 1.01144   6
  -4   3  10 5.29937 0.86889   1
   3  -3 -10 45.2369 1.94651   4
   3  -3 -10 39.1756 2.06978   3
  -3   3  10 39.1590 2.15333   6
  -3   3  10 42.9787 1.97577   1
   2  -3 -10 3.64329 0.66617   3
   2  -3 -10 4.28635 0.62503   5
   2  -3 -10 3.54624 0.56171   4
  -2   3  10 4.13628 0.64511   2
  -2   3  10 3.57518 0.61481   1
  -2   3  10 2.03746 0.67711   6
   1  -3 -10 199.210 5.84874   5
   1  -3 -10 179.470 5.90978   3
  -1   3  10 193.741 5.87834   2
  -1   3  10 187.934 6.04583   6
   0  -3 -10 8.31387 0.88150   5
   0  -3 -10 8.04637 0.91099   3
   0   3  10 10.1364 0.99862   2
   0   3  10 10.0674 1.00296   6
  -1  -3 -10 129.470 4.35997   3
  -1  -3 -10 131.926 4.36806   5
   1   3  10 132.439 4.42820   2
   1   3  10 131.383 4.43739   6
  -2  -3 -10 0.67676 0.46823   3
  -2  -3 -10 0.80164 0.51125   5
   2   3  10 1.28361 0.52126   6
   2   3  10 0.61674 0.51061   2
  -3  -3 -10 14.3033 1.14613   5
  -3  -3 -10 14.1456 1.18035   3
   3   3  10 15.4665 1.29032   2
   3   3  10 16.1334 1.24005   6
  -4  -3 -10 0.75098 0.45061   3
  -4  -3 -10 0.29656 0.50398   5
   4   3  10 -0.2720 0.47700   6
   4   3  10 0.45018 0.54052   2
  -5  -3 -10 0.08603 0.50428   3
  -5  -3 -10 0.22592 0.46403   5
   5   3  10 0.20767 0.52671   2
   5   3  10 0.64388 0.50411   6
  -6  -3 -10 0.67648 0.57752   5
  -6  -3 -10 0.80600 0.60853   3
   6   3  10 0.23534 0.52419   6
   6   3  10 1.11928 0.63092   2
  -7  -3 -10 7.39022 1.10244   3
  -7  -3 -10 7.56099 1.03822   5
   7   3  10 7.82203 1.11507   2
   7   3  10 4.46889 0.91712   6
  -8  -3 -10 0.13608 0.59792   5
  -8  -3 -10 -0.5170 0.65187   3
   8   3  10 -0.5259 0.64177   6
   8   3  10 -0.0481 0.63300   2
  -9  -3 -10 4.40994 1.01658   3
   9   3  10 5.24292 1.18679   6
   7  -4 -10 2.63330 0.92249   4
   7  -4 -10 5.66665 1.87312   3
  -7   4  10 3.56115 1.03898   1
   6  -4 -10 52.1715 2.62299   4
   6  -4 -10 50.3634 2.80731   3
  -6   4  10 50.1869 2.65421   1
  -6   4  10 51.5319 2.88598   6
   5  -4 -10 32.7066 1.96965   4
   5  -4 -10 36.7922 2.21625   3
  -5   4  10 34.0824 2.28936   6
  -5   4  10 35.5203 2.10342   1
   4  -4 -10 3.68333 0.74411   4
   4  -4 -10 3.50301 0.80203   3
  -4   4  10 3.62845 0.78393   1
  -4   4  10 4.60663 1.01985   6
   3  -4 -10 43.4090 1.94620   4
   3  -4 -10 40.1153 2.15868   3
  -3   4  10 43.3806 2.00499   1
  -3   4  10 40.4352 2.21519   6
   2  -4 -10 3.82900 0.76400   3
   2  -4 -10 4.82541 0.68348   5
  -2   4  10 5.39131 0.76102   2
  -2   4  10 3.50183 0.85016   6
   1  -4 -10 0.40087 0.45606   3
   1  -4 -10 1.83013 0.54664   5
  -1   4  10 1.27997 0.61232   6
  -1   4  10 0.76139 0.48477   2
   0  -4 -10 163.443 5.15454   5
   0  -4 -10 163.559 5.26712   3
   0   4  10 158.241 5.19125   2
   0   4  10 160.775 5.34387   6
  -1  -4 -10 114.706 3.93554   5
  -1  -4 -10 110.800 3.94335   3
   1   4  10 115.356 4.05742   6
   1   4  10 115.407 4.00337   2
  -2  -4 -10 32.0054 1.73000   3
  -2  -4 -10 31.7221 1.72972   5
   2   4  10 32.2014 1.78766   6
   2   4  10 32.5916 1.79797   2
  -3  -4 -10 101.085 3.72748   5
  -3  -4 -10 107.463 3.73655   3
   3   4  10 100.899 3.80342   2
   3   4  10 102.861 3.77061   6
  -4  -4 -10 34.8186 1.83135   3
  -4  -4 -10 35.0910 1.89278   5
   4   4  10 33.6532 1.97322   2
   4   4  10 34.5618 1.92349   6
  -5  -4 -10 27.1921 1.66270   3
  -5  -4 -10 27.0756 1.70682   5
   5   4  10 32.7492 1.87321   6
   5   4  10 24.7340 1.75856   2
  -6  -4 -10 92.0479 3.55854   3
  -6  -4 -10 88.8340 3.55821   5
   6   4  10 94.2284 3.71932   2
   6   4  10 93.1092 3.70137   6
  -7  -4 -10 14.9309 1.43756   5
  -7  -4 -10 16.1829 1.55867   3
   7   4  10 14.7652 1.57695   6
   7   4  10 16.4908 1.53628   2
  -8  -4 -10 47.3153 2.57277   3
  -8  -4 -10 47.0724 2.45827   5
   8   4  10 52.7683 2.78566   6
   8   4  10 53.0047 2.70479   2
  -9  -4 -10 0.54486 0.80550   3
  -9  -4 -10 0.84044 0.66801   5
   9   4  10 -0.1452 0.79285   6
   9   4  10 0.90177 0.72688   2
  -7   5  10 0.48024 1.38197   1
   6  -5 -10 3.58239 0.96118   4
   6  -5 -10 5.01501 1.17577   3
  -6   5  10 3.78869 1.00925   1
  -6   5  10 3.33751 1.10880   6
   5  -5 -10 123.209 4.42490   4
   5  -5 -10 114.228 4.58680   3
  -5   5  10 119.130 4.45631   1
  -5   5  10 116.218 4.70456   6
   4  -5 -10 27.5125 1.67460   4
   4  -5 -10 22.7328 1.77089   3
  -4   5  10 24.9887 1.70101   1
  -4   5  10 25.6396 1.98769   6
   3  -5 -10 116.671 4.37666   3
  -3   5  10 122.142 4.56335   6
   2  -5 -10 10.1555 1.17479   3
  -2   5  10 11.4684 1.31641   6
   1  -5 -10 9.40040 0.95821   5
   1  -5 -10 7.34800 0.94109   3
  -1   5  10 7.28800 0.88753   2
  -1   5  10 6.85068 1.03256   6
   0  -5 -10 311.994 9.37204   3
   0  -5 -10 318.766 9.26646   5
   0   5  10 323.645 9.35679   2
   0   5  10 306.186 9.46391   6
  -1  -5 -10 91.1960 3.48879   3
  -1  -5 -10 96.4722 3.46966   5
   1   5  10 96.5443 3.61453   6
   1   5  10 94.3034 3.53985   2
  -2  -5 -10 134.496 4.51471   5
  -2  -5 -10 126.670 4.46684   3
   2   5  10 132.265 4.58332   6
   2   5  10 128.528 4.55227   2
  -3  -5 -10 5.17034 0.83845   3
  -3  -5 -10 4.68052 0.85804   5
   3   5  10 4.93477 0.89663   2
   3   5  10 5.93666 0.96382   6
  -4  -5 -10 153.541 5.26920   5
  -4  -5 -10 153.798 5.18818   3
   4   5  10 158.026 5.31984   6
   4   5  10 157.833 5.38332   2
  -5  -5 -10 26.9078 1.68289   3
  -5  -5 -10 25.8288 1.73769   5
   5   5  10 28.5520 1.78266   6
   5   5  10 23.2934 1.69511   2
  -6  -5 -10 438.777 12.7639   3
  -6  -5 -10 436.613 12.8370   5
   6   5  10 431.279 12.9168   6
   6   5  10 441.183 12.9655   2
  -7  -5 -10 0.66244 0.63758   5
  -7  -5 -10 -0.0472 0.67358   3
   7   5  10 0.62375 0.71752   2
   7   5  10 0.39489 0.67033   6
  -8  -5 -10 0.51344 0.68817   5
  -8  -5 -10 -0.4170 0.65245   3
   8   5  10 0.32722 0.70064   2
   8   5  10 0.12879 0.77526   6
  -9  -5 -10 26.3349 2.03226   3
  -9  -5 -10 24.8227 1.84993   5
   9   5  10 26.6041 2.09233   6
   9   5  10 26.8241 2.07388   2
   6  -6 -10 253.178 8.30332   4
  -6   6  10 254.743 8.31642   1
   5  -6 -10 10.4032 1.44111   3
  -5   6  10 10.0368 1.53394   6
   4  -6 -10 68.4593 3.23280   3
  -4   6  10 69.4330 3.35160   6
   3  -6 -10 120.886 4.60123   3
  -3   6  10 127.628 4.81049   6
   2  -6 -10 66.7786 2.93565   3
  -2   6  10 69.7471 3.10812   6
   1  -6 -10 0.15167 0.52407   3
   1  -6 -10 0.63760 0.50587   5
  -1   6  10 0.07422 0.48297   2
  -1   6  10 -0.1606 0.60948   6
   0  -6 -10 128.595 4.45239   5
   0  -6 -10 131.450 4.60025   3
   0   6  10 127.193 4.69766   6
   0   6  10 140.430 4.61231   2
  -1  -6 -10 133.261 4.63833   5
  -1  -6 -10 140.034 4.71848   3
   1   6  10 135.091 4.81893   6
   1   6  10 135.394 4.72468   2
  -2  -6 -10 246.671 7.54384   5
   2   6  10 232.308 7.54894   6
   2   6  10 246.340 7.62857   2
  -3  -6 -10 346.870 10.6307   5
  -3  -6 -10 367.707 10.6113   3
   3   6  10 365.594 10.8014   2
   3   6  10 355.264 10.7126   6
  -4  -6 -10 1.39492 0.71702   3
  -4  -6 -10 1.65576 0.72522   5
   4   6  10 2.07492 0.76001   2
   4   6  10 2.63821 0.82634   6
  -5  -6 -10 587.792 16.9325   3
  -5  -6 -10 597.133 17.1080   5
   5   6  10 605.694 17.1401   6
   5   6  10 599.395 17.2124   2
  -6  -6 -10 19.6717 1.59727   5
  -6  -6 -10 16.6094 1.50530   3
   6   6  10 18.6481 1.77484   2
   6   6  10 16.6351 1.63931   6
  -7  -6 -10 63.8667 3.01052   3
  -7  -6 -10 68.9386 3.15590   5
   7   6  10 69.8555 3.25795   2
   7   6  10 71.3325 3.27256   6
  -8  -6 -10 86.0096 3.66100   3
  -8  -6 -10 81.0894 3.60777   5
   8   6  10 90.9628 3.95346   6
   8   6  10 90.1331 3.86803   2
  -9  -6 -10 36.3123 2.27416   5
   9   6  10 34.8768 2.36905   2
   9   6  10 38.5901 2.56952   6
   5  -7 -10 9.21933 1.37387   3
  -5   7  10 8.30482 1.38284   6
   4  -7 -10 10.1064 1.34176   3
  -4   7  10 10.1968 1.49254   6
   3  -7 -10 271.562 8.84462   3
  -3   7  10 291.610 9.11277   6
   2  -7 -10 4.04301 0.89070   3
  -2   7  10 3.58335 0.99255   6
   1  -7 -10 281.637 8.80855   3
  -1   7  10 292.643 9.00408   6
   0  -7 -10 3.99043 0.84726   3
   0  -7 -10 5.23006 0.86305   5
   0   7  10 4.44204 0.87024   2
   0   7  10 5.80548 1.03343   6
  -1  -7 -10 25.0756 1.66445   5
  -1  -7 -10 26.5806 1.72880   3
   1   7  10 24.8049 1.79760   6
   1   7  10 27.1896 1.76526   2
  -2  -7 -10 220.763 7.46286   5
  -2  -7 -10 243.635 7.55338   3
   2   7  10 249.255 7.69007   2
   2   7  10 248.669 7.68944   6
  -3  -7 -10 105.334 3.81912   3
  -3  -7 -10 98.2647 3.83441   5
   3   7  10 94.9651 3.84230   6
   3   7  10 97.2268 3.91085   2
  -4  -7 -10 207.988 6.64436   3
  -4  -7 -10 201.325 6.74834   5
   4   7  10 205.900 6.86137   2
   4   7  10 205.742 6.75110   6
  -5  -7 -10 102.453 3.91030   5
  -5  -7 -10 90.9032 3.68971   3
   5   7  10 89.2796 3.89794   2
   5   7  10 93.7632 3.82444   6
  -6  -7 -10 50.1547 2.60148   3
  -6  -7 -10 50.2895 2.68640   5
   6   7  10 52.2096 2.82345   2
   6   7  10 57.5070 2.81744   6
  -7  -7 -10 30.2313 2.12141   5
  -7  -7 -10 31.3520 2.00329   3
   7   7  10 33.3971 2.30339   2
   7   7  10 30.3857 2.16110   6
  -8  -7 -10 105.163 4.48383   5
   8   7  10 117.323 4.70733   2
   8   7  10 122.331 4.76087   6
  -9  -7 -10 9.91671 1.35824   5
   9   7  10 11.3580 1.73357   6
   9   7  10 12.6944 1.66864   2
   4  -8 -10 210.040 7.24806   3
  -4   8  10 212.545 7.43139   6
   3  -8 -10 48.8102 2.70070   3
  -3   8  10 53.5748 2.94113   6
   2  -8 -10 21.4240 1.83432   3
  -2   8  10 21.7235 1.89933   6
   1  -8 -10 40.6969 2.31182   3
  -1   8  10 42.4861 2.46060   6
   0  -8 -10 10.8655 1.27524   3
   0  -8 -10 12.1229 1.24117   5
   0   8  10 13.9330 1.35571   2
   0   8  10 13.3403 1.51282   6
  -1  -8 -10 2.91676 0.76899   5
  -1  -8 -10 2.00975 0.74812   3
   1   8  10 2.03480 0.78015   6
   1   8  10 2.95449 0.84371   2
  -2  -8 -10 277.829 8.63174   5
  -2  -8 -10 281.927 8.56820   3
   2   8  10 272.222 8.64499   6
   2   8  10 271.778 8.69621   2
  -3  -8 -10 0.40292 0.60870   3
  -3  -8 -10 0.41501 0.65168   5
   3   8  10 0.23839 0.68830   2
   3   8  10 -0.5437 0.59721   6
  -4  -8 -10 197.481 6.55921   5
  -4  -8 -10 191.899 6.30085   3
   4   8  10 190.238 6.56736   2
   4   8  10 178.902 6.32636   6
  -5  -8 -10 299.650 9.50939   5
  -5  -8 -10 289.853 9.18944   3
   5   8  10 313.300 9.62023   2
   5   8  10 295.324 9.38039   6
  -6  -8 -10 2.95208 0.96964   5
  -6  -8 -10 2.93621 0.91967   3
   6   8  10 2.49023 0.95727   2
   6   8  10 1.15961 0.80793   6
  -7  -8 -10 353.740 11.0867   5
  -7  -8 -10 347.651 10.7975   3
   7   8  10 368.435 11.2442   2
   7   8  10 356.836 11.0769   6
  -8  -8 -10 1.04488 0.79318   5
  -8  -8 -10 0.03123 0.67974   3
   8   8  10 -0.2383 0.81465   6
   8   8  10 0.44085 0.93605   2
   3  -9 -10 2.21392 0.94459   3
  -3   9  10 1.11808 0.98591   6
   2  -9 -10 10.2645 1.37379   3
  -2   9  10 7.08307 1.26742   6
   1  -9 -10 162.909 5.70208   3
  -1   9  10 163.234 5.90482   6
   0  -9 -10 0.35947 0.79530   5
   0  -9 -10 1.07537 0.73234   3
   0   9  10 1.33313 1.03546   2
   0   9  10 1.05371 0.79601   6
  -1  -9 -10 272.769 8.37114   3
  -1  -9 -10 257.173 8.33745   5
   1   9  10 273.998 8.51577   2
   1   9  10 261.135 8.46656   6
  -2  -9 -10 33.7654 2.05098   3
  -2  -9 -10 32.3758 2.12174   5
   2   9  10 31.6582 2.20538   2
   2   9  10 33.2982 2.13291   6
  -3  -9 -10 84.6739 3.76699   5
  -3  -9 -10 93.9258 3.67620   3
   3   9  10 91.5697 3.91506   2
   3   9  10 88.5384 3.71983   6
  -4  -9 -10 343.726 10.8485   5
  -4  -9 -10 359.435 10.5651   3
   4   9  10 338.923 10.8627   2
   4   9  10 351.771 10.6957   6
  -5  -9 -10 23.4028 1.81761   3
  -5  -9 -10 23.5777 2.04327   5
   5   9  10 20.7661 1.90757   6
   5   9  10 20.1380 1.99971   2
  -6  -9 -10 50.4966 2.64354   3
  -6  -9 -10 55.2216 3.02981   5
   6   9  10 54.3508 3.07811   2
   6   9  10 51.6591 2.84694   6
  -7  -9 -10 71.7394 4.85428   5
  -7  -9 -10 72.7534 3.30436   3
   7   9  10 63.6083 4.81657   2
   7   9  10 80.8263 3.60454   6
  -8  -9 -10 23.3182 2.17167   3
   8   9  10 24.5437 3.11354   6
   2 -10 -10 73.4025 3.55470   3
  -2  10  10 65.1251 3.88103   6
   1 -10 -10 -0.4862 0.71617   3
  -1  10  10 0.47280 0.86311   6
   0 -10 -10 40.7294 2.32498   3
   0  10  10 41.3217 2.57128   6
  -1 -10 -10 0.86028 0.84064   5
  -1 -10 -10 0.57513 0.71569   3
   1  10  10 0.69636 0.87028   2
   1  10  10 1.33348 0.76569   6
  -2 -10 -10 29.3360 2.01191   3
  -2 -10 -10 29.5455 2.11688   5
   2  10  10 28.5092 2.01535   6
   2  10  10 29.3110 2.14788   2
  -3 -10 -10 0.79450 0.74818   3
  -3 -10 -10 0.77400 0.82663   5
   3  10  10 0.02677 0.84369   2
   3  10  10 0.90091 0.81772   6
  -4 -10 -10 192.784 6.82488   5
  -4 -10 -10 194.363 6.46888   3
   4  10  10 186.506 6.54339   6
   4  10  10 190.823 6.84137   2
  -5 -10 -10 7.83625 1.43136   5
  -5 -10 -10 6.43005 1.23469   3
   5  10  10 6.35991 1.35141   2
   5  10  10 6.65805 1.27740   6
  -2 -11 -10 7.14872 1.26921   5
   2  11  10 8.25154 1.34253   2
   2   9 -11 99.5520 4.22864   1
  -2  -9  11 97.3797 5.60580   2
  -2  -9  11 101.303 4.41607   4
   1   9 -11 6.78654 1.23459   1
   1   9 -11 9.48993 1.40092   5
  -1  -9  11 7.52892 1.34504   2
  -1  -9  11 7.31497 1.31945   4
   0   9 -11 94.2105 4.00688   1
   0   9 -11 95.9408 3.99650   5
   0  -9  11 94.9733 4.23203   2
   0  -9  11 97.3273 4.19504   4
  -1   9 -11 37.7427 2.36925   5
  -1   9 -11 33.8769 2.29994   1
   1  -9  11 38.2320 2.58109   2
   1  -9  11 39.3932 2.55449   4
  -2   9 -11 -0.0489 0.72069   1
  -2   9 -11 -0.5101 0.71772   5
   2  -9  11 -0.3724 0.83599   2
   2  -9  11 -0.3319 0.85536   4
  -3   9 -11 51.7593 3.71859   1
   3  -9  11 62.7911 4.54318   4
   5   8 -11 97.0955 4.35935   5
  -5  -8  11 104.710 4.37373   2
   4   8 -11 0.83972 0.76352   5
   4   8 -11 0.37284 0.82976   1
  -4  -8  11 0.81855 0.90768   2
  -4  -8  11 1.55940 0.96374   4
   3   8 -11 469.234 13.9921   5
   3   8 -11 480.615 14.2038   1
  -3  -8  11 463.013 14.1788   2
  -3  -8  11 485.782 14.2884   4
   2   8 -11 -0.7622 0.60930   1
   2   8 -11 -0.4799 0.68976   5
  -2  -8  11 0.30389 0.79342   2
  -2  -8  11 0.75096 0.81886   4
   1   8 -11 91.3392 3.82912   1
   1   8 -11 95.6287 3.87781   5
  -1  -8  11 88.8805 3.91973   4
  -1  -8  11 91.9017 4.00356   2
   0   8 -11 4.00920 1.01693   5
   0   8 -11 5.67690 1.04362   1
   0  -8  11 4.15127 1.04424   2
   0  -8  11 2.84794 0.92658   4
  -1   8 -11 15.0724 1.62435   1
  -1   8 -11 18.2704 1.68460   5
   1  -8  11 18.1758 1.84572   4
   1  -8  11 15.1780 1.70914   2
  -2   8 -11 12.0912 1.41929   1
  -2   8 -11 13.8801 1.52309   5
   2  -8  11 13.2797 1.57971   4
   2  -8  11 9.52874 1.43552   2
  -3   8 -11 49.0383 2.57056   5
  -3   8 -11 46.4383 2.54335   1
   3  -8  11 50.3557 2.78188   4
   3  -8  11 46.7650 2.77876   2
  -4   8 -11 11.7012 1.37707   5
  -4   8 -11 7.66032 1.23918   1
   4  -8  11 8.95275 1.48091   4
   4  -8  11 12.7518 1.58275   2
  -5   8 -11 57.1807 2.87527   1
   5  -8  11 53.9860 3.12268   4
   5   7 -11 32.0341 1.97853   5
   5   7 -11 30.2115 2.30677   1
  -5  -7  11 28.7357 2.24720   4
  -5  -7  11 28.1752 2.09353   2
   4   7 -11 182.552 6.45689   1
   4   7 -11 189.646 6.26442   5
  -4  -7  11 185.103 6.43480   2
  -4  -7  11 183.287 6.49464   4
   3   7 -11 89.6774 3.58024   5
   3   7 -11 85.0613 3.64340   1
  -3  -7  11 80.8471 3.67273   4
  -3  -7  11 82.4938 3.66471   2
   2   7 -11 3.06584 0.89472   5
   2   7 -11 2.91135 0.86837   1
  -2  -7  11 2.56019 0.93171   2
  -2  -7  11 4.13824 1.04380   4
   1   7 -11 0.68881 0.69224   5
   1   7 -11 0.63584 0.64664   1
  -1  -7  11 0.99587 0.77946   4
  -1  -7  11 1.72362 0.80983   2
   0   7 -11 94.8307 3.80271   5
   0   7 -11 95.4439 3.70285   1
   0  -7  11 90.5005 3.77671   4
   0  -7  11 91.1856 3.90814   2
  -1   7 -11 0.35106 0.60676   1
  -1   7 -11 0.30836 0.64716   5
   1  -7  11 0.84282 0.70395   4
   1  -7  11 -0.0077 0.71382   2
  -2   7 -11 212.773 6.92569   5
  -2   7 -11 209.406 6.81407   1
   2  -7  11 212.371 7.01666   4
   2  -7  11 208.064 7.10693   2
  -3   7 -11 46.7350 2.40053   1
  -3   7 -11 48.6638 2.50809   5
   3  -7  11 51.2118 2.75398   2
   3  -7  11 46.5595 2.59671   4
  -4   7 -11 2.03886 0.76164   1
  -4   7 -11 1.83093 0.78589   5
   4  -7  11 1.51511 0.88226   2
   4  -7  11 0.46201 0.80573   4
  -5   7 -11 56.0881 2.73475   5
  -5   7 -11 56.9277 2.81029   1
   5  -7  11 60.1106 3.07389   2
   5  -7  11 58.2446 3.08252   4
   6   6 -11 193.349 6.91296   1
  -6  -6  11 191.517 6.83153   4
   5   6 -11 2.23590 0.89206   1
   5   6 -11 2.00237 0.70922   5
  -5  -6  11 2.95463 0.93715   2
  -5  -6  11 1.95800 0.91302   4
   4   6 -11 364.040 11.0162   1
   4   6 -11 355.415 10.7214   5
  -4  -6  11 353.773 10.9755   4
  -4  -6  11 363.810 10.9551   2
   3   6 -11 302.659 9.29833   5
   3   6 -11 300.966 9.44600   1
  -3  -6  11 307.818 9.48997   4
  -3  -6  11 310.292 9.50940   2
   2   6 -11 45.9433 2.39053   1
   2   6 -11 48.7695 2.40717   5
  -2  -6  11 45.1688 2.48442   2
  -2  -6  11 44.1560 2.38495   4
   1   6 -11 189.500 6.31582   5
   1   6 -11 195.187 6.31714   1
  -1  -6  11 198.122 6.53799   2
  -1  -6  11 189.487 6.36373   4
   0   6 -11 1.33361 0.71831   5
   0   6 -11 1.96505 0.67145   1
   0  -6  11 2.98419 0.83596   2
   0  -6  11 0.74452 0.62218   4
  -1   6 -11 100.032 3.69628   1
  -1   6 -11 101.582 3.83070   5
   1  -6  11 89.5951 3.86156   2
   1  -6  11 98.4861 3.79802   4
  -2   6 -11 61.5384 2.80757   5
  -2   6 -11 63.1849 2.72297   1
   2  -6  11 62.5967 2.86235   4
   2  -6  11 63.9803 3.03136   2
  -3   6 -11 0.38412 0.62793   5
  -3   6 -11 0.26742 0.58534   1
   3  -6  11 0.18878 0.68915   2
   3  -6  11 -0.0967 0.65438   4
  -4   6 -11 27.2945 1.77266   1
  -4   6 -11 28.1519 1.86566   5
   4  -6  11 28.6759 2.05103   2
   4  -6  11 29.3973 1.99814   4
  -5   6 -11 144.383 5.06020   5
   5  -6  11 144.811 5.33955   2
   6   5 -11 8.33180 1.30341   1
  -6  -5  11 10.5868 1.47772   4
   5   5 -11 112.344 4.49495   1
   5   5 -11 117.554 4.30306   5
  -5  -5  11 121.671 5.80864   2
  -5  -5  11 109.427 4.43283   4
   4   5 -11 47.9980 2.59932   1
   4   5 -11 49.8512 2.38319   5
  -4  -5  11 54.9136 2.62019   2
  -4  -5  11 44.9940 2.51381   4
   3   5 -11 53.6844 2.44426   5
   3   5 -11 50.1590 2.49247   1
  -3  -5  11 51.2209 2.53001   2
  -3  -5  11 48.0419 2.48437   4
   2   5 -11 138.237 4.72488   1
   2   5 -11 131.328 4.67248   5
  -2  -5  11 134.409 4.81222   2
  -2  -5  11 134.483 4.73226   4
   1   5 -11 29.4624 1.68913   1
   1   5 -11 29.0259 1.76890   5
  -1  -5  11 25.1461 1.67879   4
  -1  -5  11 29.2612 1.88510   2
   0   5 -11 29.3106 1.67871   1
   0   5 -11 31.2821 1.84699   5
   0  -5  11 30.9100 1.95295   2
   0  -5  11 28.4428 1.71739   4
  -1   5 -11 2.40368 0.73555   5
  -1   5 -11 2.13807 0.64606   1
   1  -5  11 1.14136 0.66228   2
   1  -5  11 1.71557 0.66393   4
  -2   5 -11 474.590 13.1882   1
  -2   5 -11 444.593 13.3293   5
   2  -5  11 468.083 13.5813   2
   2  -5  11 460.055 13.3140   4
  -3   5 -11 77.0872 2.95520   1
  -3   5 -11 74.7288 3.09141   5
   3  -5  11 71.9250 3.25585   2
   3  -5  11 77.8424 3.11946   4
  -4   5 -11 238.433 7.49636   5
  -4   5 -11 236.067 7.29670   1
   4  -5  11 235.117 7.68691   2
   4  -5  11 243.205 7.55830   4
  -5   5 -11 37.3318 2.05470   5
   5  -5  11 37.0406 2.28918   2
  -6   5 -11 3.47914 0.82477   5
   6  -5  11 2.99438 0.89911   2
  -7  -4  11 1.63068 0.99116   4
   6   4 -11 63.0388 3.13057   1
  -6  -4  11 64.7625 3.18086   4
   5   4 -11 9.55857 1.27409   1
  -5  -4  11 11.2203 1.37305   4
   4   4 -11 365.779 11.1646   1
   4   4 -11 366.031 10.8770   5
  -4  -4  11 372.880 11.1356   4
  -4  -4  11 388.572 11.0968   2
   3   4 -11 0.85776 0.59497   5
   3   4 -11 0.96304 0.57581   1
  -3  -4  11 1.31793 0.66712   2
  -3  -4  11 1.22805 0.66411   4
   2   4 -11 203.273 6.44837   5
   2   4 -11 207.967 6.46243   1
  -2  -4  11 204.329 6.58453   2
  -2  -4  11 197.876 6.42543   4
   1   4 -11 130.370 4.50779   5
   1   4 -11 129.987 4.41226   1
  -1  -4  11 133.244 4.64255   2
  -1  -4  11 127.241 4.41725   4
   0   4 -11 119.535 4.16511   5
   0   4 -11 122.974 4.01008   1
   0  -4  11 112.233 4.00763   4
   0  -4  11 107.642 4.15361   2
  -1   4 -11 790.883 21.3357   1
  -1   4 -11 749.937 21.5432   5
   1  -4  11 776.780 21.7328   2
   1  -4  11 789.630 21.4587   4
  -2   4 -11 0.11955 0.44270   1
  -2   4 -11 0.64946 0.56909   5
   2  -4  11 -0.1165 0.48814   4
   2  -4  11 0.07887 0.60429   2
  -3   4 -11 318.267 9.72618   5
  -3   4 -11 332.752 9.47416   1
   3  -4  11 326.076 9.61294   4
   3  -4  11 327.410 9.93028   2
  -4   4 -11 6.02487 0.93171   5
   4  -4  11 8.16709 1.13512   2
  -5   4 -11 30.5670 1.84004   5
   5  -4  11 31.5947 1.98188   2
  -6   4 -11 9.41426 1.11758   5
   6  -4  11 10.2953 1.29327   2
   7   3 -11 77.5829 3.52872   4
  -7  -3  11 74.5493 3.66299   1
   6   3 -11 1.06028 0.72279   4
   5   3 -11 183.198 6.21255   1
   4   3 -11 7.68299 0.92488   5
   4   3 -11 7.80685 1.06303   1
  -4  -3  11 7.55349 1.05074   4
  -4  -3  11 7.72897 1.00898   2
   3   3 -11 68.6430 2.78637   1
   3   3 -11 63.6376 2.64845   5
  -3  -3  11 66.7397 2.81785   2
  -3  -3  11 65.3563 2.74800   4
   2   3 -11 0.69658 0.47182   1
   2   3 -11 0.83024 0.51781   5
  -2  -3  11 1.05422 0.60550   2
  -2  -3  11 0.49012 0.51251   4
   1   3 -11 55.2863 2.37729   5
   1   3 -11 51.9643 2.20241   1
  -1  -3  11 52.3268 2.44617   2
  -1  -3  11 53.1040 2.24577   4
   0   3 -11 72.9905 2.66603   1
   0   3 -11 68.3343 2.80575   5
   0  -3  11 71.0842 2.70365   4
   0  -3  11 69.2829 2.93270   2
  -1   3 -11 185.683 5.49548   1
  -1   3 -11 172.487 5.74376   5
   1  -3  11 170.640 5.82766   2
   1  -3  11 183.992 5.57581   4
  -2   3 -11 62.2780 2.69890   5
  -2   3 -11 63.2421 2.40055   1
   2  -3  11 65.6614 2.50765   4
   2  -3  11 63.5144 2.82187   2
  -3   3 -11 54.3359 2.11585   3
  -3   3 -11 50.3291 2.36267   5
   3  -3  11 51.5730 2.12426   6
   3  -3  11 49.1245 2.47786   2
  -4   3 -11 426.297 12.2010   3
  -4   3 -11 436.086 12.5647   5
   4  -3  11 433.937 12.3418   6
   4  -3  11 436.147 12.7036   2
  -5   3 -11 3.52147 0.65883   3
  -5   3 -11 3.36042 0.78930   5
   5  -3  11 4.18477 0.89784   2
   5  -3  11 3.47933 0.74884   6
  -6   3 -11 58.5066 2.58232   5
  -6   3 -11 55.4119 2.46765   3
   6  -3  11 55.7373 2.56616   6
   6  -3  11 55.7341 2.70528   2
  -7   3 -11 61.0685 2.78036   3
   7  -3  11 63.7230 2.90281   6
   7  -3  11 62.8338 3.14435   2
  -8   3 -11 71.4487 3.13683   3
  -9   3 -11 0.73774 0.91666   6
  -9   3 -11 0.31009 0.73012   3
   7   2 -11 46.3705 2.62395   4
  -7  -2  11 46.1954 2.73873   1
   6   2 -11 77.0603 3.36372   4
  -6  -2  11 76.8758 3.48055   1
   5   2 -11 6.47401 1.00442   4
   4   2 -11 0.01759 0.41191   5
   4   2 -11 0.36616 0.53349   1
   4   2 -11 0.15454 0.50419   4
  -4  -2  11 0.12902 0.47932   2
   3   2 -11 2.89154 0.63074   5
   3   2 -11 2.61676 0.68021   3
   3   2 -11 3.44272 0.69602   1
  -3  -2  11 3.29728 0.71729   2
  -3  -2  11 2.36037 0.63055   4
   2   2 -11 37.4655 1.86379   5
   2   2 -11 37.4933 1.79509   1
   2   2 -11 45.0966 1.73126   3
  -2  -2  11 37.1123 1.70301   6
  -2  -2  11 36.6657 1.77686   4
  -2  -2  11 33.9968 1.91430   2
   1   2 -11 146.471 4.58864   3
   1   2 -11 150.583 4.70812   1
   1   2 -11 152.239 4.89445   5
  -1  -2  11 149.800 4.63043   6
  -1  -2  11 149.681 4.98242   2
  -1  -2  11 144.995 4.70749   4
   0   2 -11 222.971 6.99361   5
   0   2 -11 228.555 6.70813   3
   0   2 -11 231.645 6.72167   1
   0  -2  11 229.966 7.12111   2
   0  -2  11 224.444 6.75287   4
   0  -2  11 231.414 6.72897   6
  -1   2 -11 12.8076 0.89578   1
  -1   2 -11 13.1495 1.11617   5
   1  -2  11 12.6961 0.96832   6
   1  -2  11 12.9504 1.26620   2
   1  -2  11 12.1376 0.94619   4
  -2   2 -11 174.771 5.24518   3
  -2   2 -11 170.275 5.51756   5
   2  -2  11 172.432 5.25769   6
   2  -2  11 159.880 5.54861   2
  -3   2 -11 49.7303 2.05683   3
  -3   2 -11 50.5936 2.30028   5
   3  -2  11 48.0774 2.08745   6
   3  -2  11 48.5384 2.36628   2
  -4   2 -11 5.05000 0.86458   5
  -4   2 -11 5.27950 0.75793   3
   4  -2  11 6.54251 1.02157   2
   4  -2  11 4.23996 0.72474   6
  -5   2 -11 1.97206 0.68465   5
  -5   2 -11 1.60904 0.58375   3
   5  -2  11 3.30363 0.73926   6
   5  -2  11 1.96176 0.70770   2
  -6   2 -11 8.29243 1.06886   5
  -6   2 -11 7.22404 0.98548   3
   6  -2  11 6.98506 1.03632   2
   6  -2  11 9.15659 1.14959   6
  -7   2 -11 22.2172 1.55780   5
  -7   2 -11 18.8111 1.58523   3
   7  -2  11 17.8852 1.56138   2
   7  -2  11 20.4870 1.66155   6
  -8   2 -11 16.7193 1.61616   3
   8  -2  11 17.3600 1.66647   6
  -9   2 -11 0.52171 0.78169   3
   7   1 -11 0.64911 0.78220   4
  -7  -1  11 -0.8729 0.73067   1
   6   1 -11 41.9035 2.34277   4
   6   1 -11 39.0863 2.18188   3
  -6  -1  11 46.7048 2.52792   1
  -6  -1  11 43.8995 2.41211   6
   5   1 -11 36.4917 1.97359   3
   5   1 -11 40.6831 2.11896   4
  -5  -1  11 40.0794 2.13384   6
  -5  -1  11 35.6110 2.12466   1
   4   1 -11 18.6211 1.36606   4
   4   1 -11 20.6535 1.37608   3
  -4  -1  11 18.6040 1.44491   6
   3   1 -11 49.6112 2.17790   4
   3   1 -11 48.5937 2.14421   5
   3   1 -11 52.1499 2.26509   1
   3   1 -11 52.4528 2.18960   3
  -3  -1  11 54.5971 2.27728   6
  -3  -1  11 55.1655 2.29692   2
   2   1 -11 1.05999 0.44898   3
   2   1 -11 0.70665 0.48705   5
   2   1 -11 1.65930 0.50512   1
  -2  -1  11 1.25930 0.47588   4
  -2  -1  11 1.49026 0.52223   6
  -2  -1  11 1.62231 0.56743   2
   1   1 -11 4.25165 0.71700   5
   1   1 -11 5.20143 0.67349   3
   1   1 -11 4.85159 0.64281   1
  -1  -1  11 4.64180 0.77485   2
  -1  -1  11 4.11109 0.65215   6
  -1  -1  11 4.21185 0.60029   4
   0   1 -11 14.6389 1.17480   5
   0   1 -11 14.0934 0.91416   1
   0   1 -11 13.9019 1.04583   3
   0  -1  11 15.6583 1.09385   6
   0  -1  11 14.8747 1.27388   2
  -1   1 -11 64.1300 2.66102   5
  -1   1 -11 68.8829 2.52460   3
   1  -1  11 65.3843 2.75290   2
   1  -1  11 66.8652 2.51727   6
  -2   1 -11 0.87022 0.43890   3
  -2   1 -11 1.44282 0.54107   5
   2  -1  11 1.03859 0.46111   6
   2  -1  11 0.62420 0.58506   2
  -3   1 -11 234.253 7.01262   3
  -3   1 -11 230.907 7.21590   5
   3  -1  11 239.804 7.10605   6
   3  -1  11 233.114 7.35694   2
  -4   1 -11 89.7041 3.35807   5
  -4   1 -11 86.3052 3.15526   3
   4  -1  11 85.8462 3.41003   2
   4  -1  11 86.9619 3.25633   6
  -5   1 -11 -0.3406 0.47031   3
  -5   1 -11 0.18446 0.52763   5
   5  -1  11 0.25632 0.55180   2
   5  -1  11 0.65532 0.57486   6
  -6   1 -11 103.252 3.86493   5
  -6   1 -11 104.177 3.82539   3
   6  -1  11 107.201 4.00359   6
   6  -1  11 105.204 3.99502   2
  -7   1 -11 6.42998 1.00685   3
  -7   1 -11 7.61965 1.00671   5
   7  -1  11 7.31700 1.10724   6
   7  -1  11 8.03024 1.12167   2
  -8   1 -11 -0.0790 0.69457   3
   8  -1  11 1.37471 0.77940   6
  -9   1 -11 4.39350 1.09036   3
   9  -1  11 4.03076 1.12406   6
   8   0 -11 2.99704 1.09168   3
  -8   0  11 2.88353 1.05788   6
   7   0 -11 -0.4035 0.59485   3
   7   0 -11 0.50163 0.78539   4
  -7   0  11 -0.2762 0.74325   1
  -7   0  11 0.22659 0.74816   6
   6   0 -11 5.22984 1.00865   4
   6   0 -11 5.52325 0.98298   3
  -6   0  11 7.03155 1.15268   1
  -6   0  11 5.65904 1.06226   6
   5   0 -11 6.05792 0.93903   3
   5   0 -11 5.57177 0.96907   4
  -5   0  11 7.32230 1.06785   1
  -5   0  11 5.84514 1.00408   6
   4   0 -11 53.6895 2.41741   3
   4   0 -11 55.5259 2.44459   4
  -4   0  11 54.4188 2.50588   6
  -4   0  11 55.9036 2.47117   1
   3   0 -11 6.84489 0.85061   3
   3   0 -11 8.86311 0.92607   4
   3   0 -11 5.96903 0.73358   5
  -3   0  11 7.51693 0.91843   1
  -3   0  11 7.66653 0.95269   6
  -3   0  11 7.19476 0.85040   2
   2   0 -11 40.8795 1.86508   3
   2   0 -11 42.2061 1.76367   4
   2   0 -11 37.2280 1.80637   5
  -2   0  11 39.1880 1.88376   6
  -2   0  11 38.0460 1.88173   2
   1   0 -11 0.90240 0.41406   3
   1   0 -11 0.52817 0.42231   5
   1   0 -11 1.15111 0.39398   1
  -1   0  11 0.54332 0.32532   4
  -1   0  11 0.98873 0.50060   2
  -1   0  11 -0.3734 0.37402   6
   0   0 -11 28.0717 1.52867   5
   0   0 -11 27.4655 1.46257   3
   0   0  11 26.1204 1.44323   6
   0   0  11 26.8288 1.59983   2
  -1   0 -11 12.6068 1.07481   5
  -1   0 -11 14.0275 1.07849   3
   1   0  11 14.9676 1.10611   6
   1   0  11 16.4690 1.29238   2
  -2   0 -11 308.605 9.28692   5
  -2   0 -11 316.409 9.17415   3
   2   0  11 322.434 9.42705   2
   2   0  11 314.620 9.20144   6
  -3   0 -11 70.1152 2.79639   5
  -3   0 -11 72.7486 2.73236   3
   3   0  11 67.6143 2.90480   2
   3   0  11 70.9650 2.77105   6
  -4   0 -11 3.64577 0.76679   5
  -4   0 -11 3.28517 0.68166   3
   4   0  11 2.29323 0.71477   2
   4   0  11 3.84865 0.75864   6
  -5   0 -11 26.5378 1.62653   3
  -5   0 -11 28.5978 1.72098   5
   5   0  11 33.5336 1.90046   2
   5   0  11 27.1903 1.73327   6
  -6   0 -11 0.55619 0.57815   5
  -6   0 -11 1.83280 0.67370   3
   6   0  11 2.64174 0.78423   2
   6   0  11 1.35901 0.70592   6
  -7   0 -11 7.28905 1.06936   3
  -7   0 -11 6.63174 0.98382   5
   7   0  11 7.23569 1.07502   2
   7   0  11 6.19494 1.04614   6
  -8   0 -11 23.8871 1.83908   3
  -8   0 -11 25.0330 1.72551   5
   8   0  11 22.8229 1.89825   6
   8   0  11 23.2666 1.77249   2
  -9   0 -11 34.2727 2.30365   3
   9   0  11 35.5401 2.41386   6
   7  -1 -11 30.2569 2.10150   3
   7  -1 -11 28.3467 2.07911   4
  -7   1  11 28.9957 2.16355   1
  -7   1  11 31.3673 2.22021   6
   6  -1 -11 52.4835 2.66932   4
   6  -1 -11 50.5387 2.64117   3
  -6   1  11 52.2277 2.73662   6
  -6   1  11 52.0442 2.70745   1
   5  -1 -11 18.1535 1.58403   3
   5  -1 -11 22.7608 1.65024   4
  -5   1  11 22.5049 1.65734   1
  -5   1  11 19.9148 1.71607   6
   4  -1 -11 96.4368 3.68239   3
   4  -1 -11 101.664 3.61350   4
  -4   1  11 99.3356 3.76882   6
  -4   1  11 93.9933 3.62394   1
   3  -1 -11 36.4340 1.74058   4
   3  -1 -11 33.2800 1.81033   3
   3  -1 -11 33.8814 1.73003   5
  -3   1  11 38.0466 2.33702   2
  -3   1  11 34.0479 1.90165   6
  -3   1  11 36.5989 1.77391   1
   2  -1 -11 39.6651 1.82153   5
   2  -1 -11 40.3261 1.91676   3
   2  -1 -11 40.1422 1.71646   4
  -2   1  11 40.3866 1.90249   2
  -2   1  11 41.0477 1.99850   6
  -2   1  11 42.3956 1.79410   1
   1  -1 -11 42.5203 1.86339   4
   1  -1 -11 36.0643 1.77564   5
   1  -1 -11 40.9249 1.86319   3
  -1   1  11 39.5831 2.09092   1
  -1   1  11 36.5485 1.83716   2
  -1   1  11 36.2775 1.85782   6
   0  -1 -11 40.9311 1.89365   3
   0  -1 -11 40.1328 1.89075   5
   0   1  11 42.0922 1.93475   6
   0   1  11 39.1894 1.94791   2
  -1  -1 -11 0.70977 0.43738   3
  -1  -1 -11 0.06209 0.46327   5
   1   1  11 0.78009 0.47438   6
   1   1  11 -0.6056 0.42138   2
  -2  -1 -11 19.0466 1.36305   5
  -2  -1 -11 20.9971 1.32179   3
   2   1  11 20.0247 1.33849   6
   2   1  11 18.4914 1.42119   2
  -3  -1 -11 18.6729 1.34991   5
  -3  -1 -11 15.6748 1.19391   3
   3   1  11 16.9293 1.27631   6
   3   1  11 15.5007 1.29277   2
  -4  -1 -11 54.5293 2.51080   5
  -4  -1 -11 60.6024 2.49353   3
   4   1  11 58.7146 2.55174   6
   4   1  11 62.4427 2.67730   2
  -5  -1 -11 21.9478 1.51135   3
  -5  -1 -11 25.3106 1.60714   5
   5   1  11 22.9488 1.62085   2
   5   1  11 24.5664 1.62831   6
  -6  -1 -11 8.87585 1.07215   5
  -6  -1 -11 13.1248 1.29026   3
   6   1  11 13.1922 1.38888   6
   6   1  11 11.0376 1.23855   2
  -7  -1 -11 3.14294 0.77760   5
  -7  -1 -11 2.60208 0.79997   3
   7   1  11 2.07245 0.83575   6
   7   1  11 2.54419 0.77909   2
  -8  -1 -11 33.3488 1.98194   5
  -8  -1 -11 31.0686 2.07825   3
   8   1  11 36.5633 2.34906   6
   8   1  11 34.2897 2.11352   2
  -9  -1 -11 28.3970 2.12524   3
   9   1  11 27.3158 2.21218   6
   7  -2 -11 110.099 4.32689   4
   7  -2 -11 98.8915 4.33974   3
  -7   2  11 111.650 4.53473   6
  -7   2  11 103.280 4.34077   1
   6  -2 -11 69.9600 3.07858   4
   6  -2 -11 66.7978 3.19930   3
  -6   2  11 65.8623 3.09957   1
  -6   2  11 64.3846 3.25653   6
   5  -2 -11 215.748 7.21985   3
   5  -2 -11 223.722 7.08388   4
  -5   2  11 226.366 7.34904   6
  -5   2  11 224.028 7.15165   1
   4  -2 -11 156.389 5.03518   4
   4  -2 -11 141.825 5.16874   3
  -4   2  11 151.151 5.27637   6
  -4   2  11 152.893 5.07267   1
   3  -2 -11 42.5207 1.87952   4
   3  -2 -11 35.1079 1.95096   3
  -3   2  11 36.5967 2.07287   6
  -3   2  11 38.0471 1.85984   1
   2  -2 -11 49.3973 2.09640   5
   2  -2 -11 48.6933 2.23552   3
   2  -2 -11 50.0185 2.08064   4
  -2   2  11 51.3243 2.25243   1
  -2   2  11 49.3910 2.15138   2
  -2   2  11 50.4931 2.32308   6
   1  -2 -11 27.2583 1.56229   3
   1  -2 -11 26.4948 1.49015   5
  -1   2  11 27.5540 1.63712   6
  -1   2  11 26.0093 1.54690   2
   0  -2 -11 43.1331 2.02565   3
   0  -2 -11 45.8232 2.02393   5
   0   2  11 45.1093 2.08225   2
   0   2  11 41.5947 2.06192   6
  -1  -2 -11 405.440 11.1715   5
  -1  -2 -11 368.623 11.0482   3
   1   2  11 394.527 11.2277   2
   1   2  11 371.527 11.0953   6
  -2  -2 -11 647.394 18.2948   5
  -2  -2 -11 673.107 18.2806   3
   2   2  11 655.443 18.4169   2
   2   2  11 652.460 18.3104   6
  -3  -2 -11 135.546 4.69618   5
  -3  -2 -11 137.532 4.65783   3
   3   2  11 143.399 4.84455   2
   3   2  11 144.480 4.77203   6
  -4  -2 -11 250.674 7.72424   5
  -4  -2 -11 247.061 7.61902   3
   4   2  11 250.913 7.81227   2
   4   2  11 255.519 7.77434   6
  -5  -2 -11 19.1731 1.43448   3
  -5  -2 -11 19.2003 1.39742   5
   5   2  11 19.0269 1.52580   2
   5   2  11 17.4506 1.41653   6
  -6  -2 -11 3.04715 0.76863   5
  -6  -2 -11 4.06796 0.87193   3
   6   2  11 1.48957 0.67852   2
   6   2  11 4.82412 0.96177   6
  -7  -2 -11 77.8592 3.32658   3
  -7  -2 -11 80.3212 3.25687   5
   7   2  11 76.6359 3.34035   2
   7   2  11 77.3021 3.39625   6
  -8  -2 -11 32.6524 1.99576   5
  -8  -2 -11 29.7173 2.14221   3
   8   2  11 34.3352 2.15965   2
   8   2  11 32.3659 2.25288   6
  -9  -2 -11 0.84636 0.82213   3
   9   2  11 1.16000 0.89895   6
   7  -3 -11 89.6955 3.81938   4
  -7   3  11 85.9015 3.85937   1
   6  -3 -11 5.99860 1.16384   3
   6  -3 -11 4.42383 0.97992   4
  -6   3  11 3.50364 0.99961   1
  -6   3  11 4.70944 1.21725   6
   5  -3 -11 17.5195 1.50485   4
   5  -3 -11 19.4217 1.69396   3
  -5   3  11 18.2427 1.57602   1
  -5   3  11 18.6551 1.84676   6
   4  -3 -11 343.792 9.94486   4
   4  -3 -11 329.221 10.1861   3
  -4   3  11 331.505 10.2484   6
  -4   3  11 336.422 9.95393   1
   3  -3 -11 0.86249 0.55703   3
   3  -3 -11 0.02704 0.46102   4
  -3   3  11 0.73861 0.67557   6
  -3   3  11 0.48679 0.55038   1
   2  -3 -11 279.014 7.98252   5
   2  -3 -11 267.056 8.22498   3
  -2   3  11 269.783 8.35919   6
  -2   3  11 265.690 8.01938   2
   1  -3 -11 200.072 6.52812   3
   1  -3 -11 220.072 6.46611   5
  -1   3  11 209.409 6.47471   2
  -1   3  11 207.565 6.64397   6
   0  -3 -11 4.76416 0.75005   5
   0  -3 -11 3.68453 0.68475   3
   0   3  11 3.28948 0.74826   6
   0   3  11 3.57369 0.72990   2
  -1  -3 -11 192.005 5.89687   3
  -1  -3 -11 179.937 5.82745   5
   1   3  11 183.329 5.92330   6
   1   3  11 182.450 5.92078   2
  -2  -3 -11 0.43171 0.51441   5
  -2  -3 -11 0.07793 0.49630   3
   2   3  11 0.05761 0.44609   6
   2   3  11 0.50927 0.54089   2
  -3  -3 -11 293.785 8.71022   5
  -3  -3 -11 290.576 8.62590   3
   3   3  11 277.473 8.67220   6
   3   3  11 288.729 8.78852   2
  -4  -3 -11 6.49182 0.91580   3
  -4  -3 -11 5.85980 0.93295   5
   4   3  11 5.15992 0.84568   6
   4   3  11 5.11004 0.91096   2
  -5  -3 -11 119.510 4.33264   5
  -5  -3 -11 117.692 4.26644   3
   5   3  11 119.390 4.41721   2
   5   3  11 123.880 4.42568   6
  -6  -3 -11 37.8512 2.08312   3
  -6  -3 -11 36.6116 2.07285   5
   6   3  11 35.0219 2.12123   6
   6   3  11 37.2436 2.16618   2
  -7  -3 -11 466.651 13.5847   3
  -7  -3 -11 475.921 13.5773   5
   7   3  11 455.443 13.6861   2
   7   3  11 457.747 13.7547   6
  -8  -3 -11 12.7213 1.52251   3
  -8  -3 -11 11.4525 1.31502   5
   8   3  11 12.1277 1.56119   6
   8   3  11 13.2398 1.46479   2
  -9  -3 -11 1.04856 0.80882   3
  -9  -3 -11 0.52831 0.67291   5
   9   3  11 0.95553 0.77587   2
   9   3  11 -1.2438 0.74883   6
   7  -4 -11 140.157 6.96692   4
   6  -4 -11 50.4146 2.88395   3
   6  -4 -11 55.7875 2.76809   4
  -6   4  11 54.6602 3.07800   6
  -6   4  11 49.8780 2.70425   1
   5  -4 -11 453.205 13.1598   4
   5  -4 -11 439.424 13.4254   3
  -5   4  11 460.464 13.5745   6
  -5   4  11 445.532 13.1669   1
   4  -4 -11 9.74633 1.26492   3
  -4   4  11 7.30997 1.20472   6
   3  -4 -11 76.6515 3.32709   3
  -3   4  11 87.1424 3.56921   6
   2  -4 -11 135.546 4.79575   3
  -2   4  11 141.106 4.98041   6
   1  -4 -11 239.219 7.45559   3
   1  -4 -11 249.032 7.30823   5
  -1   4  11 236.116 7.55574   6
  -1   4  11 236.734 7.31825   2
   0  -4 -11 19.4818 1.39831   5
   0  -4 -11 20.1142 1.43205   3
   0   4  11 18.0531 1.42742   6
   0   4  11 18.1576 1.37149   2
  -1  -4 -11 304.964 8.93576   5
  -1  -4 -11 298.969 8.95843   3
   1   4  11 292.191 9.00842   6
   1   4  11 298.743 8.98546   2
  -2  -4 -11 86.2977 3.31546   5
  -2  -4 -11 87.6036 3.36573   3
   2   4  11 88.5582 3.41578   6
   2   4  11 88.3090 3.42624   2
  -3  -4 -11 141.030 4.95852   3
  -3  -4 -11 156.007 5.10588   5
   3   4  11 149.348 5.14792   2
   3   4  11 150.873 5.11835   6
  -4  -4 -11 368.265 10.9043   3
  -4  -4 -11 383.691 11.0105   5
   4   4  11 364.380 10.9987   6
   4   4  11 365.390 11.0613   2
  -5  -4 -11 61.4489 2.79520   5
  -5  -4 -11 64.5174 2.81050   3
   5   4  11 67.4490 3.03335   2
   5   4  11 66.4830 2.92791   6
  -6  -4 -11 463.428 13.9081   5
  -6  -4 -11 492.122 13.9590   3
   6   4  11 480.532 14.0969   2
   6   4  11 480.257 14.1037   6
  -7  -4 -11 50.1069 2.57294   5
  -7  -4 -11 49.9815 2.63411   3
   7   4  11 54.4104 2.75226   2
   7   4  11 54.8064 2.84115   6
  -8  -4 -11 17.0551 1.68738   3
  -8  -4 -11 18.6951 1.63128   5
   8   4  11 17.9232 1.83324   6
   8   4  11 20.6993 1.77746   2
  -9  -4 -11 60.4076 3.09088   3
  -9  -4 -11 59.5393 2.92652   5
   9   4  11 61.6334 3.09979   2
   9   4  11 62.3661 3.33390   6
   5  -5 -11 60.6402 3.13367   3
  -5   5  11 64.5094 3.30576   6
   4  -5 -11 1.75994 0.76810   3
  -4   5  11 1.90233 1.00487   6
   3  -5 -11 13.5932 1.48039   3
  -3   5  11 12.0033 1.46475   6
   2  -5 -11 615.100 17.4181   3
  -2   5  11 608.098 17.5408   6
   1  -5 -11 0.16976 0.51556   3
   1  -5 -11 0.70942 0.53530   5
  -1   5  11 0.38545 0.53539   2
  -1   5  11 0.54599 0.61505   6
   0  -5 -11 262.074 7.94308   5
   0  -5 -11 264.269 8.09323   3
   0   5  11 258.003 8.19454   6
   0   5  11 265.643 8.05622   2
  -1  -5 -11 207.347 6.50045   5
  -1  -5 -11 207.167 6.58004   3
   1   5  11 195.202 6.60049   6
   1   5  11 211.888 6.62527   2
  -2  -5 -11 62.6027 2.77465   5
  -2  -5 -11 66.0305 2.81686   3
   2   5  11 68.1027 2.93701   6
   2   5  11 67.2923 2.92321   2
  -3  -5 -11 359.261 10.7487   5
  -3  -5 -11 366.471 10.7306   3
   3   5  11 369.823 10.9086   2
   3   5  11 354.466 10.8085   6
  -4  -5 -11 14.4913 1.31104   5
  -4  -5 -11 17.1528 1.45638   3
   4   5  11 13.9439 1.35961   6
   4   5  11 15.7514 1.54556   2
  -5  -5 -11 147.802 5.24837   5
  -5  -5 -11 157.346 5.22019   3
   5   5  11 147.331 5.35746   2
   5   5  11 148.789 5.33828   6
  -6  -5 -11 55.8671 2.73378   5
  -6  -5 -11 53.7292 2.63760   3
   6   5  11 52.6482 2.71797   6
   6   5  11 57.0890 2.86160   2
  -7  -5 -11 53.8661 2.72377   5
  -7  -5 -11 55.3299 2.76768   3
   7   5  11 54.7673 2.86440   2
   7   5  11 55.5111 2.90349   6
  -8  -5 -11 37.3180 2.25538   5
  -8  -5 -11 35.5843 2.28865   3
   8   5  11 38.8837 2.50040   6
   8   5  11 37.4065 2.37579   2
  -9  -5 -11 286.142 9.09902   5
   9   5  11 285.826 9.50235   6
   9   5  11 290.422 9.29117   2
   5  -6 -11 55.9417 3.07432   3
  -5   6  11 58.3998 3.26206   6
   4  -6 -11 0.08187 0.69540   3
  -4   6  11 -0.0601 0.88032   6
   3  -6 -11 189.833 6.40703   3
  -3   6  11 183.370 6.48919   6
   2  -6 -11 38.0608 2.18607   3
  -2   6  11 38.2357 2.29151   6
   1  -6 -11 89.8323 3.34909   5
   1  -6 -11 84.8152 3.52301   3
  -1   6  11 88.1609 3.69445   6
  -1   6  11 90.1562 3.43766   2
   0  -6 -11 54.8580 2.55928   3
   0  -6 -11 49.0440 2.34277   5
   0   6  11 54.0116 2.69484   6
   0   6  11 56.1104 2.52806   2
  -1  -6 -11 6.17198 0.98060   3
  -1  -6 -11 4.95931 0.86042   5
   1   6  11 5.62486 0.95988   2
   1   6  11 5.29464 0.97722   6
  -2  -6 -11 86.9692 3.47489   3
  -2  -6 -11 85.7829 3.44197   5
   2   6  11 85.3877 3.53188   2
   2   6  11 90.7549 3.60432   6
  -3  -6 -11 254.920 7.88046   3
  -3  -6 -11 254.434 7.92489   5
   3   6  11 246.347 7.96586   6
   3   6  11 249.106 8.00735   2
  -4  -6 -11 21.0817 1.64232   5
  -4  -6 -11 19.3888 1.57620   3
   4   6  11 19.5480 1.69929   2
   4   6  11 17.3322 1.60960   6
  -5  -6 -11 76.7919 3.35267   5
  -5  -6 -11 75.6663 3.23694   3
   5   6  11 75.0512 3.35061   6
   5   6  11 74.2974 3.41802   2
  -6  -6 -11 469.922 13.8649   5
  -6  -6 -11 451.886 13.6674   3
   6   6  11 472.292 14.0092   2
   6   6  11 481.813 13.9593   6
  -7  -6 -11 0.25307 0.70387   5
  -7  -6 -11 -0.2928 0.59846   3
   7   6  11 -0.3711 0.69753   2
   7   6  11 -0.4082 0.72360   6
  -8  -6 -11 162.907 5.94358   5
   8   6  11 173.128 6.21273   6
   8   6  11 168.834 6.12569   2
  -9  -6 -11 4.61209 1.10966   5
   9   6  11 4.93534 1.22432   2
   4  -7 -11 20.7584 1.91454   3
  -4   7  11 20.3630 2.06202   6
   3  -7 -11 56.4576 2.91991   3
  -3   7  11 60.6743 3.17476   6
   2  -7 -11 14.3319 1.53934   3
  -2   7  11 11.9550 1.48512   6
   1  -7 -11 9.13689 1.21175   3
  -1   7  11 10.3833 1.35445   6
   0  -7 -11 373.632 11.1161   3
   0  -7 -11 358.739 10.8874   5
   0   7  11 379.060 11.3148   6
   0   7  11 374.330 11.0573   2
  -1  -7 -11 6.27935 0.99928   3
  -1  -7 -11 6.23935 0.97654   5
   1   7  11 3.99848 0.90866   2
   1   7  11 4.28250 1.00428   6
  -2  -7 -11 314.501 9.54491   5
  -2  -7 -11 303.778 9.48203   3
   2   7  11 308.789 9.59887   2
   2   7  11 318.091 9.66196   6
  -3  -7 -11 131.058 4.73791   3
  -3  -7 -11 128.092 4.80013   5
   3   7  11 132.578 4.91387   2
   3   7  11 135.439 4.90224   6
  -4  -7 -11 34.0634 2.20449   5
  -4  -7 -11 36.1639 2.09729   3
   4   7  11 30.5271 2.18207   2
   4   7  11 35.2898 2.17637   6
  -5  -7 -11 286.687 9.17285   5
  -5  -7 -11 284.266 8.96423   3
   5   7  11 288.341 9.24422   2
   5   7  11 296.975 9.19758   6
  -6  -7 -11 26.6081 1.94000   3
  -6  -7 -11 29.6718 2.11130   5
   6   7  11 28.5340 2.17478   2
   6   7  11 27.9693 2.07844   6
  -7  -7 -11 30.3749 2.05616   3
  -7  -7 -11 32.7706 2.24774   5
   7   7  11 33.1363 2.26776   6
  -8  -7 -11 83.6963 3.75729   5
  -8  -7 -11 77.3248 3.61136   3
   8   7  11 86.7198 3.90779   6
   8   7  11 83.8027 3.90441   2
   3  -8 -11 24.6815 2.06667   3
  -3   8  11 27.7681 2.26991   6
   2  -8 -11 1.35292 0.84561   3
  -2   8  11 0.81174 0.89406   6
   1  -8 -11 50.0340 2.62805   3
  -1   8  11 51.7385 2.80856   6
   0  -8 -11 11.8507 1.28849   5
   0  -8 -11 11.3543 1.36172   3
   0   8  11 11.5670 1.31674   2
   0   8  11 13.0817 1.54774   6
  -1  -8 -11 97.3862 3.88468   5
  -1  -8 -11 100.506 3.96842   3
   1   8  11 100.732 4.01000   2
   1   8  11 102.209 4.09280   6
  -2  -8 -11 2.43563 0.86056   5
  -2  -8 -11 3.74908 0.90243   3
   2   8  11 1.89825 0.81913   6
   2   8  11 2.03589 0.93230   2
  -3  -8 -11 3.99914 1.02160   5
  -3  -8 -11 5.45191 1.02039   3
   3   8  11 5.37925 1.06458   6
   3   8  11 6.34601 1.21760   2
  -4  -8 -11 7.98000 1.27202   5
  -4  -8 -11 9.35236 1.26939   3
   4   8  11 9.53589 1.45719   2
   4   8  11 8.55288 1.26993   6
  -5  -8 -11 219.217 7.49794   5
  -5  -8 -11 219.877 7.27924   3
   5   8  11 224.374 7.48857   6
   5   8  11 232.258 7.69677   2
  -6  -8 -11 3.40698 0.94246   5
  -6  -8 -11 4.25166 1.02734   3
   6   8  11 4.95244 1.21433   2
   6   8  11 4.21876 1.05149   6
  -7  -8 -11 0.34924 0.81854   5
  -7  -8 -11 1.28825 0.81986   3
   7   8  11 0.55677 0.96254   2
   7   8  11 1.25256 0.87793   6
  -8  -8 -11 79.9996 4.88780   3
   2  -9 -11 -0.2429 0.69500   3
  -2   9  11 -0.3886 0.77711   6
   1  -9 -11 23.9922 1.88313   3
  -1   9  11 23.5373 2.04330   6
   0  -9 -11 19.6019 1.68740   3
   0   9  11 19.4581 1.94589   6
  -1  -9 -11 -0.2653 0.68498   5
  -1  -9 -11 0.88215 0.72500   3
   1   9  11 0.40385 0.77946   2
   1   9  11 -0.2412 0.73859   6
  -2  -9 -11 83.0424 3.51243   5
  -2  -9 -11 82.7916 3.47791   3
   2   9  11 73.2230 3.49258   6
   2   9  11 81.3276 3.60192   2
  -3  -9 -11 1.76672 0.87688   5
  -3  -9 -11 0.39815 0.72046   3
   3   9  11 0.07786 0.78246   2
   3   9  11 1.44003 0.82059   6
  -4  -9 -11 82.4788 3.54174   3
  -4  -9 -11 83.8509 3.78127   5
   4   9  11 83.4247 3.69373   6
   4   9  11 87.7942 3.91273   2
  -5  -9 -11 15.8596 1.69737   5
  -5  -9 -11 17.2435 1.68191   3
   5   9  11 17.0553 1.84621   2
   5   9  11 22.0016 1.91966   6
  -6  -9 -11 -0.5891 0.76800   5
  -6  -9 -11 -0.4019 0.71168   3
   6   9  11 0.28713 0.91053   2
   6   9  11 1.03506 0.82830   6
  -7  -9 -11 21.2038 1.85754   3
   7   9  11 15.8320 1.77734   6
   1 -10 -11 2.64812 1.53114   3
   0 -10 -11 0.68794 0.76521   3
   0  10  11 1.69770 0.90646   6
  -1 -10 -11 14.7454 1.55691   3
  -1 -10 -11 12.8900 1.46995   5
   1  10  11 12.4198 1.52158   2
   1  10  11 15.6343 1.69139   6
  -2 -10 -11 0.06938 0.71289   3
  -2 -10 -11 0.12201 0.71606   5
   2  10  11 -0.8662 0.71505   2
   2  10  11 0.15395 0.72448   6
  -3 -10 -11 0.25371 0.74074   3
  -3 -10 -11 -1.0931 0.74302   5
   3  10  11 -1.2591 0.76206   2
   3  10  11 0.49298 0.74424   6
  -4 -10 -11 5.48531 1.07222   3
  -4 -10 -11 4.14000 1.18394   5
   4  10  11 4.31353 1.22844   2
   4  10  11 4.18130 1.03758   6
  -5 -10 -11 14.6188 1.56137   3
   5  10  11 17.3648 1.81508   6
  -6 -10 -11 6.12508 1.21328   3
   6  10  11 5.41077 1.40771   6
   3   8 -12 74.0188 3.50441   1
   3   8 -12 71.8259 3.67647   5
  -3  -8  12 70.4640 3.63348   2
  -3  -8  12 73.9476 3.61359   4
   2   8 -12 110.386 4.43547   1
   2   8 -12 107.919 4.37776   5
  -2  -8  12 109.521 4.49942   4
  -2  -8  12 108.947 4.60408   2
   1   8 -12 2.92783 0.88164   5
   1   8 -12 2.18642 0.85155   1
  -1  -8  12 2.98904 1.01013   4
  -1  -8  12 3.82049 1.15563   2
   0   8 -12 133.055 4.85542   1
   0   8 -12 117.710 4.74948   5
   0  -8  12 131.356 4.97757   4
   0  -8  12 125.278 5.03648   2
  -1   8 -12 14.1847 1.52322   5
  -1   8 -12 16.1020 1.67784   1
   1  -8  12 15.3618 1.73930   2
   1  -8  12 14.7228 1.66319   4
  -2   8 -12 21.7295 1.86595   5
  -2   8 -12 19.8303 1.69210   1
   2  -8  12 19.0958 1.92930   4
   2  -8  12 17.5388 1.93726   2
  -3   8 -12 103.766 4.21575   5
  -3   8 -12 101.116 4.10613   1
   3  -8  12 104.189 4.38709   4
   3  -8  12 103.630 4.47876   2
  -4   8 -12 -0.4378 0.73312   1
   4  -8  12 0.22984 0.89239   4
   5   7 -12 32.2516 2.06669   5
  -5  -7  12 28.2505 2.16205   2
   4   7 -12 62.9263 3.11297   1
   4   7 -12 59.9311 2.87593   5
  -4  -7  12 53.0062 2.98474   4
  -4  -7  12 55.5634 3.06671   2
   3   7 -12 156.070 5.60172   5
   3   7 -12 164.383 5.78590   1
  -3  -7  12 160.565 5.85227   2
  -3  -7  12 155.169 5.75292   4
   2   7 -12 5.11722 1.08428   1
   2   7 -12 4.90241 1.04901   5
  -2  -7  12 4.81499 1.13706   2
  -2  -7  12 5.29063 1.17210   4
   1   7 -12 163.003 5.65815   5
   1   7 -12 152.854 5.51868   1
  -1  -7  12 160.478 5.80072   2
  -1  -7  12 156.016 5.62659   4
   0   7 -12 19.8206 1.74585   5
   0   7 -12 18.9473 1.57369   1
   0  -7  12 17.7116 1.66488   4
   0  -7  12 19.2101 1.87509   2
  -1   7 -12 5.51350 1.08023   5
  -1   7 -12 4.53206 0.94014   1
   1  -7  12 4.55213 1.12305   2
   1  -7  12 5.99380 1.12124   4
  -2   7 -12 1.95896 0.73714   1
  -2   7 -12 2.40768 0.86881   5
   2  -7  12 2.07526 0.82867   4
   2  -7  12 1.83349 0.90505   2
  -3   7 -12 181.718 6.18149   5
  -3   7 -12 177.639 6.01287   1
   3  -7  12 181.560 6.40123   2
   3  -7  12 174.996 6.25745   4
  -4   7 -12 25.2273 1.88898   5
   4  -7  12 25.2108 2.11024   2
  -5   7 -12 105.170 4.09498   5
   5  -7  12 100.342 4.36554   2
   5   6 -12 49.8176 2.87745   1
  -5  -6  12 53.3792 2.90653   4
   4   6 -12 67.9684 3.04053   5
   4   6 -12 74.1780 3.33465   1
  -4  -6  12 67.1923 3.25389   4
  -4  -6  12 65.3494 3.19142   2
   3   6 -12 55.6621 2.69455   5
   3   6 -12 57.4843 2.83510   1
  -3  -6  12 56.4502 2.85806   4
  -3  -6  12 55.5142 2.88727   2
   2   6 -12 0.20758 0.70427   5
   2   6 -12 0.57531 0.61521   1
  -2  -6  12 -0.1704 0.70491   2
  -2  -6  12 0.68454 0.69869   4
   1   6 -12 102.630 4.05259   5
   1   6 -12 109.079 4.02687   1
  -1  -6  12 98.1559 4.00208   4
  -1  -6  12 107.666 4.25030   2
   0   6 -12 15.0465 1.35988   1
   0   6 -12 17.0539 1.49164   5
   0  -6  12 12.9973 1.48374   2
   0  -6  12 14.8736 1.42234   4
  -1   6 -12 24.5220 1.67482   1
  -1   6 -12 25.0675 1.75231   5
   1  -6  12 25.7492 1.81691   4
   1  -6  12 27.3100 2.04697   2
  -2   6 -12 404.079 11.8655   1
  -2   6 -12 414.164 12.1460   5
   2  -6  12 405.189 12.0673   4
   2  -6  12 399.939 12.2920   2
  -3   6 -12 7.05633 1.13073   5
  -3   6 -12 4.89986 0.91718   1
   3  -6  12 7.14538 1.14703   4
   3  -6  12 5.83368 1.17968   2
  -4   6 -12 345.303 10.4190   5
   4  -6  12 337.445 10.6400   2
  -5   6 -12 44.4066 2.42563   5
   5  -6  12 46.7488 2.73604   2
   6   5 -12 42.2584 2.67639   1
  -6  -5  12 47.4339 2.77719   4
   5   5 -12 1.65845 0.79592   1
  -5  -5  12 2.56669 0.94622   4
   4   5 -12 321.190 9.94590   1
   4   5 -12 317.680 9.64373   5
  -4  -5  12 323.979 9.86688   2
  -4  -5  12 313.926 9.88707   4
   3   5 -12 20.8902 1.61386   5
   3   5 -12 22.0229 1.66401   1
  -3  -5  12 21.1567 1.75023   2
  -3  -5  12 21.9022 1.69711   4
   2   5 -12 21.8066 1.65388   5
   2   5 -12 24.8514 1.65889   1
  -2  -5  12 22.8207 1.65070   4
  -2  -5  12 22.3250 1.80043   2
   1   5 -12 14.4131 1.40388   5
   1   5 -12 15.1824 1.29393   1
  -1  -5  12 14.9600 1.33853   4
  -1  -5  12 13.5671 1.47785   2
   0   5 -12 0.42770 0.49903   1
   0   5 -12 1.13337 0.69116   5
   0  -5  12 0.96638 0.58782   4
   0  -5  12 -0.0817 0.64319   2
  -1   5 -12 -0.3084 0.43197   1
  -1   5 -12 0.28489 0.59177   5
   1  -5  12 0.43588 0.73642   2
   1  -5  12 0.20940 0.54351   4
  -2   5 -12 7.24500 1.08948   5
  -2   5 -12 8.15655 1.01593   1
   2  -5  12 9.68919 1.16571   4
   2  -5  12 7.22344 1.16526   2
  -3   5 -12 8.82404 1.18616   5
   3  -5  12 7.40154 1.19050   2
  -4   5 -12 21.2343 1.64406   5
   4  -5  12 16.3211 1.67163   2
  -5   5 -12 91.8905 3.64697   5
   5  -5  12 87.9215 3.81909   2
  -6   5 -12 0.38148 0.65775   5
   6  -5  12 0.34410 0.71685   2
   6   4 -12 2.22124 0.93717   1
  -6  -4  12 3.30037 1.04631   4
   5   4 -12 59.1808 2.95487   1
  -5  -4  12 62.4398 3.00658   4
   4   4 -12 28.4353 1.76620   5
   4   4 -12 29.9541 1.97281   1
  -4  -4  12 27.3008 1.93836   2
  -4  -4  12 30.3269 1.98110   4
   3   4 -12 8.29693 1.11043   1
   3   4 -12 10.3508 1.18001   5
  -3  -4  12 11.9080 1.35106   2
  -3  -4  12 9.28234 1.19298   4
   2   4 -12 0.41075 0.60701   5
   2   4 -12 0.81223 0.55139   1
  -2  -4  12 0.60712 0.56055   4
  -2  -4  12 0.32883 0.69407   2
   1   4 -12 2.56279 0.74411   5
   1   4 -12 4.52196 0.78886   1
  -1  -4  12 2.49166 0.80696   2
  -1  -4  12 3.78776 0.77045   4
   0   4 -12 17.8449 1.31241   1
   0   4 -12 17.7862 1.49780   5
   0  -4  12 21.5637 1.41825   4
   0  -4  12 18.5203 1.61912   2
  -1   4 -12 62.3183 2.81838   5
  -1   4 -12 65.3818 2.58581   1
   1  -4  12 64.5917 2.67032   4
   1  -4  12 60.6402 2.90253   2
  -2   4 -12 28.6324 1.81844   1
  -2   4 -12 24.3166 1.71891   5
   2  -4  12 25.0233 1.69306   4
   2  -4  12 23.2307 1.74498   2
  -3   4 -12 168.490 5.60379   5
   3  -4  12 158.570 5.69847   2
  -4   4 -12 68.7715 2.99287   5
   4  -4  12 66.0609 3.10765   2
  -5   4 -12 0.80435 0.66964   5
   5  -4  12 1.98690 0.84972   2
  -6   4 -12 4.61052 0.93370   5
   6  -4  12 6.09401 1.11900   2
   5   3 -12 126.746 4.70256   1
  -5  -3  12 119.818 4.61246   4
   4   3 -12 4.74993 0.91699   1
   4   3 -12 4.13240 0.78239   5
  -4  -3  12 4.68218 0.91926   4
  -4  -3  12 4.98470 0.93053   2
   3   3 -12 0.13596 0.53635   5
   3   3 -12 0.14543 0.49372   1
  -3  -3  12 -0.9823 0.53049   2
  -3  -3  12 0.38770 0.54280   4
   2   3 -12 52.9840 2.39286   5
   2   3 -12 58.3674 2.42654   1
  -2  -3  12 48.1943 2.43778   2
  -2  -3  12 49.0520 2.29286   4
   1   3 -12 11.4127 1.18097   5
   1   3 -12 13.7142 1.10687   1
  -1  -3  12 15.0286 1.39791   2
  -1  -3  12 12.5470 1.13281   4
   0   3 -12 65.7265 2.50435   1
   0   3 -12 58.3523 2.66655   5
   0  -3  12 61.8503 2.51413   4
   0  -3  12 61.5230 2.81981   2
  -1   3 -12 34.6995 1.95471   5
  -1   3 -12 35.2234 1.69875   1
   1  -3  12 34.8523 1.75721   4
   1  -3  12 33.8891 2.04712   2
  -2   3 -12 22.6086 1.63813   5
   2  -3  12 25.1603 1.82195   2
  -3   3 -12 1.74339 0.68593   5
   3  -3  12 2.92837 0.86308   2
  -4   3 -12 1.11327 0.63206   5
   4  -3  12 0.15108 0.60639   2
  -5   3 -12 17.9224 1.50701   5
   5  -3  12 20.8624 1.90927   6
   5  -3  12 17.9374 1.62890   2
  -6   3 -12 13.2669 1.38934   5
  -6   3 -12 14.3822 1.34730   3
   6  -3  12 14.8115 1.44186   6
   6  -3  12 14.6168 1.51122   2
  -7   3 -12 30.7737 1.94332   5
  -7   3 -12 29.5791 1.92270   3
   7  -3  12 33.1911 2.12762   6
   7  -3  12 29.9428 2.10583   2
  -8   3 -12 1.47981 0.82525   3
   8  -3  12 1.13531 0.82666   6
   7   2 -12 0.88901 0.83050   4
  -7  -2  12 2.00932 1.04412   1
   6   2 -12 3.44718 0.93863   4
  -6  -2  12 3.42234 1.00585   1
   5   2 -12 0.83362 0.65490   4
   4   2 -12 33.0223 1.90896   1
   3   2 -12 62.3568 2.62536   1
   3   2 -12 61.0892 2.56370   5
  -3  -2  12 61.8723 2.67366   2
  -3  -2  12 59.2738 2.60465   4
   2   2 -12 22.3866 1.42523   1
   2   2 -12 22.6962 1.47582   5
  -2  -2  12 21.3231 1.39478   4
  -2  -2  12 23.0830 1.59353   2
   1   2 -12 22.2451 1.51092   5
   1   2 -12 25.6367 1.40930   1
  -1  -2  12 23.6667 1.64970   2
  -1  -2  12 22.5557 1.35351   4
   0   2 -12 -0.1047 0.33561   3
   0   2 -12 0.11925 0.45885   5
   0   2 -12 0.20021 0.37139   1
   0  -2  12 0.18188 0.39507   6
   0  -2  12 -0.4253 0.36555   4
   0  -2  12 -0.1754 0.56042   2
  -1   2 -12 3.70285 0.72989   5
   1  -2  12 5.49733 0.94520   2
   1  -2  12 4.39458 0.64930   6
  -2   2 -12 7.19497 0.82343   3
  -2   2 -12 5.19392 0.89852   5
   2  -2  12 6.35211 1.04142   2
   2  -2  12 5.59439 0.75097   6
  -3   2 -12 45.1769 2.23332   5
  -3   2 -12 42.7270 1.97201   3
   3  -2  12 47.0393 2.09863   6
   3  -2  12 48.4205 2.43869   2
  -4   2 -12 5.30510 0.95042   5
  -4   2 -12 4.97363 0.78968   3
   4  -2  12 4.66739 0.80450   6
   4  -2  12 4.32902 0.95646   2
  -5   2 -12 48.0524 2.22293   3
  -5   2 -12 50.1641 2.42702   5
   5  -2  12 46.9288 2.33063   6
   5  -2  12 46.9032 2.47651   2
  -6   2 -12 19.0181 1.58219   5
  -6   2 -12 14.5918 1.34283   3
   6  -2  12 13.8373 1.49304   2
   6  -2  12 15.5865 1.51238   6
  -7   2 -12 13.4343 1.39491   5
  -7   2 -12 12.2719 1.33187   3
   7  -2  12 13.3534 1.46416   2
   7  -2  12 10.9243 1.36280   6
  -8   2 -12 -0.1656 0.68423   3
   8  -2  12 -0.3836 0.70370   6
   7   1 -12 2.79095 0.94302   4
  -7  -1  12 1.84237 0.96120   1
   6   1 -12 110.098 4.17853   4
  -6  -1  12 97.1911 4.15948   1
   5   1 -12 124.091 4.45371   4
   5   1 -12 117.191 4.62260   3
  -5  -1  12 121.225 4.54811   1
   4   1 -12 1.60026 0.65266   4
   4   1 -12 0.85389 0.57275   3
  -4  -1  12 2.47300 0.76664   1
  -4  -1  12 1.50193 0.65871   6
   3   1 -12 59.9522 2.47560   5
   3   1 -12 56.0269 2.41631   3
  -3  -1  12 58.7836 2.53512   2
  -3  -1  12 60.9005 2.49781   6
   2   1 -12 55.1590 2.27096   1
   2   1 -12 57.6262 2.30196   3
   2   1 -12 52.2399 2.34291   5
  -2  -1  12 55.5256 2.29321   6
  -2  -1  12 55.9750 2.28022   4
  -2  -1  12 49.6227 2.38794   2
   1   1 -12 5.36658 0.80981   5
   1   1 -12 6.31216 0.76214   1
   1   1 -12 8.26288 0.86813   3
  -1  -1  12 5.39575 0.85298   2
  -1  -1  12 6.93939 0.78589   4
  -1  -1  12 6.43389 0.79053   6
   0   1 -12 95.5449 3.34515   3
   0   1 -12 95.0038 3.53207   5
   0  -1  12 93.3566 3.59286   2
   0  -1  12 96.5199 3.34708   6
  -1   1 -12 15.9902 1.33827   5
   1  -1  12 17.1881 1.21786   6
   1  -1  12 17.2418 1.44968   2
  -2   1 -12 0.37742 0.41219   3
  -2   1 -12 -0.0448 0.44389   5
   2  -1  12 0.18352 0.57388   2
   2  -1  12 -0.6079 0.34655   6
  -3   1 -12 22.9323 1.40883   3
  -3   1 -12 20.9977 1.46787   5
   3  -1  12 21.7651 1.65191   2
   3  -1  12 24.4968 1.47581   6
  -4   1 -12 0.46487 0.58090   5
  -4   1 -12 0.29009 0.50583   3
   4  -1  12 -0.0156 0.56781   2
   4  -1  12 -0.4027 0.48708   6
  -5   1 -12 225.315 7.01723   5
  -5   1 -12 212.607 6.79348   3
   5  -1  12 215.337 6.95437   6
   5  -1  12 225.254 7.18885   2
  -6   1 -12 26.7455 1.71043   3
  -6   1 -12 27.9683 1.76864   5
   6  -1  12 27.7146 1.87251   6
   6  -1  12 26.1064 1.87633   2
  -7   1 -12 8.77587 1.15627   3
  -7   1 -12 8.78073 1.14955   5
   7  -1  12 8.40475 1.21326   2
   7  -1  12 7.86523 1.21208   6
  -8   1 -12 8.04591 1.22917   3
   8  -1  12 9.46398 1.38671   6
  -9   1 -12 35.7230 2.38766   3
   9  -1  12 38.5280 2.79928   6
   7   0 -12 0.96939 0.73017   3
   7   0 -12 1.98888 0.91185   4
  -7   0  12 0.59374 0.94134   6
  -7   0  12 0.38790 0.81594   1
   6   0 -12 87.2428 3.65862   4
   6   0 -12 85.4536 3.59124   3
  -6   0  12 84.7785 3.64652   6
  -6   0  12 84.0155 3.69348   1
   5   0 -12 0.23262 0.56494   3
   5   0 -12 1.33776 0.71801   4
  -5   0  12 0.03732 0.67466   6
  -5   0  12 0.52787 0.64858   1
   4   0 -12 169.939 5.59814   3
   4   0 -12 176.082 5.57027   4
  -4   0  12 159.843 5.54740   1
  -4   0  12 169.774 5.65468   6
   3   0 -12 242.288 7.59853   3
   3   0 -12 250.560 7.49569   5
   3   0 -12 255.197 7.54163   4
  -3   0  12 247.253 7.55293   2
  -3   0  12 257.700 7.70818   6
  -3   0  12 246.158 7.57363   1
   2   0 -12 176.880 5.64018   3
   2   0 -12 178.694 5.64485   5
  -2   0  12 179.834 5.53793   1
  -2   0  12 176.490 5.69908   2
  -2   0  12 178.861 5.68993   6
   1   0 -12 149.182 4.96604   5
   1   0 -12 151.604 4.90801   3
  -1   0  12 155.702 5.07215   2
  -1   0  12 150.010 4.93581   6
   0   0 -12 0.07582 0.49923   5
   0   0 -12 0.68234 0.44419   3
   0   0  12 0.61213 0.47255   6
   0   0  12 -0.1473 0.52278   2
  -1   0 -12 74.4988 2.86067   3
  -1   0 -12 74.5417 2.98089   5
   1   0  12 76.3691 3.09435   2
   1   0  12 77.5438 2.90839   6
  -2   0 -12 0.40685 0.47718   3
  -2   0 -12 0.33273 0.53120   5
   2   0  12 0.91221 0.61450   2
   2   0  12 0.36706 0.50782   6
  -3   0 -12 159.936 5.23471   3
  -3   0 -12 162.015 5.40162   5
   3   0  12 164.573 5.54483   2
   3   0  12 161.368 5.29809   6
  -4   0 -12 121.569 4.20863   3
  -4   0 -12 122.605 4.37869   5
   4   0  12 120.648 4.48932   2
   4   0  12 124.374 4.34281   6
  -5   0 -12 195.195 6.13542   3
  -5   0 -12 188.533 6.24093   5
   5   0  12 189.617 6.26509   6
   5   0  12 191.313 6.38090   2
  -6   0 -12 2.61505 0.76049   5
  -6   0 -12 2.30758 0.74039   3
   6   0  12 5.17497 1.02589   6
   6   0  12 2.98175 0.85060   2
  -7   0 -12 -0.1602 0.63059   3
  -7   0 -12 -0.0953 0.62104   5
   7   0  12 0.29651 0.68124   6
   7   0  12 1.05754 0.75878   2
  -8   0 -12 172.317 5.83097   5
  -8   0 -12 172.385 5.94757   3
   8   0  12 171.823 6.15210   6
   8   0  12 165.271 5.93115   2
  -9   0 -12 0.49729 0.79713   3
   9   0  12 0.35481 0.85484   6
   7  -1 -12 76.4356 3.57269   4
   7  -1 -12 73.8299 3.56678   3
  -7   1  12 78.2484 3.67132   1
  -7   1  12 79.1717 3.69219   6
   6  -1 -12 52.7751 2.71545   3
   6  -1 -12 48.0466 2.63950   4
  -6   1  12 52.0777 2.80278   6
  -6   1  12 48.6404 2.69390   1
   5  -1 -12 77.0453 3.22549   4
   5  -1 -12 76.9638 3.29216   3
  -5   1  12 80.5109 3.42189   6
  -5   1  12 72.7335 3.22168   1
   4  -1 -12 69.4086 2.85136   4
   4  -1 -12 65.7127 2.90337   3
  -4   1  12 64.5827 2.82384   1
  -4   1  12 65.1032 2.99430   6
   3  -1 -12 291.816 8.98280   3
   3  -1 -12 305.646 8.79640   4
  -3   1  12 301.223 9.08681   6
  -3   1  12 294.282 8.81474   1
   2  -1 -12 17.8729 1.35228   3
   2  -1 -12 18.6734 1.28613   5
  -2   1  12 18.7432 1.42943   6
  -2   1  12 18.0881 1.35356   2
   1  -1 -12 267.717 7.91881   5
   1  -1 -12 259.763 7.92935   3
  -1   1  12 264.246 8.00262   2
  -1   1  12 261.596 7.97706   6
   0  -1 -12 213.856 6.58049   3
   0  -1 -12 214.525 6.60696   5
   0   1  12 212.076 6.69666   2
   0   1  12 207.380 6.57376   6
  -1  -1 -12 10.6962 1.10699   5
   1   1  12 11.8474 1.13548   6
   1   1  12 10.4733 1.11631   2
  -2  -1 -12 151.549 5.10109   5
  -2  -1 -12 154.041 5.03142   3
   2   1  12 157.937 5.08397   6
   2   1  12 149.048 5.18816   2
  -3  -1 -12 8.62847 1.02095   5
  -3  -1 -12 11.0580 1.12537   3
   3   1  12 10.5190 1.18925   2
   3   1  12 11.2400 1.15201   6
  -4  -1 -12 328.130 9.95972   5
  -4  -1 -12 330.205 9.83818   3
   4   1  12 334.647 9.96767   6
   4   1  12 340.584 10.1510   2
  -5  -1 -12 4.59084 0.86334   3
  -5  -1 -12 2.12869 0.73563   5
   5   1  12 3.98820 0.87282   6
   5   1  12 3.37804 0.82454   2
  -6  -1 -12 31.3346 1.88989   5
  -6  -1 -12 25.9968 1.77393   3
   6   1  12 28.1307 1.93585   6
   6   1  12 25.6106 1.85848   2
  -7  -1 -12 121.521 4.52903   3
  -7  -1 -12 122.550 4.53025   5
   7   1  12 125.611 4.77451   6
   7   1  12 122.610 4.68480   2
  -8  -1 -12 230.814 7.37773   5
  -8  -1 -12 225.551 7.49479   3
   8   1  12 226.838 7.50775   2
   8   1  12 228.619 7.74186   6
  -9  -1 -12 2.66633 0.98806   3
   9   1  12 1.84434 1.01028   6
   7  -2 -12 1.54057 0.97631   4
  -7   2  12 1.13472 0.94975   1
   6  -2 -12 13.3065 1.59113   3
   6  -2 -12 15.7492 1.60977   4
  -6   2  12 13.3671 1.53718   1
  -6   2  12 15.0428 1.70547   6
   5  -2 -12 5.68927 1.09006   3
   5  -2 -12 5.59967 1.02360   4
  -5   2  12 6.87100 1.23215   6
  -5   2  12 8.76735 1.22008   1
   4  -2 -12 587.221 17.0182   3
   4  -2 -12 618.204 16.9533   4
  -4   2  12 570.277 16.9001   1
  -4   2  12 600.862 17.1239   6
   3  -2 -12 1.67315 0.68178   3
  -3   2  12 1.42899 0.76409   6
   2  -2 -12 182.388 5.56362   5
   2  -2 -12 170.595 5.71976   3
  -2   2  12 173.028 5.80447   6
  -2   2  12 176.451 5.61652   2
   1  -2 -12 373.466 10.8051   5
   1  -2 -12 371.142 10.8901   3
  -1   2  12 370.502 10.9581   6
  -1   2  12 374.884 10.8687   2
   0  -2 -12 168.757 5.47716   5
   0  -2 -12 170.136 5.52455   3
   0   2  12 169.214 5.56384   6
   0   2  12 170.237 5.56906   2
  -1  -2 -12 529.637 14.8865   5
  -1  -2 -12 516.473 14.8264   3
   1   2  12 524.937 14.8992   6
   1   2  12 526.411 14.9877   2
  -2  -2 -12 0.43722 0.50754   3
  -2  -2 -12 -0.0928 0.53302   5
   2   2  12 0.57798 0.60887   2
   2   2  12 0.15019 0.53899   6
  -3  -2 -12 13.9380 1.26050   3
  -3  -2 -12 14.0836 1.32969   5
   3   2  12 14.6868 1.31883   6
   3   2  12 13.5959 1.36076   2
  -4  -2 -12 22.5849 1.58359   3
  -4  -2 -12 25.0570 1.68199   5
   4   2  12 23.6316 1.74948   2
   4   2  12 24.3412 1.68913   6
  -5  -2 -12 321.030 9.54422   3
  -5  -2 -12 318.867 9.62369   5
   5   2  12 317.747 9.66929   6
   5   2  12 310.232 9.72397   2
  -6  -2 -12 9.21147 1.19422   5
  -6  -2 -12 12.4819 1.33424   3
   6   2  12 11.8774 1.38590   2
   6   2  12 10.5931 1.29366   6
  -7  -2 -12 461.147 13.2481   5
  -7  -2 -12 456.487 13.2396   3
   7   2  12 429.141 13.3472   6
   7   2  12 449.729 13.3425   2
  -8  -2 -12 166.613 5.83974   3
  -8  -2 -12 160.977 5.68346   5
   8   2  12 166.600 6.06728   6
   8   2  12 163.024 5.88186   2
  -9  -2 -12 140.925 5.37507   3
   9   2  12 144.320 5.60177   6
   6  -3 -12 62.6314 3.05138   4
   6  -3 -12 63.3032 3.20372   3
  -6   3  12 66.4294 3.36818   6
  -6   3  12 58.4411 3.04042   1
   5  -3 -12 144.069 5.35710   3
  -5   3  12 147.067 5.45940   6
   4  -3 -12 3.97328 0.98831   3
  -4   3  12 3.92779 1.05967   6
   3  -3 -12 1.18673 0.70718   3
  -3   3  12 0.76277 0.72780   6
   2  -3 -12 5.42876 0.87319   5
   2  -3 -12 4.31982 0.86824   3
  -2   3  12 4.95601 0.96007   6
  -2   3  12 3.57903 1.08409   2
   1  -3 -12 427.614 12.0432   5
   1  -3 -12 417.043 12.1832   3
  -1   3  12 411.967 12.0678   2
  -1   3  12 418.122 12.2833   6
   0  -3 -12 -0.5251 0.46968   5
   0  -3 -12 -0.3399 0.45829   3
   0   3  12 -0.2341 0.52641   2
   0   3  12 -0.8242 0.52185   6
  -1  -3 -12 357.268 10.5663   3
  -1  -3 -12 359.921 10.5572   5
   1   3  12 364.411 10.6533   6
   1   3  12 353.762 10.6273   2
  -2  -3 -12 124.453 4.29081   5
  -2  -3 -12 119.224 4.23645   3
   2   3  12 113.962 4.26269   6
   2   3  12 118.363 4.31025   2
  -3  -3 -12 23.3044 1.64828   5
  -3  -3 -12 25.0535 1.65104   3
   3   3  12 23.4512 1.59339   6
   3   3  12 24.2738 1.73416   2
  -4  -3 -12 550.174 15.4450   5
  -4  -3 -12 529.888 15.3278   3
   4   3  12 524.610 15.4349   6
   4   3  12 545.778 15.5579   2
  -5  -3 -12 6.36724 1.01719   3
  -5  -3 -12 6.41617 1.05608   5
   5   3  12 4.85723 0.99684   2
   5   3  12 5.49892 1.01110   6
  -6  -3 -12 256.640 7.87971   5
  -6  -3 -12 236.838 7.76017   3
   6   3  12 235.374 7.89422   2
   6   3  12 251.684 7.96787   6
  -7  -3 -12 1.90851 0.83435   3
  -7  -3 -12 1.22078 0.81283   5
   7   3  12 0.58393 0.79520   2
   7   3  12 2.37215 0.91296   6
  -8  -3 -12 82.5329 3.51878   5
  -8  -3 -12 82.0728 3.60424   3
   8   3  12 78.9424 3.75051   6
   8   3  12 81.4677 3.66539   2
  -9  -3 -12 91.6613 4.05748   3
  -9  -3 -12 91.6666 3.82451   5
   9   3  12 93.8659 4.00148   2
   9   3  12 86.3907 4.33476   6
   5  -4 -12 49.6655 2.85060   3
  -5   4  12 54.1189 3.01486   6
   4  -4 -12 150.160 5.51308   3
  -4   4  12 153.593 5.64096   6
   3  -4 -12 9.69694 1.27303   3
  -3   4  12 8.94718 1.30419   6
   2  -4 -12 379.322 11.3103   3
  -2   4  12 379.882 11.4288   6
   1  -4 -12 -0.7427 0.44404   5
   1  -4 -12 0.04491 0.53026   3
  -1   4  12 -0.6001 0.64248   6
  -1   4  12 0.16940 0.50802   2
   0  -4 -12 328.682 9.57225   5
   0  -4 -12 313.662 9.62936   3
   0   4  12 317.277 9.58858   2
   0   4  12 324.411 9.78850   6
  -1  -4 -12 454.353 13.1629   5
  -1  -4 -12 467.767 13.2569   3
   1   4  12 446.915 13.2254   2
   1   4  12 458.818 13.3146   6
  -2  -4 -12 19.5824 1.43494   5
  -2  -4 -12 21.3024 1.55023   3
   2   4  12 18.7162 1.50045   6
   2   4  12 19.1755 1.53873   2
  -3  -4 -12 204.330 6.47364   3
  -3  -4 -12 197.358 6.48152   5
   3   4  12 196.688 6.52015   6
   3   4  12 198.044 6.57128   2
  -4  -4 -12 173.917 5.89320   5
  -4  -4 -12 173.075 5.83567   3
   4   4  12 180.920 6.07194   2
   4   4  12 175.158 5.94478   6
  -5  -4 -12 -0.1094 0.59459   3
  -5  -4 -12 1.14112 0.63375   5
   5   4  12 0.20395 0.73151   2
   5   4  12 0.79650 0.68573   6
  -6  -4 -12 45.5321 2.40728   3
  -6  -4 -12 43.6723 2.45296   5
   6   4  12 47.4178 2.63512   2
   6   4  12 44.5457 2.49279   6
  -7  -4 -12 473.400 13.9697   3
  -7  -4 -12 461.575 13.9156   5
   7   4  12 494.956 14.2574   6
   7   4  12 462.753 14.0662   2
  -8  -4 -12 26.9565 1.99694   5
   8   4  12 31.9763 2.26171   2
   8   4  12 31.3341 2.21334   6
  -9  -4 -12 125.131 4.85042   5
   9   4  12 129.798 5.04426   2
   5  -5 -12 90.6377 4.05225   3
  -5   5  12 92.1403 4.24169   6
   4  -5 -12 7.54986 1.24688   3
  -4   5  12 9.93198 1.46769   6
   3  -5 -12 102.263 4.12563   3
  -3   5  12 104.391 4.30517   6
   2  -5 -12 0.37636 0.63985   3
  -2   5  12 2.12564 0.86431   6
   1  -5 -12 26.0102 1.62808   5
   1  -5 -12 23.8201 1.75870   3
  -1   5  12 25.5720 1.92407   6
  -1   5  12 26.4828 1.69396   2
   0  -5 -12 38.5475 2.04259   5
   0  -5 -12 38.6394 2.15392   3
   0   5  12 41.8237 2.18459   2
   0   5  12 39.5382 2.28761   6
  -1  -5 -12 145.987 5.11127   5
  -1  -5 -12 157.148 5.26626   3
   1   5  12 154.053 5.34504   6
   1   5  12 150.792 5.27182   2
  -2  -5 -12 -0.1268 0.51120   3
  -2  -5 -12 0.28694 0.60428   5
   2   5  12 0.01547 0.61795   6
   2   5  12 0.84444 0.69228   2
  -3  -5 -12 313.199 9.70284   5
  -3  -5 -12 315.963 9.67472   3
   3   5  12 324.530 9.83793   6
   3   5  12 326.094 9.90098   2
  -4  -5 -12 213.450 6.98969   5
  -4  -5 -12 215.858 6.94969   3
   4   5  12 211.020 7.11302   2
   4   5  12 216.900 7.08646   6
  -5  -5 -12 108.894 4.22266   5
  -5  -5 -12 106.673 4.14569   3
   5   5  12 115.357 4.38373   6
   5   5  12 103.909 4.30630   2
  -6  -5 -12 424.861 12.6226   3
  -6  -5 -12 418.097 12.6892   5
   6   5  12 433.317 12.8635   6
   6   5  12 426.148 12.8494   2
  -7  -5 -12 11.6579 1.38206   3
  -7  -5 -12 11.8176 1.41803   5
   7   5  12 15.0708 1.68506   2
   7   5  12 13.6976 1.55819   6
  -8  -5 -12 59.5365 2.91809   5
  -8  -5 -12 52.6006 2.89927   3
   8   5  12 53.0706 2.93991   2
   8   5  12 53.2053 3.02267   6
  -9  -5 -12 2.35983 0.95169   5
   9   5  12 0.77195 0.86687   2
   4  -6 -12 1.71640 0.84134   3
  -4   6  12 1.83345 1.01177   6
   3  -6 -12 34.1486 2.24858   3
  -3   6  12 37.2339 2.46976   6
   2  -6 -12 80.7039 3.48569   3
  -2   6  12 84.1083 3.72097   6
   1  -6 -12 6.75021 1.09249   3
  -1   6  12 7.60200 1.21418   6
   0  -6 -12 144.848 4.97528   5
   0  -6 -12 147.900 5.14223   3
   0   6  12 144.970 5.08467   2
   0   6  12 142.661 5.28249   6
  -1  -6 -12 1.15187 0.66061   3
  -1  -6 -12 2.11748 0.69927   5
   1   6  12 1.11942 0.70084   2
   1   6  12 1.28036 0.74219   6
  -2  -6 -12 82.1546 3.39169   3
  -2  -6 -12 77.8230 3.32882   5
   2   6  12 82.5136 3.47886   2
   2   6  12 82.5988 3.52046   6
  -3  -6 -12 21.6176 1.67603   3
  -3  -6 -12 20.4047 1.65295   5
   3   6  12 22.7913 1.72471   6
   3   6  12 20.7166 1.76038   2
  -4  -6 -12 35.4783 2.15911   5
  -4  -6 -12 34.7706 2.09762   3
   4   6  12 33.9465 2.17461   6
   4   6  12 32.2689 2.21552   2
  -5  -6 -12 11.5149 1.36901   3
  -5  -6 -12 8.63787 1.19905   5
   5   6  12 8.69555 1.28237   6
   5   6  12 8.54476 1.30047   2
  -6  -6 -12 93.2779 3.81578   3
  -6  -6 -12 90.9869 3.86117   5
   6   6  12 86.0825 3.91372   2
   6   6  12 92.3275 3.94534   6
  -7  -6 -12 12.5858 1.50318   3
  -7  -6 -12 8.98028 1.30631   5
   7   6  12 10.9776 1.45383   2
   7   6  12 11.3943 1.53714   6
  -8  -6 -12 2.18787 0.91820   3
  -8  -6 -12 3.42443 0.99954   5
   8   6  12 1.36501 0.90568   2
   8   6  12 2.41603 1.07676   6
   3  -7 -12 26.1133 2.07076   3
  -3   7  12 33.7596 2.43795   6
   2  -7 -12 0.36368 0.68486   3
  -2   7  12 -0.5378 0.77716   6
   1  -7 -12 2.05879 0.78818   3
  -1   7  12 3.02550 0.99968   6
   0  -7 -12 2.19313 0.73452   5
   0  -7 -12 0.58001 0.67719   3
   0   7  12 0.63561 0.74097   2
   0   7  12 2.05890 0.86845   6
  -1  -7 -12 0.14703 0.62673   3
  -1  -7 -12 -0.6207 0.55960   5
   1   7  12 -0.1415 0.64140   2
   1   7  12 -0.1148 0.66827   6
  -2  -7 -12 0.47767 0.65802   3
  -2  -7 -12 -0.4728 0.60841   5
   2   7  12 -0.0761 0.72403   2
   2   7  12 -0.5629 0.60817   6
  -3  -7 -12 61.5550 2.89763   5
  -3  -7 -12 55.9330 2.79368   3
   3   7  12 57.6458 2.93680   2
   3   7  12 59.0531 2.93515   6
  -4  -7 -12 31.6137 2.14773   5
  -4  -7 -12 30.0907 2.09761   3
   4   7  12 31.2776 2.23054   2
   4   7  12 30.7419 2.04788   6
  -5  -7 -12 102.814 4.16775   3
  -5  -7 -12 108.745 4.36047   5
   5   7  12 109.843 4.47811   2
   5   7  12 105.203 4.35180   6
  -6  -7 -12 49.4093 2.71100   5
  -6  -7 -12 44.2712 2.55780   3
   6   7  12 48.0907 2.75492   6
   6   7  12 47.9295 2.80194   2
  -7  -7 -12 8.83689 1.31115   3
  -7  -7 -12 8.94809 1.36773   5
   7   7  12 10.4365 1.49541   6
   7   7  12 9.15912 1.50674   2
   2  -8 -12 0.01785 0.80124   3
  -2   8  12 0.93716 0.91896   6
   1  -8 -12 15.1487 1.64201   3
  -1   8  12 14.0724 1.66506   6
   0  -8 -12 0.24419 0.72234   3
   0   8  12 0.15910 0.80811   6
  -1  -8 -12 -0.6331 0.58318   3
  -1  -8 -12 -0.8365 0.61255   5
   1   8  12 -0.8727 0.69562   2
   1   8  12 0.67786 0.73776   6
  -2  -8 -12 12.7129 1.42431   5
  -2  -8 -12 18.3839 1.62824   3
   2   8  12 15.7104 1.70516   6
   2   8  12 19.6291 1.83081   2
  -3  -8 -12 13.2544 1.51910   3
  -3  -8 -12 12.4712 1.47375   5
   3   8  12 12.2296 1.49122   6
   3   8  12 13.1250 1.58835   2
  -4  -8 -12 -0.1571 0.68639   3
  -4  -8 -12 -0.2240 0.76449   5
   4   8  12 0.21750 0.75582   6
   4   8  12 -0.2691 0.84133   2
  -5  -8 -12 5.50819 1.08966   3
  -5  -8 -12 6.49495 1.16403   5
   5   8  12 6.64606 1.21192   6
   5   8  12 5.51235 1.21340   2
  -6  -8 -12 7.93115 1.26114   3
  -6  -8 -12 8.41318 1.34637   5
   6   8  12 8.80929 1.52820   2
   6   8  12 6.21684 1.21745   6
  -7  -8 -12 8.50626 1.32257   3
   7   8  12 9.11051 1.55825   6
   1  -9 -12 1.37784 0.87458   3
  -1   9  12 0.11311 0.92809   6
   0  -9 -12 18.5106 1.79387   3
   0   9  12 19.7696 1.93027   6
  -1  -9 -12 0.95624 0.77101   3
  -1  -9 -12 0.73725 0.74796   5
   1   9  12 0.91703 0.84178   2
   1   9  12 0.08979 0.71262   6
  -2  -9 -12 1.89953 0.88532   5
  -2  -9 -12 1.36854 0.83363   3
   2   9  12 1.69821 0.87331   2
   2   9  12 1.29587 0.80904   6
  -3  -9 -12 -0.5284 0.78670   5
  -3  -9 -12 0.90755 0.76401   3
   3   9  12 -0.9388 0.77130   2
   3   9  12 0.22555 0.75636   6
  -4  -9 -12 3.35072 1.07939   5
  -4  -9 -12 4.25239 0.97853   3
   4   9  12 3.40481 1.11524   2
   4   9  12 3.90684 1.05355   6
  -5  -9 -12 0.08801 0.74458   3
  -5  -9 -12 -0.4702 0.89733   5
   5   9  12 -0.5990 0.89985   2
   5   9  12 -0.4398 0.70673   6
  -6  -9 -12 23.3244 2.13397   3
   6   9  12 26.9836 2.35972   6
  -1 -10 -12 4.15281 1.56708   3
  -2 -10 -12 39.8045 2.50022   3
  -2 -10 -12 40.2259 2.53600   5
   2  10  12 45.0976 2.69724   2
   2  10  12 40.4574 2.62283   6
  -3 -10 -12 9.79948 1.37009   3
   3  10  12 9.57002 1.40632   6
  -4 -10 -12 1.28793 0.88598   3
   4  10  12 0.44930 0.91071   6
   1   8 -13 2.77522 0.92793   1
  -1  -8  13 5.07289 1.14154   4
   0   8 -13 61.9490 3.06935   1
   0  -8  13 66.5588 3.29882   4
  -1   8 -13 74.0437 3.41572   1
   1  -8  13 79.4601 3.62554   4
  -2   8 -13 22.0627 1.88983   1
   2  -8  13 23.2315 2.00525   4
  -4  -7  13 2.15024 1.49530   2
   3   7 -13 170.948 6.10539   5
   3   7 -13 172.445 6.23252   1
  -3  -7  13 173.422 6.26962   4
  -3  -7  13 187.040 6.49688   2
   2   7 -13 21.4354 1.73000   1
   2   7 -13 16.2215 1.66935   5
  -2  -7  13 18.1662 1.91314   2
  -2  -7  13 16.3354 1.71935   4
   1   7 -13 0.28874 0.68191   1
   1   7 -13 0.64156 0.79196   5
  -1  -7  13 0.43154 0.87302   2
  -1  -7  13 0.87703 0.77588   4
   0   7 -13 19.2618 1.82692   5
   0   7 -13 19.8432 1.64230   1
   0  -7  13 14.8574 1.70824   2
   0  -7  13 19.7559 1.75755   4
  -1   7 -13 4.88991 0.96611   1
  -1   7 -13 4.17751 1.02121   5
   1  -7  13 4.71765 1.08585   4
   1  -7  13 4.67359 1.14111   2
  -2   7 -13 0.06579 0.71220   1
  -2   7 -13 0.91061 0.79992   5
   2  -7  13 0.06508 0.74988   4
   2  -7  13 0.73055 0.90375   2
  -3   7 -13 5.89009 1.17914   5
   3  -7  13 2.60290 1.05778   2
  -4   7 -13 6.68647 1.35293   5
   4  -7  13 4.63201 1.34422   2
   4   6 -13 2.15752 0.84090   5
   4   6 -13 2.21344 0.88539   1
  -4  -6  13 2.03778 0.94508   4
  -4  -6  13 3.26566 1.03492   2
   3   6 -13 0.11992 0.69180   1
   3   6 -13 0.01147 0.66222   5
  -3  -6  13 0.08950 0.78519   2
  -3  -6  13 -0.4039 0.73426   4
   2   6 -13 1.59058 0.73988   1
   2   6 -13 0.32739 0.68372   5
  -2  -6  13 0.70084 0.85327   2
  -2  -6  13 0.40905 0.70357   4
   1   6 -13 2.40032 0.77205   1
   1   6 -13 0.56005 0.74733   5
  -1  -6  13 -0.4428 0.76699   2
  -1  -6  13 0.54057 0.71305   4
   0   6 -13 7.93882 1.23844   5
   0   6 -13 8.69555 1.15727   1
   0  -6  13 9.66514 1.26360   4
   0  -6  13 8.28047 1.34992   2
  -1   6 -13 32.2643 2.12748   5
  -1   6 -13 31.1615 1.92580   1
   1  -6  13 32.1290 2.29042   2
   1  -6  13 31.1669 2.03409   4
  -2   6 -13 -0.2519 0.58611   5
   2  -6  13 1.38621 0.89911   2
  -3   6 -13 16.6315 1.64881   5
   3  -6  13 14.1285 1.65375   2
  -4   6 -13 5.43710 1.05689   5
   4  -6  13 3.18575 1.09605   2
  -5   6 -13 0.49612 0.71659   5
   5  -6  13 -0.0038 0.82085   2
   5   5 -13 13.6176 1.60760   1
  -5  -5  13 18.0383 1.77873   4
   4   5 -13 38.3921 2.19170   5
   4   5 -13 41.7716 2.45254   1
  -4  -5  13 41.7501 2.42398   4
  -4  -5  13 37.2516 2.42511   2
   3   5 -13 -0.1371 0.63429   5
   3   5 -13 -0.0620 0.62659   1
  -3  -5  13 0.45295 0.74079   4
  -3  -5  13 -0.3390 0.73648   2
   2   5 -13 0.16581 0.58176   1
   2   5 -13 -0.2387 0.63505   5
  -2  -5  13 -0.2563 0.59828   4
  -2  -5  13 -1.4362 0.69576   2
   1   5 -13 154.896 5.44473   5
   1   5 -13 158.456 5.33741   1
  -1  -5  13 154.519 5.63203   2
  -1  -5  13 153.336 5.33918   4
   0   5 -13 3.96822 0.94598   5
   0   5 -13 3.56763 0.80598   1
   0  -5  13 2.37858 0.91543   2
   0  -5  13 3.11062 0.80667   4
  -1   5 -13 3.04683 0.96177   1
  -1   5 -13 0.85389 0.65307   5
   1  -5  13 1.56904 0.79503   4
   1  -5  13 1.50475 0.84853   2
  -2   5 -13 10.8063 1.28079   5
   2  -5  13 9.36770 1.39723   2
  -3   5 -13 21.6496 1.74010   5
   3  -5  13 21.1450 1.92999   2
  -4   5 -13 0.56659 0.70845   5
   4  -5  13 1.82174 0.89286   2
  -5   5 -13 2.40839 0.83414   5
   5  -5  13 1.83016 0.88878   2
  -6   5 -13 10.6082 1.36116   5
   6  -5  13 9.56354 1.43745   2
   5   4 -13 24.8477 1.93338   1
  -5  -4  13 25.6540 1.96699   4
   4   4 -13 77.5530 3.22883   5
   4   4 -13 80.2454 3.46266   1
  -4  -4  13 74.3926 3.36275   4
  -4  -4  13 80.2439 3.40301   2
   3   4 -13 19.9384 1.58643   5
   3   4 -13 19.0509 1.59658   1
  -3  -4  13 19.5146 1.56987   4
  -3  -4  13 18.9253 1.75285   2
   2   4 -13 78.5258 3.22397   1
   2   4 -13 79.7223 3.29576   5
  -2  -4  13 77.4032 3.41060   2
  -2  -4  13 77.0380 3.20095   4
   1   4 -13 9.04794 1.15654   5
   1   4 -13 9.75015 1.14046   1
  -1  -4  13 8.66431 1.24076   2
  -1  -4  13 8.77274 1.07741   4
   0   4 -13 3.00018 0.78436   5
   0   4 -13 3.52766 0.75991   1
   0  -4  13 2.75121 0.74315   4
   0  -4  13 2.14105 0.84353   2
  -1   4 -13 -0.8089 0.50653   5
   1  -4  13 -0.0417 0.69927   2
  -2   4 -13 7.89493 1.15455   5
   2  -4  13 7.33975 1.24677   2
  -3   4 -13 35.8891 2.16733   5
   3  -4  13 37.6655 2.36211   2
  -4   4 -13 92.5893 3.77670   5
   4  -4  13 92.9913 3.94339   2
  -5   4 -13 1.69580 0.81215   5
   5  -4  13 0.87385 0.81614   2
  -6   4 -13 13.6233 1.42764   5
   6  -4  13 12.3699 1.49581   2
  -6  -3  13 4.33377 1.16203   1
  -6  -3  13 5.14866 1.16760   4
  -5  -3  13 50.6968 2.73008   4
   4   3 -13 82.1673 3.43905   1
  -4  -3  13 81.6869 3.41973   4
   3   3 -13 3.85015 0.81768   5
   3   3 -13 4.73462 0.92194   1
  -3  -3  13 4.50076 0.97152   2
  -3  -3  13 4.40598 0.89486   4
   2   3 -13 32.4021 1.98884   5
   2   3 -13 38.9871 1.99543   1
  -2  -3  13 35.5060 1.97170   4
  -2  -3  13 37.5809 2.22548   2
   1   3 -13 98.9729 3.49037   1
   1   3 -13 93.4108 3.62166   5
  -1  -3  13 92.8691 3.76820   2
  -1  -3  13 87.1238 3.40102   4
   0   3 -13 51.5060 2.51523   5
   0  -3  13 51.6815 2.64891   2
  -1   3 -13 186.291 6.14754   5
   1  -3  13 182.395 6.27435   2
  -2   3 -13 4.52158 0.88544   5
   2  -3  13 5.36803 1.07959   2
  -3   3 -13 2.51730 0.83198   5
   3  -3  13 3.49964 0.89870   2
  -4   3 -13 21.0900 1.70769   5
   4  -3  13 22.6046 1.86994   2
  -5   3 -13 6.10392 1.03914   5
   5  -3  13 7.07416 1.18923   2
  -6   3 -13 170.591 5.87355   5
   6  -3  13 167.805 6.02492   2
  -7   3 -13 7.49320 1.16764   5
   7  -3  13 6.76371 1.21625   2
  -6  -2  13 1.13635 0.86556   1
  -5  -2  13 255.388 8.25477   1
  -4  -2  13 11.5629 1.32617   4
   3   2 -13 152.115 5.20434   1
   3   2 -13 156.098 5.17268   5
  -3  -2  13 146.659 5.14160   4
  -3  -2  13 164.783 5.37847   2
   2   2 -13 567.849 16.3259   5
   2   2 -13 595.194 16.2884   1
  -2  -2  13 563.182 16.1880   4
  -2  -2  13 582.732 16.5018   2
   1   2 -13 23.9644 1.65913   5
  -1  -2  13 30.0697 1.89909   2
   0   2 -13 200.131 6.45289   5
   0  -2  13 197.973 6.57314   2
  -1   2 -13 1.53217 0.70209   5
   1  -2  13 1.54262 0.72880   2
  -2   2 -13 150.636 5.20564   5
  -2   2 -13 145.764 5.09293   3
   2  -2  13 149.081 5.31016   2
   2  -2  13 156.256 5.14920   6
  -3   2 -13 1.21518 0.53115   3
  -3   2 -13 1.74391 0.75329   5
   3  -2  13 2.54635 0.85112   2
   3  -2  13 1.99875 0.62046   6
  -4   2 -13 99.8954 3.68829   3
  -4   2 -13 104.641 4.02088   5
   4  -2  13 99.0634 4.09770   2
   4  -2  13 110.401 3.88037   6
  -5   2 -13 20.2359 1.68564   5
  -5   2 -13 23.8698 1.58775   3
   5  -2  13 18.0886 1.71420   2
   5  -2  13 21.4579 1.58323   6
  -6   2 -13 273.320 8.37302   5
  -6   2 -13 257.440 8.05341   3
   6  -2  13 263.684 8.31425   6
   6  -2  13 252.080 8.40160   2
  -7   2 -13 14.1159 1.44889   3
  -7   2 -13 14.3183 1.53370   5
   7  -2  13 11.4019 1.42171   6
   7  -2  13 12.7175 1.52201   2
  -8   2 -13 1.29381 0.77513   3
   8  -2  13 1.53422 0.86830   6
   6   1 -13 44.2801 2.50998   4
  -6  -1  13 45.2212 2.66404   1
   5   1 -13 -0.2327 0.63216   4
  -5  -1  13 0.38778 0.74183   1
  -4  -1  13 5.07639 0.99363   1
   3   1 -13 175.369 5.55169   5
   3   1 -13 171.648 5.65636   3
  -3  -1  13 167.832 5.53528   4
  -3  -1  13 166.288 5.62956   2
   2   1 -13 228.906 6.93905   3
   2   1 -13 228.178 7.07324   5
  -2  -1  13 224.209 7.16042   2
  -2  -1  13 224.940 6.95993   6
   1   1 -13 83.3572 3.04917   3
   1   1 -13 77.9385 3.18763   5
  -1  -1  13 81.3108 3.32160   2
  -1  -1  13 81.1872 3.03361   6
   0   1 -13 222.104 6.93854   5
   0   1 -13 219.583 6.68244   3
   0  -1  13 217.898 7.03270   2
   0  -1  13 211.802 6.65474   6
  -1   1 -13 232.539 7.05752   3
  -1   1 -13 230.236 7.30871   5
   1  -1  13 234.507 7.45615   2
   1  -1  13 230.180 7.05602   6
  -2   1 -13 24.8537 1.53566   3
  -2   1 -13 25.6631 1.75804   5
   2  -1  13 27.9850 1.59627   6
   2  -1  13 24.0316 1.82734   2
  -3   1 -13 645.810 18.2115   3
  -3   1 -13 650.980 18.4931   5
   3  -1  13 670.120 18.3200   6
   3  -1  13 649.623 18.6311   2
  -4   1 -13 17.7035 1.35813   3
  -4   1 -13 19.6903 1.59506   5
   4  -1  13 17.6209 1.67305   2
   4  -1  13 22.6440 1.60434   6
  -5   1 -13 118.270 4.34942   3
  -5   1 -13 125.031 4.57288   5
   5  -1  13 125.371 4.73061   2
   5  -1  13 129.448 4.56788   6
  -6   1 -13 31.2800 2.00293   5
  -6   1 -13 29.2328 1.87227   3
   6  -1  13 28.1375 2.00344   6
   6  -1  13 33.3343 2.18434   2
  -7   1 -13 0.30372 0.64101   3
  -7   1 -13 -0.9276 0.59202   5
   7  -1  13 -0.5439 0.66399   2
   7  -1  13 0.20552 0.73216   6
  -8   1 -13 44.0579 2.54434   3
   8  -1  13 45.2019 2.70040   6
   8  -1  13 45.0586 3.09190   2
   6   0 -13 8.27538 1.26314   3
   6   0 -13 10.8857 1.36383   4
  -6   0  13 9.92769 1.44658   1
   5   0 -13 114.705 4.35476   4
   5   0 -13 117.162 4.42172   3
  -5   0  13 115.952 4.45652   6
  -5   0  13 122.906 4.50401   1
   4   0 -13 1.46828 0.68099   4
   4   0 -13 1.31343 0.68077   3
  -4   0  13 2.97224 0.85480   6
  -4   0  13 2.56439 0.83303   1
   3   0 -13 799.810 22.4182   3
  -3   0  13 818.031 22.4761   6
   2   0 -13 92.8467 3.49435   3
   2   0 -13 96.9800 3.52873   5
  -2   0  13 94.4308 3.57691   2
  -2   0  13 92.6928 3.54944   6
   1   0 -13 175.080 5.60375   3
   1   0 -13 178.703 5.71675   5
  -1   0  13 165.861 5.69710   2
  -1   0  13 177.221 5.65085   6
   0   0 -13 386.156 11.2258   3
   0   0 -13 398.215 11.3950   5
   0   0  13 377.363 11.4126   2
   0   0  13 389.853 11.2410   6
  -1   0 -13 88.6916 3.42802   5
  -1   0 -13 85.2921 3.26390   3
   1   0  13 87.6421 3.52204   2
   1   0  13 87.5529 3.28874   6
  -2   0 -13 198.220 6.26288   3
  -2   0 -13 202.343 6.49336   5
   2   0  13 197.989 6.58570   2
   2   0  13 198.120 6.29600   6
  -3   0 -13 0.08117 0.64630   5
  -3   0 -13 0.34546 0.55521   3
   3   0  13 0.51724 0.59387   6
   3   0  13 0.21188 0.69899   2
  -4   0 -13 -1.0330 0.50786   5
  -4   0 -13 0.70155 0.55943   3
   4   0  13 0.33925 0.66614   2
   4   0  13 -0.7268 0.49425   6
  -5   0 -13 10.8947 1.30315   5
  -5   0 -13 10.5953 1.19238   3
   5   0  13 7.87783 1.09968   6
   5   0  13 9.34418 1.31232   2
  -6   0 -13 313.166 9.59194   3
  -6   0 -13 322.217 9.73476   5
   6   0  13 320.053 9.81577   6
   6   0  13 309.234 9.84783   2
  -7   0 -13 10.0049 1.29846   5
  -7   0 -13 11.6896 1.35749   3
   7   0  13 12.5308 1.46813   6
   7   0  13 11.5017 1.43915   2
  -8   0 -13 220.913 7.21758   5
  -8   0 -13 217.216 7.25050   3
   8   0  13 219.222 7.50888   6
   8   0  13 216.173 7.35758   2
   6  -1 -13 140.137 5.43306   3
   6  -1 -13 156.592 5.50169   4
  -6   1  13 153.147 5.61717   6
  -6   1  13 147.912 5.43514   1
   5  -1 -13 0.63252 0.66218   3
  -5   1  13 0.16604 0.74941   6
  -5   1  13 0.59761 1.12165   1
   4  -1 -13 272.632 8.40610   3
  -4   1  13 260.949 8.42767   6
   3  -1 -13 2.32110 0.73385   3
  -3   1  13 1.33430 0.76240   6
   2  -1 -13 3.92632 0.82128   3
   2  -1 -13 3.94410 0.75386   5
  -2   1  13 5.98940 0.92830   2
  -2   1  13 3.98025 0.90633   6
   1  -1 -13 34.4023 1.86304   5
   1  -1 -13 36.5551 1.92501   3
  -1   1  13 31.8340 1.88348   6
  -1   1  13 35.0279 1.95506   2
   0  -1 -13 398.774 11.3661   3
   0  -1 -13 393.757 11.4123   5
   0   1  13 382.546 11.4559   2
   0   1  13 382.606 11.3314   6
  -1  -1 -13 2.43974 0.67084   3
  -1  -1 -13 1.43447 0.60419   5
   1   1  13 1.28510 0.71271   2
   1   1  13 0.82345 0.59910   6
  -2  -1 -13 787.607 21.6308   5
  -2  -1 -13 787.615 21.5010   3
   2   1  13 775.075 21.5353   6
   2   1  13 750.836 21.7164   2
  -3  -1 -13 308.035 9.63882   5
  -3  -1 -13 326.137 9.58857   3
   3   1  13 323.268 9.65625   6
   3   1  13 324.473 9.85598   2
  -4  -1 -13 0.05514 0.52675   3
  -4  -1 -13 -0.0611 0.63465   5
   4   1  13 1.32632 0.78544   2
   4   1  13 0.35654 0.61762   6
  -5  -1 -13 427.133 12.5685   3
  -5  -1 -13 427.525 12.7108   5
   5   1  13 441.967 12.7940   6
   5   1  13 429.151 12.8499   2
  -6  -1 -13 22.7165 1.70921   3
  -6  -1 -13 20.9323 1.73710   5
   6   1  13 22.7244 1.82747   6
   6   1  13 19.5617 1.74967   2
  -7  -1 -13 71.2589 3.25155   5
  -7  -1 -13 74.3908 3.28197   3
   7   1  13 70.8519 3.37914   2
   7   1  13 77.4111 3.49704   6
  -8  -1 -13 6.78453 1.22081   3
  -8  -1 -13 5.70342 1.11269   5
   8   1  13 5.66061 1.14685   2
   8   1  13 7.34756 1.36749   6
   6  -2 -13 27.8917 2.14908   3
  -6   2  13 25.7503 2.21333   6
   5  -2 -13 13.5422 1.50810   3
  -5   2  13 11.3668 1.50349   6
   4  -2 -13 63.5360 3.01973   3
  -4   2  13 65.7655 3.11977   6
   3  -2 -13 313.734 9.68594   3
  -3   2  13 320.853 9.77933   6
   2  -2 -13 6.00184 0.96455   3
   2  -2 -13 6.51973 0.89311   5
  -2   2  13 5.33764 0.87194   2
  -2   2  13 5.03104 0.96590   6
   1  -2 -13 365.830 10.7997   3
   1  -2 -13 375.682 10.7360   5
  -1   2  13 365.212 10.8712   6
  -1   2  13 355.090 10.7503   2
   0  -2 -13 19.6669 1.51172   3
   0  -2 -13 22.7091 1.53324   5
   0   2  13 20.0233 1.54482   2
   0   2  13 20.6819 1.58325   6
  -1  -2 -13 28.4172 1.72985   3
  -1  -2 -13 25.7274 1.73472   5
   1   2  13 27.9713 1.81980   2
   1   2  13 30.2512 1.82203   6
  -2  -2 -13 206.679 6.67614   5
  -2  -2 -13 206.966 6.61637   3
   2   2  13 211.958 6.82599   2
   2   2  13 203.029 6.64456   6
  -3  -2 -13 1.15182 0.59411   3
  -3  -2 -13 -0.0601 0.58571   5
   3   2  13 0.48649 0.69679   2
   3   2  13 1.24438 0.67474   6
  -4  -2 -13 174.999 5.87107   5
  -4  -2 -13 168.768 5.74124   3
   4   2  13 180.238 5.91222   6
   4   2  13 167.552 5.92831   2
  -5  -2 -13 87.1982 3.51449   3
  -5  -2 -13 94.6551 3.68538   5
   5   2  13 87.4702 3.63476   6
   5   2  13 80.4000 3.64032   2
  -6  -2 -13 0.87731 0.66421   3
  -6  -2 -13 0.00691 0.70661   5
   6   2  13 0.64841 0.73831   2
   6   2  13 -0.5855 0.62238   6
  -7  -2 -13 1.32510 0.79446   5
  -7  -2 -13 1.44772 0.79223   3
   7   2  13 1.16423 0.86041   6
   7   2  13 2.06778 0.88066   2
  -8  -2 -13 146.880 5.53130   3
  -8  -2 -13 151.328 5.47605   5
   8   2  13 160.155 5.87414   6
   8   2  13 152.422 5.64684   2
   9   2  13 9.59954 1.58294   2
   5  -3 -13 40.2250 2.49951   3
  -5   3  13 38.3200 2.55636   6
   4  -3 -13 95.1384 3.99803   3
  -4   3  13 96.2282 4.08095   6
   3  -3 -13 4.38542 0.97495   3
  -3   3  13 7.45719 1.25210   6
   2  -3 -13 102.592 3.98998   3
  -2   3  13 106.636 4.12453   6
   1  -3 -13 3.95480 0.84376   3
   1  -3 -13 5.99907 0.91184   5
  -1   3  13 5.14442 0.88856   2
  -1   3  13 4.66379 0.97008   6
   0  -3 -13 35.0449 1.97035   3
   0  -3 -13 34.5621 1.91138   5
   0   3  13 37.8514 2.02461   2
   0   3  13 32.6776 2.03891   6
  -1  -3 -13 109.801 4.00799   3
  -1  -3 -13 108.861 3.99219   5
   1   3  13 105.043 3.99674   6
   1   3  13 104.406 4.03349   2
  -2  -3 -13 270.270 8.39543   5
  -2  -3 -13 272.933 8.35510   3
   2   3  13 262.120 8.46604   2
   2   3  13 280.743 8.48426   6
  -3  -3 -13 5.51906 0.99019   5
  -3  -3 -13 6.24879 0.97852   3
   3   3  13 6.05579 1.02346   6
   3   3  13 4.47544 0.98385   2
  -4  -3 -13 160.798 5.45465   3
  -4  -3 -13 157.382 5.51534   5
   4   3  13 155.435 5.62417   2
   4   3  13 164.063 5.60836   6
  -5  -3 -13 139.719 5.05006   5
  -5  -3 -13 142.739 4.98678   3
   5   3  13 136.458 5.14507   2
   5   3  13 139.389 5.10465   6
  -6  -3 -13 20.9394 1.75966   5
  -6  -3 -13 18.7689 1.63713   3
   6   3  13 22.7866 1.84810   6
   6   3  13 18.1800 1.77924   2
  -7  -3 -13 220.809 7.18081   3
  -7  -3 -13 208.189 7.05864   5
   7   3  13 210.499 7.31230   6
   7   3  13 210.399 7.24856   2
  -8  -3 -13 0.55253 0.75870   3
  -8  -3 -13 0.88374 0.80592   5
   8   3  13 1.09035 0.93045   6
   8   3  13 1.33482 0.86694   2
  -9  -3 -13 0.41220 0.80156   5
   9   3  13 -0.5620 0.78240   2
   5  -4 -13 0.99241 0.81750   3
  -5   4  13 -0.6706 0.82031   6
   4  -4 -13 21.1295 1.84751   3
  -4   4  13 18.9293 1.96308   6
   3  -4 -13 0.56717 0.73798   3
  -3   4  13 2.01617 0.93130   6
   2  -4 -13 22.7337 1.75250   3
  -2   4  13 25.9427 1.87124   6
   1  -4 -13 66.3432 2.80930   5
   1  -4 -13 68.5467 3.00756   3
  -1   4  13 64.7861 2.82923   2
  -1   4  13 69.0830 3.13868   6
   0  -4 -13 24.6555 1.64495   5
   0  -4 -13 22.2957 1.66659   3
   0   4  13 22.7404 1.80070   6
   0   4  13 23.7785 1.65826   2
  -1  -4 -13 -0.0524 0.57985   5
  -1  -4 -13 0.71829 0.59682   3
   1   4  13 0.76107 0.63913   2
   1   4  13 -0.4368 0.61299   6
  -2  -4 -13 11.2519 1.27595   5
   2   4  13 13.6556 1.44195   6
   2   4  13 11.0695 1.31848   2
  -3  -4 -13 61.1395 2.81553   5
  -3  -4 -13 59.1846 2.74529   3
   3   4  13 58.4859 2.77854   6
   3   4  13 58.3323 2.85388   2
  -4  -4 -13 59.4530 2.79255   3
  -4  -4 -13 59.0548 2.83871   5
   4   4  13 62.6232 2.93819   6
   4   4  13 59.0768 2.95322   2
  -5  -4 -13 7.15194 1.16849   5
  -5  -4 -13 6.41863 1.06713   3
   5   4  13 5.51397 1.06648   6
   5   4  13 7.38976 1.26940   2
  -6  -4 -13 29.4916 2.00034   3
  -6  -4 -13 27.8159 2.03093   5
   6   4  13 31.8651 2.20763   6
   6   4  13 30.1293 2.21958   2
  -7  -4 -13 1.91092 0.81990   5
  -7  -4 -13 2.18176 0.84382   3
   7   4  13 2.24186 0.91389   2
   7   4  13 2.24990 0.91103   6
  -8  -4 -13 16.1623 1.68179   5
  -8  -4 -13 11.3625 1.53163   3
   8   4  13 15.1251 1.83285   6
   8   4  13 12.7096 1.64040   2
   4  -5 -13 6.01167 1.16916   3
  -4   5  13 5.29387 1.25314   6
   3  -5 -13 0.44712 0.76040   3
  -3   5  13 0.38128 0.75514   6
   2  -5 -13 0.47093 0.64848   3
  -2   5  13 0.03792 0.74830   6
   1  -5 -13 3.56986 0.88191   3
  -1   5  13 4.26852 1.02532   6
   0  -5 -13 8.21078 1.08140   5
   0  -5 -13 6.29490 0.98553   3
   0   5  13 6.70465 1.05474   2
   0   5  13 6.69493 1.09767   6
  -1  -5 -13 18.3488 1.57551   3
  -1  -5 -13 22.2105 1.60217   5
   1   5  13 17.9007 1.68225   6
   1   5  13 18.5320 1.66245   2
  -2  -5 -13 -0.5228 0.52890   5
  -2  -5 -13 -0.0642 0.54529   3
   2   5  13 0.13598 0.65104   6
   2   5  13 0.50124 0.72186   2
  -3  -5 -13 1.71866 0.79178   5
  -3  -5 -13 1.32741 0.71511   3
   3   5  13 1.85482 0.80111   6
   3   5  13 0.33843 0.70972   2
  -4  -5 -13 9.22130 1.18937   5
  -4  -5 -13 12.5077 1.41369   3
   4   5  13 10.3823 1.33493   6
   4   5  13 10.8548 1.40084   2
  -5  -5 -13 -0.0292 0.61101   5
  -5  -5 -13 0.03622 0.63705   3
   5   5  13 -0.8298 0.68935   2
   5   5  13 0.51973 0.73174   6
  -6  -5 -13 17.1335 1.59771   5
  -6  -5 -13 18.7517 1.72365   3
   6   5  13 19.0695 1.88710   2
   6   5  13 16.0451 1.69499   6
  -7  -5 -13 72.8663 3.37683   3
  -7  -5 -13 70.0589 3.36435   5
   7   5  13 69.5175 3.48294   2
   7   5  13 76.7778 3.60244   6
  -8  -5 -13 -0.1340 0.91633   3
  -8  -5 -13 0.03454 0.79740   5
   8   5  13 -1.2861 0.71757   2
   8   5  13 -0.8956 0.96671   6
   3  -6 -13 11.0748 1.46094   3
  -3   6  13 12.4805 1.60908   6
   2  -6 -13 0.38751 0.69261   3
  -2   6  13 0.32750 0.80451   6
   1  -6 -13 2.51539 0.78969   3
  -1   6  13 3.13091 1.03706   6
   0  -6 -13 129.653 4.71456   5
   0  -6 -13 135.634 4.93415   3
   0   6  13 141.450 5.15336   6
   0   6  13 128.594 4.79404   2
  -1  -6 -13 1.24003 0.67716   5
  -1  -6 -13 0.87697 0.65932   3
   1   6  13 1.70032 0.77149   2
   1   6  13 1.20945 0.84466   6
  -2  -6 -13 6.54843 1.09188   5
  -2  -6 -13 8.86821 1.23508   3
   2   6  13 8.33955 1.21340   2
   2   6  13 5.94877 1.06811   6
  -3  -6 -13 6.58512 1.07240   3
  -3  -6 -13 6.42179 1.09932   5
   3   6  13 9.85974 1.35633   6
   3   6  13 7.99765 1.27065   2
  -4  -6 -13 1.71041 0.84926   5
  -4  -6 -13 2.13541 0.77534   3
   4   6  13 1.02422 0.86932   2
   4   6  13 3.16606 0.95146   6
  -5  -6 -13 5.64202 1.11256   3
  -5  -6 -13 5.25602 1.09825   5
   5   6  13 6.16659 1.16590   6
   5   6  13 4.52776 1.07329   2
  -6  -6 -13 9.53467 1.33264   3
  -6  -6 -13 9.79166 1.36312   5
   6   6  13 9.25795 1.46421   2
   6   6  13 9.18466 1.34634   6
  -7  -6 -13 0.41753 0.78635   3
  -7  -6 -13 1.62112 0.91260   5
   7   6  13 0.97922 0.88693   6
   7   6  13 1.22230 0.93275   2
   2  -7 -13 4.14612 1.07693   3
  -2   7  13 6.80603 1.38006   6
   1  -7 -13 8.62079 1.29260   3
  -1   7  13 8.28050 1.47490   6
   0  -7 -13 107.839 4.32088   3
   0  -7 -13 103.141 4.18008   5
   0   7  13 120.610 4.54241   2
   0   7  13 110.237 4.53732   6
  -1  -7 -13 18.2402 1.60275   5
  -1  -7 -13 19.7102 1.73107   3
   1   7  13 18.1802 1.81205   6
   1   7  13 21.1263 1.74909   2
  -2  -7 -13 1.99993 0.82225   3
  -2  -7 -13 1.17032 0.76336   5
   2   7  13 3.08956 0.93678   2
   2   7  13 2.20502 0.91776   6
  -3  -7 -13 4.26405 0.99482   5
  -3  -7 -13 6.36012 1.12942   3
   3   7  13 5.26156 1.12202   6
   3   7  13 5.02286 1.08739   2
  -4  -7 -13 53.0143 2.76639   3
  -4  -7 -13 46.6798 2.69431   5
   4   7  13 51.7401 2.90491   2
   4   7  13 52.8593 2.85607   6
  -5  -7 -13 4.23696 1.08138   5
  -5  -7 -13 2.96103 0.98843   3
   5   7  13 2.79309 1.07261   2
   5   7  13 4.32783 1.13052   6
  -6  -7 -13 3.86007 1.06510   5
  -6  -7 -13 5.58505 1.11690   3
   6   7  13 2.21811 0.98545   6
   6   7  13 3.82522 1.17292   2
  -7  -7 -13 7.56836 1.95432   3
   1  -8 -13 1.14780 0.84981   3
  -1   8  13 0.59348 0.91793   6
   0  -8 -13 45.1736 2.61618   3
   0   8  13 47.9717 2.84095   6
  -1  -8 -13 25.1827 1.98161   3
  -1  -8 -13 24.1105 1.88910   5
   1   8  13 28.1552 2.06647   2
   1   8  13 26.6228 2.08100   6
  -2  -8 -13 28.9263 2.02697   5
  -2  -8 -13 28.3162 2.08352   3
   2   8  13 27.7973 2.19612   2
   2   8  13 28.4130 2.17944   6
  -3  -8 -13 44.1829 2.56497   5
  -3  -8 -13 49.5621 2.66635   3
   3   8  13 47.9006 2.78179   2
   3   8  13 44.1347 2.67062   6
  -4  -8 -13 31.4976 2.15106   3
  -4  -8 -13 31.1768 2.23425   5
   4   8  13 31.1382 2.29082   6
   4   8  13 32.1326 2.40007   2
  -5  -8 -13 63.4291 3.19953   3
  -5  -8 -13 60.6004 3.18834   5
   5   8  13 60.5173 3.23902   6
   5   8  13 63.5798 3.36998   2
  -6  -8 -13 3.55219 1.25613   3
   6   8  13 5.30564 1.80434   6
  -1  -9 -13 20.9900 1.87879   5
  -1  -9 -13 21.7021 2.09807   3
   1   9  13 21.1971 2.05509   2
   1   9  13 23.0153 2.37420   6
  -2  -9 -13 42.7658 2.61743   3
  -2  -9 -13 43.1839 2.52256   5
   2   9  13 43.7415 2.70298   6
   2   9  13 44.8635 2.68412   2
  -3  -9 -13 86.1595 3.78037   3
  -3  -9 -13 83.4568 3.80585   5
   3   9  13 84.9414 3.91639   6
   3   9  13 88.8747 4.04839   2
  -4  -9 -13 40.9047 2.69162   3
   4   9  13 40.1852 2.93326   6
   2   7 -14 6.98541 1.19636   1
  -2  -7  14 6.61736 1.23662   4
   1   7 -14 10.3655 1.35753   1
  -1  -7  14 11.0323 1.45669   4
   0   7 -14 45.1637 2.58469   1
   0  -7  14 50.3485 2.84684   4
   4   6 -14 9.06292 1.95786   5
  -4  -6  14 8.16101 1.66997   2
   3   6 -14 17.0527 1.66694   5
   3   6 -14 18.0508 1.80356   1
  -3  -6  14 16.9440 1.85568   2
  -3  -6  14 19.9791 1.80047   4
   2   6 -14 47.8996 2.67678   1
   2   6 -14 56.4610 2.89670   5
  -2  -6  14 51.3216 2.74906   4
  -2  -6  14 55.8222 3.06355   2
   1   6 -14 24.0809 1.94372   5
   1   6 -14 26.1096 1.83323   1
  -1  -6  14 23.8075 2.24128   2
  -1  -6  14 22.6118 1.81506   4
   0   6 -14 12.5887 1.48913   5
   0  -6  14 14.9451 1.75680   2
  -1   6 -14 11.8252 1.40836   5
   1  -6  14 12.3508 1.61912   2
  -2   6 -14 24.7013 2.01006   5
   2  -6  14 23.7192 2.17639   2
  -3   6 -14 3.74345 1.04650   5
   3  -6  14 3.60148 1.14510   2
  -4   6 -14 3.65380 1.21796   5
   4  -6  14 3.34557 1.29075   2
   4   5 -14 35.7021 2.17004   5
   4   5 -14 39.4751 2.46586   1
  -4  -5  14 33.7185 2.82917   2
  -4  -5  14 35.2421 2.36292   4
   3   5 -14 75.5422 3.37465   1
   3   5 -14 72.6960 3.23258   5
  -3  -5  14 68.7516 3.41960   2
  -3  -5  14 70.4757 3.29457   4
   2   5 -14 15.4675 1.57468   5
   2   5 -14 15.7146 1.48265   1
  -2  -5  14 13.6004 1.60969   2
  -2  -5  14 15.8092 1.49307   4
   1   5 -14 5.30751 1.06650   5
  -1  -5  14 5.37213 1.17666   2
  -1  -5  14 5.35638 1.64197   4
   0   5 -14 134.347 5.09604   5
   0  -5  14 146.932 5.40933   2
  -1   5 -14 32.6645 2.17355   5
   1  -5  14 31.1439 2.31691   2
  -2   5 -14 155.044 5.53818   5
   2  -5  14 148.228 5.70590   2
  -3   5 -14 0.75069 0.79888   5
   3  -5  14 -0.1054 0.83566   2
  -4   5 -14 21.7442 1.85593   5
   4  -5  14 23.9300 2.15225   2
  -5   5 -14 33.5622 2.22893   5
   5  -5  14 31.5614 2.41024   2
   5   4 -14 5.72529 1.13382   1
  -5  -4  14 6.84383 1.23276   4
   4   4 -14 46.5152 2.63021   1
  -4  -4  14 50.8415 2.67006   4
   3   4 -14 4.40176 0.98662   1
   3   4 -14 5.27250 1.00544   5
  -3  -4  14 4.42471 0.97733   4
  -3  -4  14 4.39990 1.05055   2
   2   4 -14 80.2913 3.44554   5
   2   4 -14 86.8059 3.80080   1
  -2  -4  14 76.6662 3.47885   4
  -2  -4  14 78.4160 3.58422   2
   1   4 -14 275.348 8.85669   5
  -1  -4  14 293.068 9.14256   2
   0   4 -14 26.2069 1.84267   5
   0  -4  14 29.4107 2.14528   2
  -1   4 -14 262.006 8.49463   5
   1  -4  14 273.593 8.74180   2
  -2   4 -14 3.67415 0.96751   5
   2  -4  14 6.34334 1.23045   2
  -3   4 -14 10.0513 1.33919   5
   3  -4  14 8.03073 1.31808   2
  -4   4 -14 37.3036 2.28472   5
   4  -4  14 32.7711 2.36107   2
  -5   4 -14 56.1709 2.88453   5
   5  -4  14 58.5287 3.10898   2
  -6   4 -14 13.0106 1.48293   5
   6  -4  14 10.6239 1.49853   2
  -5  -3  14 59.2686 2.99478   4
   4   3 -14 1.22690 0.77138   1
  -4  -3  14 1.16411 0.76701   4
   3   3 -14 5.77373 1.00621   5
   3   3 -14 5.84638 1.15693   1
  -3  -3  14 6.24835 1.11453   4
  -3  -3  14 7.03943 1.18106   2
   2   3 -14 326.686 10.0535   5
  -2  -3  14 338.562 10.2878   2
   1   3 -14 140.932 5.02138   5
  -1  -3  14 140.735 5.21494   2
   0   3 -14 3.57513 0.88632   5
   0  -3  14 2.15398 0.91619   2
  -1   3 -14 57.1779 2.75264   5
   1  -3  14 51.1129 2.81295   2
  -2   3 -14 179.862 6.16374   5
   2  -3  14 180.663 6.33046   2
  -3   3 -14 36.8985 2.26917   5
   3  -3  14 39.6300 2.46589   2
  -4   3 -14 327.503 10.0223   5
   4  -3  14 316.878 10.1799   2
  -5   3 -14 13.2112 1.47690   5
   5  -3  14 13.2085 1.57633   2
  -6   3 -14 25.8712 1.96847   5
   6  -3  14 26.9597 2.19704   2
  -7   3 -14 7.21918 1.21796   5
   7  -3  14 6.27317 1.23576   2
  -5  -2  14 34.8728 2.25855   4
  -5  -2  14 35.4700 2.31244   1
   3   2 -14 -0.4220 0.55468   5
  -3  -2  14 1.00995 0.71059   2
   2   2 -14 427.202 12.6846   5
  -2  -2  14 442.630 12.8826   2
   1   2 -14 66.0728 2.87825   5
  -1  -2  14 57.4409 2.91372   2
   0   2 -14 149.376 5.17542   5
   0  -2  14 142.682 5.24104   2
  -1   2 -14 383.639 11.4304   5
   1  -2  14 378.981 11.5615   2
  -2   2 -14 0.56392 0.70450   5
   2  -2  14 0.41000 0.75390   2
  -3   2 -14 253.198 8.13603   5
   3  -2  14 257.512 8.34169   2
  -4   2 -14 1.58549 0.83327   5
   4  -2  14 2.20469 0.87247   2
  -5   2 -14 4.86366 1.06920   5
   5  -2  14 3.71146 1.04378   2
   5  -2  14 3.38698 1.27403   6
  -6   2 -14 59.0832 2.96532   3
  -6   2 -14 50.1678 2.74601   5
   6  -2  14 53.0690 2.85958   6
   6  -2  14 50.8862 2.86467   2
  -7   2 -14 153.732 5.57966   3
  -7   2 -14 164.706 5.71227   5
   7  -2  14 150.873 5.78893   2
   7  -2  14 158.642 5.76974   6
  -8   2 -14 0.61217 1.09866   3
   6   1 -14 8.76202 1.51136   4
  -6  -1  14 12.2926 1.66300   1
   2   1 -14 14.6819 1.35238   5
  -2  -1  14 12.6918 1.36598   2
   1   1 -14 65.3451 3.60464   3
   1   1 -14 60.6936 2.79721   5
  -1  -1  14 64.8916 2.94792   2
   0   1 -14 118.188 4.09970   3
   0   1 -14 119.651 4.35896   5
   0  -1  14 113.660 4.44104   2
   0  -1  14 117.930 4.11375   6
  -1   1 -14 194.093 6.53418   5
  -1   1 -14 202.260 6.31585   3
   1  -1  14 202.478 6.30589   6
   1  -1  14 198.829 6.69450   2
  -2   1 -14 0.25825 0.65469   5
  -2   1 -14 0.30828 0.53474   3
   2  -1  14 0.92481 0.74035   2
   2  -1  14 0.87555 0.59316   6
  -3   1 -14 135.589 4.63416   3
  -3   1 -14 135.360 4.90128   5
   3  -1  14 138.236 5.05669   2
   3  -1  14 128.651 4.62871   6
  -4   1 -14 95.9558 3.87162   5
  -4   1 -14 100.079 3.70293   3
   4  -1  14 96.9077 3.78311   6
   4  -1  14 96.8818 4.09647   2
  -5   1 -14 11.9113 1.26759   3
  -5   1 -14 10.4400 1.34812   5
   5  -1  14 9.91880 1.40678   2
   5  -1  14 12.4850 1.39112   6
  -6   1 -14 157.671 5.47642   3
  -6   1 -14 160.001 5.65604   5
   6  -1  14 164.581 5.70544   6
   6  -1  14 151.176 5.76842   2
  -7   1 -14 6.57959 1.17655   5
  -7   1 -14 9.21748 1.22932   3
   7  -1  14 7.40990 1.28034   6
   7  -1  14 9.83493 1.44561   2
  -8   1 -14 70.1117 3.38257   5
  -8   1 -14 67.4922 3.33194   3
   8  -1  14 67.9701 3.61019   6
   8  -1  14 61.6017 3.29908   2
   4   0 -14 8.65936 1.17423   3
  -4   0  14 8.25040 1.25837   6
   3   0 -14 3.72294 0.82258   3
  -3   0  14 4.67848 0.97533   6
   2   0 -14 99.1884 3.69063   5
   2   0 -14 99.7294 3.67459   3
  -2   0  14 90.1689 3.62760   6
  -2   0  14 93.3086 3.68214   2
   1   0 -14 6.19104 0.91846   3
   1   0 -14 5.48213 0.90270   5
  -1   0  14 6.47394 0.98351   6
  -1   0  14 5.57315 0.95564   2
   0   0 -14 325.836 9.78133   5
   0   0 -14 328.217 9.62595   3
   0   0  14 306.916 9.79754   2
   0   0  14 330.119 9.63169   6
  -1   0 -14 88.2404 3.54472   5
  -1   0 -14 88.6504 3.39347   3
   1   0  14 86.2738 3.63980   2
   1   0  14 88.1979 3.39012   6
  -2   0 -14 74.2659 3.01339   3
  -2   0 -14 74.2371 3.16009   5
   2   0  14 72.8485 3.00999   6
   2   0  14 72.9353 3.30802   2
  -3   0 -14 117.927 4.42166   5
  -3   0 -14 118.368 4.22680   3
   3   0  14 118.521 4.56461   2
   3   0  14 115.064 4.26266   6
  -4   0 -14 14.6907 1.34845   3
  -4   0 -14 16.8712 1.49970   5
   4   0  14 17.8549 1.50549   6
   4   0  14 14.9880 1.64510   2
  -5   0 -14 293.919 9.14590   3
  -5   0 -14 305.139 9.39645   5
   5   0  14 293.963 9.53800   2
   5   0  14 307.697 9.36178   6
  -6   0 -14 0.67837 0.78116   5
  -6   0 -14 1.81451 0.74756   3
   6   0  14 0.15145 0.73407   2
   6   0  14 0.01379 0.64227   6
  -7   0 -14 1.29752 0.76627   3
  -7   0 -14 1.87892 0.84206   5
   7   0  14 1.00029 0.87804   2
   7   0  14 0.76354 0.81080   6
  -8   0 -14 6.45171 1.23728   3
  -8   0 -14 6.97018 1.19511   5
   8   0  14 7.06648 1.31375   6
   8   0  14 7.52895 1.29709   2
   5  -1 -14 3.40241 0.96272   3
  -5   1  14 3.24450 1.05194   6
   4  -1 -14 12.9375 1.40601   3
  -4   1  14 14.3460 1.55429   6
   3  -1 -14 66.9571 2.99845   3
  -3   1  14 65.8568 3.02019   6
   2  -1 -14 6.98905 0.99725   5
   2  -1 -14 3.76131 0.84119   3
  -2   1  14 4.37061 0.91566   6
  -2   1  14 6.02148 0.95731   2
   1  -1 -14 101.251 3.72132   5
   1  -1 -14 96.0103 3.66627   3
  -1   1  14 95.9968 3.75244   2
  -1   1  14 91.1559 3.68901   6
   0  -1 -14 4.33594 0.82936   5
   0  -1 -14 3.69954 0.76026   3
   0   1  14 2.70800 0.73938   6
  -1  -1 -14 6.01047 0.95794   3
  -1  -1 -14 3.39053 0.82487   5
   1   1  14 4.56769 0.95719   2
   1   1  14 6.15478 0.97969   6
  -2  -1 -14 23.1207 1.73603   5
  -2  -1 -14 25.0014 1.70146   3
   2   1  14 26.9260 1.71245   6
   2   1  14 23.9305 1.83750   2
  -3  -1 -14 21.0287 1.57129   3
  -3  -1 -14 21.4891 1.61130   5
   3   1  14 21.5861 1.66212   6
   3   1  14 20.5810 1.77680   2
  -4  -1 -14 3.01989 0.88240   5
  -4  -1 -14 2.38831 0.71273   3
   4   1  14 2.66700 0.90277   2
   4   1  14 3.64596 0.88762   6
  -5  -1 -14 33.3258 2.14403   5
  -5  -1 -14 35.1848 2.07750   3
   5   1  14 36.2468 2.18735   6
   5   1  14 34.7896 2.29209   2
  -6  -1 -14 63.5142 3.01379   5
  -6  -1 -14 60.0001 2.87732   3
   6   1  14 66.9170 3.15356   6
   6   1  14 60.6278 3.10614   2
  -7  -1 -14 36.0894 2.24457   5
  -7  -1 -14 34.6175 2.20685   3
   7   1  14 32.9034 2.31222   6
   7   1  14 30.8622 2.26636   2
  -8  -1 -14 150.501 5.79685   3
  -8  -1 -14 161.497 5.77182   5
   8   1  14 158.458 5.86484   2
   8   1  14 166.216 6.14327   6
   5  -2 -14 -0.3318 0.61718   3
  -5   2  14 0.13958 0.80149   6
   4  -2 -14 10.7710 1.39910   3
  -4   2  14 10.5669 1.40533   6
   3  -2 -14 12.5606 1.39349   3
  -3   2  14 10.2164 1.32417   6
   2  -2 -14 2.24908 0.79013   3
  -2   2  14 1.03179 0.71084   6
   1  -2 -14 15.4667 1.38322   3
   1  -2 -14 14.4411 1.30223   5
  -1   2  14 13.7382 1.43129   6
  -1   2  14 14.7257 1.35248   2
   0  -2 -14 30.8278 1.85646   3
   0  -2 -14 28.6889 1.82313   5
   0   2  14 30.7053 1.90095   6
   0   2  14 28.1715 1.87755   2
  -1  -2 -14 7.10895 1.03086   5
  -1  -2 -14 7.39958 1.00101   3
   1   2  14 7.66081 1.07451   6
   1   2  14 6.58066 1.10249   2
  -2  -2 -14 4.65027 0.95876   5
  -2  -2 -14 3.63711 0.80451   3
   2   2  14 5.15850 0.95468   6
   2   2  14 4.87330 0.95988   2
  -3  -2 -14 18.6703 1.51001   5
  -3  -2 -14 17.7379 1.48337   3
   3   2  14 19.5725 1.68998   2
   3   2  14 16.5553 1.50155   6
  -4  -2 -14 118.451 4.43616   3
  -4  -2 -14 116.614 4.51212   5
   4   2  14 123.659 4.69475   2
   4   2  14 125.085 4.59278   6
  -5  -2 -14 118.785 4.48344   3
  -5  -2 -14 120.075 4.58609   5
   5   2  14 122.215 4.64534   6
   5   2  14 123.387 4.78034   2
  -6  -2 -14 4.38450 1.01784   5
  -6  -2 -14 1.67116 0.81600   3
   6   2  14 3.46211 1.00376   6
   6   2  14 2.27681 0.88567   2
  -7  -2 -14 43.2492 2.53217   3
  -7  -2 -14 40.4271 2.43131   5
   7   2  14 35.1987 2.49823   2
   7   2  14 44.3617 2.63473   6
  -8  -2 -14 -0.9287 0.68153   5
  -8  -2 -14 1.15657 0.91565   3
   8   2  14 0.99584 0.90409   2
   8   2  14 0.68098 0.98769   6
   4  -3 -14 1.07305 0.75923   3
  -4   3  14 0.08931 0.77358   6
   3  -3 -14 16.8212 1.67046   3
  -3   3  14 17.8814 1.73867   6
   2  -3 -14 2.57792 0.83916   3
  -2   3  14 2.21380 0.84554   6
   1  -3 -14 4.68632 0.92110   3
   1  -3 -14 3.89914 0.81136   5
  -1   3  14 4.08362 0.94616   6
  -1   3  14 3.09681 0.81466   2
   0  -3 -14 50.4513 2.48417   3
   0  -3 -14 50.9021 2.44307   5
   0   3  14 49.0845 2.53043   6
   0   3  14 47.4345 2.48027   2
  -1  -3 -14 54.0491 2.60052   3
  -1  -3 -14 54.9723 2.60714   5
   1   3  14 53.6148 2.67174   6
   1   3  14 53.8060 2.68598   2
  -2  -3 -14 16.0333 1.45695   5
   2   3  14 11.0098 1.32758   2
   2   3  14 15.5605 1.49320   6
  -3  -3 -14 0.71465 0.70553   5
  -3  -3 -14 2.32929 0.73114   3
   3   3  14 1.39304 0.73877   6
   3   3  14 2.00810 0.81349   2
  -4  -3 -14 -0.4764 0.58901   3
  -4  -3 -14 0.11144 0.59456   5
   4   3  14 0.08525 0.67976   6
   4   3  14 1.94021 0.86538   2
  -5  -3 -14 0.69697 0.76920   5
  -5  -3 -14 0.92975 0.70674   3
   5   3  14 0.79365 0.77863   2
   5   3  14 1.45655 0.82636   6
  -6  -3 -14 2.35897 0.86918   3
  -6  -3 -14 1.16664 0.81536   5
   6   3  14 2.23343 0.89558   6
   6   3  14 1.32845 0.84611   2
  -7  -3 -14 37.7387 2.37840   3
  -7  -3 -14 36.4584 2.37310   5
   7   3  14 42.5344 2.63590   6
   7   3  14 38.6178 2.57495   2
  -8  -3 -14 141.843 5.24383   5
   8   3  14 131.734 5.34880   2
   4  -4 -14 9.72557 1.43917   3
  -4   4  14 8.65867 1.45806   6
   3  -4 -14 -0.1110 0.66993   3
  -3   4  14 -0.4417 0.71307   6
   2  -4 -14 14.8526 1.54654   3
  -2   4  14 14.3892 1.66628   6
   1  -4 -14 6.24620 1.08515   3
   1  -4 -14 7.42423 1.11064   5
  -1   4  14 8.29610 1.28677   6
  -1   4  14 5.85286 1.14875   2
   0  -4 -14 32.9299 1.94028   5
   0  -4 -14 28.8106 1.95707   3
   0   4  14 34.6309 2.16532   6
   0   4  14 31.2424 1.94984   2
  -1  -4 -14 38.9416 2.22422   3
  -1  -4 -14 43.1721 2.27092   5
   1   4  14 38.3348 2.30774   6
   1   4  14 37.6626 2.23635   2
  -2  -4 -14 44.8759 2.35707   3
  -2  -4 -14 45.4707 2.37783   5
   2   4  14 43.1996 2.42539   2
   2   4  14 37.6006 2.33801   6
  -3  -4 -14 47.7161 2.51459   5
  -3  -4 -14 48.8624 2.51603   3
   3   4  14 43.4530 2.51970   2
   3   4  14 45.8869 2.53350   6
  -4  -4 -14 -0.3158 0.60594   3
  -4  -4 -14 -0.3023 0.66735   5
   4   4  14 -0.5255 0.64299   2
   4   4  14 0.44814 0.75788   6
  -5  -4 -14 2.87250 0.90124   3
  -5  -4 -14 3.15409 0.88990   5
   5   4  14 0.88400 0.79605   2
   5   4  14 2.66855 0.94663   6
  -6  -4 -14 21.2619 1.81348   5
  -6  -4 -14 19.4878 1.82779   3
   6   4  14 22.7799 2.05202   2
   6   4  14 21.2356 1.94874   6
  -7  -4 -14 1.59658 0.86848   3
  -7  -4 -14 0.97321 0.81376   5
   7   4  14 1.38376 0.91906   2
   7   4  14 3.15677 1.04909   6
  -8  -4 -14 19.5688 2.70619   5
   8   4  14 19.0077 2.72819   2
   3  -5 -14 5.62794 1.20243   3
  -3   5  14 7.14521 1.35541   6
   2  -5 -14 26.8368 1.97148   3
  -2   5  14 24.3345 2.06734   6
   1  -5 -14 8.29421 1.22400   3
  -1   5  14 7.26949 1.30710   6
   0  -5 -14 9.14323 1.24114   3
   0  -5 -14 7.34922 1.08993   5
   0   5  14 7.68006 1.23848   6
   0   5  14 11.7102 1.37126   2
  -1  -5 -14 59.4118 2.81407   5
  -1  -5 -14 58.8847 2.87731   3
   1   5  14 62.5149 3.03909   6
   1   5  14 60.4092 2.93521   2
  -2  -5 -14 24.8966 1.88983   3
  -2  -5 -14 24.7645 1.80336   5
   2   5  14 24.4947 1.90634   2
   2   5  14 24.4400 1.95557   6
  -3  -5 -14 36.8885 2.22769   5
  -3  -5 -14 35.2772 2.19632   3
   3   5  14 37.8478 2.38161   2
   3   5  14 34.6614 2.30439   6
  -4  -5 -14 0.52775 0.74271   3
  -4  -5 -14 -0.2068 0.70368   5
   4   5  14 0.61884 0.68417   6
   4   5  14 0.12008 0.77085   2
  -5  -5 -14 17.7939 1.74950   5
  -5  -5 -14 21.5690 1.81439   3
   5   5  14 22.3401 1.97219   6
   5   5  14 17.9828 1.88188   2
  -6  -5 -14 31.0797 2.20468   5
  -6  -5 -14 25.3372 2.10851   3
   6   5  14 30.5834 2.21040   6
   6   5  14 34.4364 2.40721   2
  -7  -5 -14 8.65035 1.36313   3
  -7  -5 -14 8.58257 1.37522   5
   7   5  14 8.71989 1.40887   2
   7   5  14 12.7939 1.68286   6
   2  -6 -14 8.23221 1.27024   3
  -2   6  14 8.69016 1.41955   6
   1  -6 -14 0.51393 0.71193   3
  -1   6  14 1.18756 0.89602   6
   0  -6 -14 120.258 4.57891   3
   0  -6 -14 112.960 4.33376   5
   0   6  14 119.815 4.75646   6
   0   6  14 113.861 4.43970   2
  -1  -6 -14 119.437 4.56416   3
  -1  -6 -14 116.458 4.45633   5
   1   6  14 120.273 4.71937   6
   1   6  14 114.823 4.52741   2
  -2  -6 -14 41.8144 2.38703   5
  -2  -6 -14 41.4209 2.40522   3
   2   6  14 38.8213 2.49831   6
   2   6  14 43.8099 2.51420   2
  -3  -6 -14 58.7587 2.96403   3
  -3  -6 -14 61.1060 2.98573   5
   3   6  14 60.4733 3.11910   6
   3   6  14 60.3980 3.09321   2
  -4  -6 -14 67.7201 3.22929   3
  -4  -6 -14 65.8908 3.21172   5
   4   6  14 67.2394 3.36369   2
   4   6  14 69.6043 3.38695   6
  -5  -6 -14 59.6540 3.08838   5
  -5  -6 -14 60.2587 3.07392   3
   5   6  14 64.2801 3.28956   6
   5   6  14 62.5512 3.27250   2
  -6  -6 -14 178.059 6.23168   3
  -6  -6 -14 174.303 6.25335   5
   6   6  14 167.187 6.37222   2
   6   6  14 170.263 6.34877   6
   1  -7 -14 0.88104 0.81957   3
  -1   7  14 1.54684 1.04232   6
   0  -7 -14 272.497 9.02837   3
   0   7  14 293.600 9.33167   6
  -1  -7 -14 13.0006 1.43562   5
  -1  -7 -14 10.6380 1.41005   3
   1   7  14 10.2889 1.52369   6
   1   7  14 9.56189 1.35184   2
  -2  -7 -14 42.1576 2.47986   5
  -2  -7 -14 43.6415 2.53426   3
   2   7  14 42.4868 2.57263   2
   2   7  14 40.4461 2.60902   6
  -3  -7 -14 109.898 4.42675   3
  -3  -7 -14 105.028 4.36852   5
   3   7  14 111.673 4.57817   6
   3   7  14 109.194 4.52869   2
  -4  -7 -14 9.26457 1.39194   5
   4   7  14 9.29184 1.46208   2
   4   7  14 7.79116 1.37730   6
  -5  -7 -14 154.434 5.72165   3
  -5  -7 -14 155.424 5.79637   5
   5   7  14 160.241 5.96531   6
   5   7  14 153.692 5.96254   2
  -1  -8 -14 0.13219 0.84466   3
  -1  -8 -14 -0.9910 0.66797   5
   1   8  14 -0.4628 0.89564   6
   1   8  14 -0.0119 0.81331   2
  -2  -8 -14 -0.1630 0.69629   3
  -2  -8 -14 -0.0031 0.72563   5
   2   8  14 0.32697 0.81347   2
   2   8  14 -1.0386 0.74556   6
  -3  -8 -14 74.7173 3.45687   3
  -3  -8 -14 66.6425 3.35264   5
   3   8  14 73.5778 3.60250   2
   3   8  14 72.8434 3.63346   6
  -4  -8 -14 8.62112 1.49246   3
   4   8  14 5.49159 1.57823   2
   3   5 -15 50.8838 2.71921   5
  -3  -5  15 51.3683 2.96349   2
   2   5 -15 3.81884 0.99947   5
  -2  -5  15 1.21229 0.98140   2
   1   5 -15 229.253 7.52081   5
  -1  -5  15 219.303 7.71022   2
   0   5 -15 1.16079 0.83550   5
   0  -5  15 1.04119 0.97039   2
  -1   5 -15 0.20370 0.75102   5
   1  -5  15 -0.1752 0.90400   2
  -2   5 -15 10.8753 1.47344   5
   2  -5  15 7.82983 1.44460   2
  -3   5 -15 110.499 4.56411   5
   3  -5  15 117.283 4.89761   2
   3   4 -15 94.4536 3.94796   5
  -3  -4  15 101.692 4.25586   2
   2   4 -15 7.80928 1.23329   5
  -2  -4  15 8.14489 1.35723   2
   1   4 -15 564.649 16.4335   5
  -1  -4  15 565.856 16.6544   2
   0   4 -15 79.3000 3.49215   5
   0  -4  15 73.2536 3.60911   2
  -1   4 -15 31.4945 2.13505   5
   1  -4  15 27.1397 2.20672   2
  -2   4 -15 285.113 8.86600   5
   2  -4  15 260.648 8.94121   2
  -3   4 -15 -0.4008 0.69899   5
   3  -4  15 0.43074 0.85097   2
  -4   4 -15 64.0203 3.18016   5
   4  -4  15 65.2212 3.41524   2
  -5   4 -15 2.84897 1.02804   5
   5  -4  15 1.93912 1.06069   2
   3   3 -15 -0.0886 0.64887   5
  -3  -3  15 0.73720 0.86140   2
   2   3 -15 106.649 4.18340   5
  -2  -3  15 107.580 4.42265   2
   1   3 -15 105.192 4.15018   5
  -1  -3  15 103.528 4.36772   2
   0   3 -15 2.46616 0.88554   5
   0  -3  15 0.59312 0.79655   2
  -1   3 -15 95.9916 3.95355   5
   1  -3  15 91.7693 4.03952   2
  -2   3 -15 72.4694 3.30104   5
   2  -3  15 72.5829 3.51594   2
  -3   3 -15 30.7041 2.13225   5
   3  -3  15 27.9484 2.20959   2
  -4   3 -15 59.8811 3.01689   5
   4  -3  15 56.8496 3.12518   2
  -5   3 -15 24.2476 1.95307   5
   5  -3  15 22.5607 2.06787   2
  -6   3 -15 0.86014 0.88952   5
   6  -3  15 1.40877 0.98088   2
   2   2 -15 15.8861 1.54720   5
  -2  -2  15 13.1647 1.50828   2
   1   2 -15 57.1295 2.80990   5
  -1  -2  15 62.7164 3.04603   2
   0   2 -15 0.25350 0.63227   5
   0  -2  15 0.21624 0.77389   2
  -1   2 -15 165.031 5.82964   5
   1  -2  15 166.253 5.98694   2
  -2   2 -15 10.7274 1.35664   5
   2  -2  15 7.27503 1.25874   2
  -3   2 -15 7.73662 1.20852   5
   3  -2  15 8.90546 1.32239   2
  -4   2 -15 94.2649 3.92694   5
   4  -2  15 87.0079 3.97874   2
  -5   2 -15 16.2689 1.68949   5
   5  -2  15 21.6299 2.00673   2
  -6   2 -15 81.6877 3.64023   5
   6  -2  15 76.9614 3.78443   2
   2   1 -15 99.0243 3.88679   5
  -2  -1  15 99.7905 3.98668   2
   1   1 -15 55.6617 2.66446   5
  -1  -1  15 51.0326 2.68642   2
   0   1 -15 21.1555 1.72303   5
   0  -1  15 21.0844 1.77837   2
  -1   1 -15 14.2882 1.53025   5
   1  -1  15 14.3810 1.58934   2
  -2   1 -15 7.61112 1.15124   5
   2  -1  15 9.31506 1.49384   6
   2  -1  15 9.62000 1.36990   2
  -3   1 -15 0.36752 0.67730   5
  -3   1 -15 -0.2010 0.51410   3
   3  -1  15 -0.4401 0.52855   6
   3  -1  15 -0.4330 0.72612   2
  -4   1 -15 6.30608 0.96828   3
  -4   1 -15 4.33207 1.02397   5
   4  -1  15 5.71449 1.19347   2
   4  -1  15 4.68520 0.95848   6
  -5   1 -15 1.40971 0.66468   3
  -5   1 -15 1.01707 0.79190   5
   5  -1  15 1.95037 0.76859   6
   5  -1  15 1.01830 0.88332   2
  -6   1 -15 57.6869 2.99462   5
  -6   1 -15 58.3243 2.79708   3
   6  -1  15 62.3143 3.02414   6
   6  -1  15 60.2378 3.22849   2
  -7   1 -15 40.3184 2.51344   5
  -7   1 -15 40.5025 2.39597   3
   7  -1  15 40.7891 2.68870   2
   7  -1  15 44.7023 2.66116   6
   2   0 -15 5.67396 0.91523   3
   2   0 -15 5.09764 0.95622   5
  -2   0  15 3.79880 0.87677   6
  -2   0  15 4.70729 0.95862   2
   1   0 -15 -0.2234 0.51116   3
   1   0 -15 0.51762 0.63699   5
  -1   0  15 -0.2829 0.55660   6
  -1   0  15 0.70043 0.70265   2
   0   0 -15 4.66888 0.93528   5
   0   0 -15 3.59772 0.77985   3
   0   0  15 4.44424 0.95723   2
  -1   0 -15 0.35037 0.68253   5
  -1   0 -15 0.45203 0.54230   3
   1   0  15 0.65437 0.58311   6
   1   0  15 1.43813 0.78106   2
  -2   0 -15 2.34318 0.76503   5
  -2   0 -15 1.70196 0.68877   3
   2   0  15 1.63944 0.65082   6
   2   0  15 3.01172 0.95225   2
  -3   0 -15 0.66540 0.57017   3
  -3   0 -15 0.34337 0.65626   5
   3   0  15 0.14483 0.60490   6
   3   0  15 -0.4753 0.70463   2
  -4   0 -15 7.94668 1.17287   5
  -4   0 -15 7.77231 1.06799   3
   4   0  15 8.51788 1.35093   2
   4   0  15 9.08296 1.22097   6
  -5   0 -15 17.5420 1.60390   3
  -5   0 -15 17.7776 1.70413   5
   5   0  15 20.0157 1.71253   6
   5   0  15 18.9656 1.91867   2
  -6   0 -15 59.0969 2.96972   5
  -6   0 -15 57.3711 2.79821   3
   6   0  15 58.2370 3.02556   6
   6   0  15 59.0779 3.11987   2
  -7   0 -15 0.81605 0.77148   5
  -7   0 -15 -0.0418 0.69353   3
   7   0  15 0.08201 0.81695   6
   7   0  15 1.28513 0.90423   2
   5  -1 -15 40.4304 3.49078   3
  -5   1  15 44.9143 3.10030   6
   4  -1 -15 -0.8219 0.58729   3
  -4   1  15 0.32678 0.75025   6
   3  -1 -15 8.78950 1.24293   3
  -3   1  15 9.82858 1.29578   6
   2  -1 -15 73.9219 3.19475   3
  -2   1  15 75.4674 3.28627   6
   1  -1 -15 9.29199 1.17963   5
   1  -1 -15 9.54895 1.18004   3
  -1   1  15 11.2249 1.29143   6
  -1   1  15 9.62344 1.21432   2
   0  -1 -15 -0.1357 0.59949   5
   0  -1 -15 0.31170 0.59721   3
   0   1  15 0.58562 0.67918   2
   0   1  15 0.89384 0.62297   6
  -1  -1 -15 28.0472 1.91079   5
  -1  -1 -15 32.0538 1.88745   3
   1   1  15 32.5141 1.93952   6
   1   1  15 24.4515 1.92923   2
  -2  -1 -15 12.6722 1.42993   5
   2   1  15 13.3970 1.35483   6
   2   1  15 11.0843 1.36739   2
  -3  -1 -15 3.28333 0.83610   3
  -3  -1 -15 2.58247 0.81421   5
   3   1  15 1.41271 0.71844   6
   3   1  15 1.94920 0.83711   2
  -4  -1 -15 -0.4164 0.64039   5
  -4  -1 -15 0.22988 0.56998   3
   4   1  15 -0.3367 0.67481   2
   4   1  15 -0.1011 0.64024   6
  -5  -1 -15 34.3976 2.21048   5
  -5  -1 -15 29.5177 1.97041   3
   5   1  15 29.9994 2.09672   6
   5   1  15 31.7633 2.28885   2
  -6  -1 -15 0.66237 0.75024   5
  -6  -1 -15 0.77468 0.71623   3
   6   1  15 -0.1269 0.77097   6
   6   1  15 0.50541 0.82072   2
  -7  -1 -15 2.45097 0.94129   3
  -7  -1 -15 3.54993 1.01907   5
   7   1  15 3.89380 1.09001   6
   7   1  15 2.84990 1.07295   2
   4  -2 -15 19.5819 1.85117   3
  -4   2  15 19.4425 1.88225   6
   3  -2 -15 28.5715 2.05956   3
  -3   2  15 28.1159 2.06469   6
   2  -2 -15 0.99955 0.66277   3
  -2   2  15 1.03535 0.76832   6
   1  -2 -15 21.8526 1.64135   3
   1  -2 -15 18.0337 1.57234   5
  -1   2  15 17.8366 1.63308   6
  -1   2  15 17.2416 1.57897   2
   0  -2 -15 6.16376 1.04054   3
   0  -2 -15 4.03498 0.89084   5
   0   2  15 4.86195 0.98101   2
   0   2  15 5.44848 0.99449   6
  -1  -2 -15 6.96391 1.05500   3
  -1  -2 -15 6.91983 1.10331   5
   1   2  15 6.35203 1.10653   2
   1   2  15 5.57797 0.99232   6
  -2  -2 -15 2.04095 0.80621   5
  -2  -2 -15 0.45465 0.60828   3
   2   2  15 0.38233 0.72072   2
   2   2  15 0.15468 0.61677   6
  -3  -2 -15 77.1321 3.39844   5
  -3  -2 -15 77.9374 3.30591   3
   3   2  15 74.4886 3.48010   2
   3   2  15 76.6122 3.33391   6
  -4  -2 -15 9.93243 1.24928   3
  -4  -2 -15 12.1101 1.41563   5
   4   2  15 14.2682 1.57912   6
   4   2  15 10.2698 1.36776   2
  -5  -2 -15 40.6847 2.43444   5
  -5  -2 -15 44.1970 2.40566   3
   5   2  15 39.8589 2.44834   6
   5   2  15 37.5614 2.52065   2
  -6  -2 -15 0.45037 0.72818   3
  -6  -2 -15 0.24087 0.74135   5
   6   2  15 0.29569 0.80692   6
   6   2  15 0.55862 0.83457   2
  -7  -2 -15 7.91069 1.26240   3
  -7  -2 -15 9.33326 1.39829   5
   7   2  15 8.34422 1.38727   6
   7   2  15 7.55959 1.32648   2
   3  -3 -15 10.9431 1.41663   3
  -3   3  15 9.95045 1.43066   6
   2  -3 -15 -0.1564 0.59538   3
  -2   3  15 -0.2833 0.73398   6
   1  -3 -15 34.3982 2.15426   3
   1  -3 -15 38.0841 2.14862   5
  -1   3  15 38.6731 2.23476   2
  -1   3  15 36.6286 2.34074   6
   0  -3 -15 7.79651 1.09057   3
   0  -3 -15 10.5151 1.27356   5
   0   3  15 9.46906 1.25791   6
   0   3  15 7.82318 1.19157   2
  -1  -3 -15 47.6341 2.51092   3
  -1  -3 -15 44.6168 2.43595   5
   1   3  15 46.6324 2.56341   2
   1   3  15 47.8876 2.57619   6
  -2  -3 -15 349.985 10.5911   5
  -2  -3 -15 348.221 10.5464   3
   2   3  15 342.341 10.6099   6
   2   3  15 345.028 10.7111   2
  -3  -3 -15 10.1203 1.30316   5
  -3  -3 -15 12.0686 1.43908   3
   3   3  15 12.4024 1.48146   2
   3   3  15 10.4515 1.39348   6
  -4  -3 -15 95.7599 3.94241   5
  -4  -3 -15 96.0629 3.91667   3
   4   3  15 96.9326 4.13269   2
   4   3  15 93.4717 4.00003   6
  -5  -3 -15 -0.3090 0.62600   3
  -5  -3 -15 -0.9197 0.66371   5
   5   3  15 0.52961 0.78792   2
   5   3  15 -0.0569 0.72134   6
  -6  -3 -15 42.1949 2.55837   3
  -6  -3 -15 39.8616 2.46581   5
   6   3  15 42.6040 2.63053   6
   6   3  15 42.5405 2.65361   2
  -7  -3 -15 27.6478 2.42314   3
  -7  -3 -15 33.6475 2.28922   5
   7   3  15 23.8846 2.83079   6
   7   3  15 24.4551 2.22221   2
   3  -4 -15 2.74267 1.06908   3
  -3   4  15 2.29511 1.09596   6
   2  -4 -15 64.6940 3.15546   3
  -2   4  15 66.4217 3.31404   6
   1  -4 -15 83.8320 3.67691   3
  -1   4  15 89.5145 3.85674   6
   0  -4 -15 18.1338 1.60014   5
   0  -4 -15 17.2231 1.62702   3
   0   4  15 17.2234 1.75054   6
   0   4  15 17.0078 1.60937   2
  -1  -4 -15 302.186 9.35791   5
  -1  -4 -15 295.648 9.40015   3
   1   4  15 300.984 9.46899   2
   1   4  15 306.208 9.54776   6
  -2  -4 -15 57.5060 2.91451   3
  -2  -4 -15 59.1459 2.90431   5
   2   4  15 56.4842 2.94452   6
   2   4  15 60.7983 3.01770   2
  -3  -4 -15 7.63696 1.19173   3
  -3  -4 -15 9.40419 1.25527   5
   3   4  15 7.35435 1.21410   6
   3   4  15 9.80359 1.37345   2
  -4  -4 -15 90.3823 3.90631   5
  -4  -4 -15 103.048 4.06211   3
   4   4  15 101.790 4.16660   6
   4   4  15 85.5608 4.03217   2
  -5  -4 -15 62.5348 3.13949   5
  -5  -4 -15 64.7125 3.15037   3
   5   4  15 63.5168 3.25764   6
   5   4  15 63.1084 3.29086   2
  -6  -4 -15 16.9477 1.73734   5
  -6  -4 -15 21.9077 1.92313   3
   6   4  15 19.2520 1.97412   2
   6   4  15 19.8277 2.03185   6
   2  -5 -15 1.15059 0.82324   3
  -2   5  15 2.97392 1.07884   6
   1  -5 -15 221.897 7.44998   3
  -1   5  15 224.103 7.62969   6
   0  -5 -15 30.7054 2.01997   5
   0  -5 -15 29.9318 2.13871   3
   0   5  15 30.7743 2.28942   6
   0   5  15 31.4509 2.15650   2
  -1  -5 -15 654.723 19.0446   3
  -1  -5 -15 662.391 18.9709   5
   1   5  15 664.744 19.1143   2
   1   5  15 677.384 19.2451   6
  -2  -5 -15 48.1433 2.56288   5
  -2  -5 -15 39.5455 2.50604   3
   2   5  15 47.7165 2.73544   6
   2   5  15 43.9528 2.67708   2
  -3  -5 -15 25.1795 1.93838   5
  -3  -5 -15 25.2533 1.93261   3
   3   5  15 22.8219 2.02621   6
   3   5  15 23.9319 2.06826   2
  -4  -5 -15 120.905 4.79047   3
  -4  -5 -15 119.866 4.76456   5
   4   5  15 132.014 5.02810   6
   4   5  15 123.694 5.01045   2
  -5  -5 -15 1.70007 0.91512   5
  -5  -5 -15 2.85617 1.00116   3
   5   5  15 2.15152 1.04934   6
   5   5  15 3.53154 1.11598   2
  -6  -5 -15 67.2467 3.70951   5
  -6  -5 -15 73.6346 3.77798   3
   6   5  15 72.2490 4.00338   6
   6   5  15 67.8269 3.91171   2
  -1   6  15 25.0305 3.24104   6
   0  -6 -15 270.663 8.85402   3
   0   6  15 278.424 9.06091   6
  -1  -6 -15 111.556 4.41573   5
  -1  -6 -15 112.272 4.55326   3
   1   6  15 116.433 4.58184   2
   1   6  15 116.948 4.76703   6
  -2  -6 -15 5.57970 1.07050   5
  -2  -6 -15 5.90607 1.16564   3
   2   6  15 6.78977 1.24988   2
   2   6  15 5.39555 1.24732   6
  -3  -6 -15 12.2243 1.47700   5
  -3  -6 -15 9.90593 1.34350   3
   3   6  15 12.4352 1.58748   2
   3   6  15 12.8631 1.68934   6
  -4  -6 -15 54.7851 2.95761   5
   4   6  15 56.7516 3.08814   6
   4   6  15 52.4745 3.03955   2
  -5  -6 -15 2.48539 1.02685   3
  -5  -6 -15 3.19995 1.13709   5
   5   6  15 3.19554 1.09848   2
   5   6  15 3.19282 1.28621   6
  -1  -7 -15 198.615 6.77991   5
   1   7  15 201.855 6.94210   2
  -2  -7 -15 4.57790 1.07338   5
  -2  -7 -15 3.35015 1.11336   3
   2   7  15 4.06471 1.40544   6
   2   7  15 4.02757 1.06584   2
  -3  -7 -15 92.8687 4.60669   3
  -3  -7 -15 101.709 4.25258   5
   3   7  15 100.681 5.41671   6
   3   7  15 105.882 4.47450   2
  -3  -4  16 0.14611 1.51743   2
   2   4 -16 67.6022 3.49586   5
  -2  -4  16 75.9305 3.69255   2
   1   4 -16 58.0988 3.01111   5
  -1  -4  16 52.4639 3.20089   2
   0   4 -16 19.3415 1.85740   5
   0  -4  16 16.7518 1.87292   2
  -1   4 -16 1.92158 0.94117   5
   1  -4  16 1.91084 1.05192   2
  -2   4 -16 42.5879 2.77931   5
   2  -4  16 40.5655 2.90869   2
   2   3 -16 0.68334 0.76774   5
  -2  -3  16 1.71036 0.94320   2
   1   3 -16 4.14667 1.01682   5
  -1  -3  16 3.10964 1.10851   2
   0   3 -16 39.4812 2.41818   5
   0  -3  16 41.6301 2.63921   2
  -1   3 -16 4.91494 1.05992   5
   1  -3  16 4.35128 1.14933   2
  -2   3 -16 41.1501 2.55190   5
   2  -3  16 38.3474 2.64696   2
  -3   3 -16 16.3412 1.74239   5
   3  -3  16 13.0523 1.69584   2
  -4   3 -16 6.03916 1.33362   5
   4  -3  16 3.42821 1.25127   2
   2   2 -16 48.2282 2.53055   5
  -2  -2  16 41.7594 2.58560   2
   1   2 -16 1.14629 0.80983   5
  -1  -2  16 0.85377 0.87817   2
   0   2 -16 5.47691 1.09603   5
   0  -2  16 7.70688 1.31527   2
  -1   2 -16 1.60074 0.85083   5
   1  -2  16 0.65442 0.85869   2
  -2   2 -16 3.54535 1.03511   5
   2  -2  16 3.62329 1.06446   2
  -3   2 -16 9.74810 1.39678   5
   3  -2  16 8.11149 1.35438   2
  -4   2 -16 5.80529 1.20044   5
   4  -2  16 6.45557 1.30644   2
  -5   2 -16 10.0483 1.59147   5
   5  -2  16 10.3570 1.73445   2
   2   1 -16 0.23206 0.71015   5
  -2  -1  16 -0.4461 0.72018   2
   1   1 -16 1.29585 0.79551   5
  -1  -1  16 0.76271 0.82339   2
   0   1 -16 -0.8935 0.63798   5
   0  -1  16 0.02637 0.76615   2
  -1   1 -16 -0.1439 0.63640   5
   1  -1  16 1.12180 0.84722   2
  -2   1 -16 89.7371 3.84683   5
   2  -1  16 85.2871 3.95630   2
  -3   1 -16 0.64355 0.77233   5
   3  -1  16 0.06002 0.81480   2
  -4   1 -16 7.48202 1.24226   5
   4  -1  16 9.98839 1.51216   2
  -5   1 -16 8.74930 1.38263   5
   5  -1  16 7.43667 1.42448   2
   1   0 -16 0.87149 0.71718   5
  -1   0  16 0.57636 0.78416   2
   0   0 -16 37.8372 2.34176   5
   0   0 -16 44.0844 2.24822   3
   0   0  16 39.2362 2.44284   2
   0   0  16 36.4807 2.35218   6
  -1   0 -16 11.7710 1.42922   5
  -1   0 -16 8.70292 1.12355   3
   1   0  16 9.77677 1.40397   2
   1   0  16 10.5905 1.21757   6
  -2   0 -16 1.66848 0.87507   5
  -2   0 -16 2.17561 0.72804   3
   2   0  16 1.81432 0.73641   6
   2   0  16 1.99975 0.94590   2
  -3   0 -16 0.72943 0.64997   3
  -3   0 -16 -0.0907 0.76028   5
   3   0  16 0.15752 0.60810   6
   3   0  16 0.00322 0.84347   2
  -4   0 -16 95.9561 4.04077   5
  -4   0 -16 92.7727 3.79287   3
   4   0  16 94.3689 3.89543   6
   4   0  16 96.0920 4.25837   2
  -5   0 -16 34.3463 2.28208   5
  -5   0 -16 32.5204 2.07218   3
   5   0  16 31.1871 2.18733   6
   5   0  16 31.9102 2.41771   2
  -6   0 -16 101.265 4.13545   3
  -6   0 -16 107.084 5.11354   5
   6   0  16 91.1023 4.83267   2
   6   0  16 111.411 4.43567   6
   3  -1 -16 41.5014 2.42332   3
  -3   1  16 40.2016 2.50930   6
   2  -1 -16 150.778 5.36099   3
  -2   1  16 152.383 5.43710   6
   1  -1 -16 33.1011 2.09076   5
   1  -1 -16 30.2495 1.98567   3
  -1   1  16 29.3465 2.02395   6
  -1   1  16 29.7400 2.12431   2
   0  -1 -16 30.9371 1.98158   3
   0  -1 -16 36.3447 2.20654   5
   0   1  16 32.9789 2.04434   6
   0   1  16 26.9477 2.14035   2
  -1  -1 -16 6.57725 1.15520   5
  -1  -1 -16 6.60909 1.03459   3
   1   1  16 4.90754 0.95708   6
   1   1  16 5.46156 1.17124   2
  -2  -1 -16 1.27296 0.79459   5
  -2  -1 -16 1.16530 0.69164   3
   2   1  16 0.32375 0.80017   2
   2   1  16 1.28481 0.72629   6
  -3  -1 -16 359.961 10.9318   5
  -3  -1 -16 347.013 10.6559   3
   3   1  16 360.041 11.1190   2
   3   1  16 342.089 10.7322   6
  -4  -1 -16 22.4345 1.90905   5
  -4  -1 -16 18.3736 1.67235   3
   4   1  16 21.5533 1.82213   6
   4   1  16 20.3671 1.99317   2
  -5  -1 -16 7.49438 1.30104   5
  -5  -1 -16 6.68615 1.15863   3
   5   1  16 7.91213 1.36964   2
   5   1  16 6.86043 1.19874   6
  -6  -1 -16 2.99676 1.17031   5
  -6  -1 -16 1.59443 0.81858   3
   6   1  16 1.37125 0.93682   6
   6   1  16 0.67562 1.03685   2
   3  -2 -16 329.256 10.3857   3
  -3   2  16 335.638 10.4721   6
   2  -2 -16 1.73661 0.77383   3
  -2   2  16 1.38357 0.86492   6
   1  -2 -16 124.861 4.62808   3
   1  -2 -16 129.251 4.64256   5
  -1   2  16 115.517 4.55417   2
  -1   2  16 114.706 4.58488   6
   0  -2 -16 194.839 6.49780   5
   0  -2 -16 191.688 6.44911   3
   0   2  16 189.505 6.50521   6
   0   2  16 190.561 6.54830   2
  -1  -2 -16 32.1495 2.01148   3
  -1  -2 -16 24.8633 2.01793   5
   1   2  16 25.0130 1.89621   6
   1   2  16 26.7769 2.06256   2
  -2  -2 -16 218.846 7.20292   5
  -2  -2 -16 205.682 7.02385   3
   2   2  16 212.473 7.08679   6
   2   2  16 217.104 7.31589   2
  -3  -2 -16 36.7473 2.40561   5
   3   2  16 38.8053 2.37461   6
   3   2  16 38.4228 2.53355   2
  -4  -2 -16 17.2165 1.69644   3
  -4  -2 -16 16.4296 1.69133   5
   4   2  16 15.8675 1.67057   6
   4   2  16 18.2253 1.93236   2
  -5  -2 -16 34.8320 2.34869   5
  -5  -2 -16 32.7854 2.23502   3
   5   2  16 31.1155 2.27793   6
   5   2  16 34.6827 2.48790   2
  -6  -2 -16 61.4153 3.41264   5
  -6  -2 -16 54.3819 2.95641   3
   6   2  16 59.4265 3.14769   6
   6   2  16 53.2526 3.45281   2
   2  -3 -16 42.4641 2.47748   3
  -2   3  16 43.3600 2.60696   6
   1  -3 -16 9.62647 1.31296   3
  -1   3  16 9.62297 1.36164   6
   0  -3 -16 165.432 5.71637   5
   0  -3 -16 158.732 5.70627   3
   0   3  16 159.295 5.75216   2
   0   3  16 161.353 5.79863   6
  -1  -3 -16 14.9327 1.54958   3
  -1  -3 -16 13.7707 1.53901   5
   1   3  16 12.6598 1.49338   6
   1   3  16 13.9350 1.60306   2
  -2  -3 -16 430.380 12.7640   5
  -2  -3 -16 422.884 12.7015   3
   2   3  16 420.827 12.7560   6
   2   3  16 422.474 12.9169   2
  -3  -3 -16 53.7038 2.80040   5
   3   3  16 46.9744 2.74305   6
   3   3  16 47.6153 2.83694   2
  -4  -3 -16 5.38843 1.12624   3
  -4  -3 -16 4.99673 1.09585   5
   4   3  16 4.67573 1.16713   2
   4   3  16 3.37211 1.05463   6
  -5  -3 -16 93.2150 4.05730   5
  -5  -3 -16 96.0913 4.06985   3
   5   3  16 98.8202 4.33447   2
   5   3  16 97.0993 4.19806   6
  -6  -3 -16 10.0002 2.18340   3
   6   3  16 13.0586 2.42203   6
   1  -4 -16 187.196 6.58459   3
  -1   4  16 193.969 6.76179   6
   0  -4 -16 6.25916 1.15033   3
   0  -4 -16 5.95235 1.16356   5
   0   4  16 6.10050 1.16159   2
   0   4  16 7.16059 1.29117   6
  -1  -4 -16 118.773 4.63984   5
  -1  -4 -16 121.814 4.70354   3
   1   4  16 122.330 4.82602   6
   1   4  16 118.611 4.71527   2
  -2  -4 -16 165.962 5.80336   5
  -2  -4 -16 152.887 5.71176   3
   2   4  16 158.188 5.87321   2
   2   4  16 162.995 5.90441   6
  -3  -4 -16 -0.8631 0.73257   5
  -3  -4 -16 -0.4759 0.67304   3
   3   4  16 -1.8534 0.70922   6
   3   4  16 -0.4455 0.77353   2
  -4  -4 -16 105.047 4.38153   3
  -4  -4 -16 106.278 4.42432   5
   4   4  16 111.737 4.55539   6
   4   4  16 106.022 4.58994   2
  -5  -4 -16 33.4274 2.31522   3
  -5  -4 -16 33.4030 2.38333   5
   5   4  16 32.2004 2.41962   6
   5   4  16 32.2884 2.50804   2
   0  -5 -16 9.98752 1.40674   3
   0   5  16 10.0557 1.52778   6
  -1  -5 -16 -0.2132 0.71154   3
  -1  -5 -16 -0.0125 0.77026   5
   1   5  16 0.24824 0.87120   2
   1   5  16 0.40642 0.85483   6
  -2  -5 -16 167.560 6.17410   3
  -2  -5 -16 175.438 6.20577   5
   2   5  16 177.386 6.36387   2
   2   5  16 178.169 6.40408   6
  -3  -5 -16 31.9310 2.24324   5
  -3  -5 -16 29.9425 2.22425   3
   3   5  16 29.6632 2.40953   2
   3   5  16 29.1680 2.33525   6
  -4  -5 -16 95.6158 4.13434   5
   4   5  16 96.0474 4.34900   2
   4   5  16 91.8413 4.24306   6
  -1  -6 -16 225.349 7.50828   5
   1   6  16 223.445 7.59426   2
  -2  -6 -16 4.06092 1.05225   5
   2   6  16 2.54991 1.05589   2
  -3  -6 -16 129.941 5.33788   5
   3   6  16 121.630 5.12394   2
   2   2 -17 105.908 4.33618   5
  -2  -2  17 103.622 4.41567   2
   1   2 -17 102.126 4.13842   5
  -1  -2  17 90.4658 4.16630   2
   0   2 -17 24.6536 2.03015   5
   0  -2  17 21.7258 2.10511   2
  -1   2 -17 88.6964 3.91706   5
   1  -2  17 83.6702 4.00377   2
  -2   2 -17 8.43029 1.56141   5
   2  -2  17 10.1941 1.70265   2
   1   1 -17 108.885 4.41274   5
  -1  -1  17 107.391 4.50063   2
   0   1 -17 59.5637 3.08738   5
   0  -1  17 64.4524 3.36888   2
  -1   1 -17 50.6238 2.77961   5
   1  -1  17 42.9523 2.83436   2
  -2   1 -17 90.3876 4.00269   5
   2  -1  17 87.8715 4.15279   2
  -3   1 -17 -1.6779 0.75924   5
   3  -1  17 -1.0512 0.91604   2
   1   0 -17 16.3791 1.68522   5
  -1   0  17 11.9198 1.54614   2
   0   0 -17 179.245 6.26447   5
   0   0  17 173.620 6.34472   2
  -1   0 -17 138.300 5.16523   5
   1   0  17 128.240 5.23661   2
  -2   0 -17 12.2275 1.59338   5
   2   0  17 12.7109 1.70682   2
  -3   0 -17 289.058 9.19150   5
   3   0  17 272.227 9.31155   2
   3   0  17 281.024 9.80591   6
  -4   0 -17 7.54478 2.03427   5
  -4   0 -17 8.85419 1.29498   3
   4   0  17 8.60963 1.28622   6
   4   0  17 4.62636 1.63836   2
  -5   0 -17 6.24199 1.11263   3
   5   0  17 6.56623 1.23900   6
   2  -1 -17 1.46601 1.10670   3
   1  -1 -17 35.2499 2.31052   5
   1  -1 -17 34.3713 2.17198   3
  -1   1  17 33.6286 2.30172   2
  -1   1  17 32.1833 2.18305   6
   0  -1 -17 8.52448 1.32230   5
   0  -1 -17 9.51927 1.26389   3
   0   1  17 10.6809 1.33990   6
   0   1  17 10.4427 1.49968   2
  -1  -1 -17 198.324 6.65504   3
  -1  -1 -17 206.065 6.90061   5
   1   1  17 195.031 6.66563   6
   1   1  17 194.084 6.94409   2
  -2  -1 -17 0.36764 0.82233   5
  -2  -1 -17 0.86532 0.72694   3
   2   1  17 0.60699 0.89088   2
   2   1  17 0.79859 0.80020   6
  -3  -1 -17 243.945 8.12346   5
   3   1  17 245.276 8.34514   2
   3   1  17 241.890 7.96376   6
  -4  -1 -17 101.227 4.10533   3
  -4  -1 -17 97.4243 4.57123   5
   4   1  17 98.5306 4.15804   6
   4   1  17 95.0876 4.75079   2
  -5  -1 -17 1.64612 0.82628   3
   5   1  17 1.24166 0.90099   6
  -2   2  17 3.80274 1.58211   6
   1  -2 -17 12.5482 1.47516   3
  -1   2  17 14.2717 1.58218   6
   0  -2 -17 92.0543 3.78727   5
   0  -2 -17 82.1795 3.59732   3
   0   2  17 81.6541 3.69858   2
   0   2  17 80.1657 3.63835   6
  -1  -2 -17 1.30943 0.85395   5
  -1  -2 -17 2.29619 0.84063   3
   1   2  17 2.00741 0.95322   2
   1   2  17 2.61484 0.92828   6
  -2  -2 -17 191.039 6.56400   3
  -2  -2 -17 201.624 6.78349   5
   2   2  17 187.817 6.59399   6
   2   2  17 187.809 6.79424   2
  -3  -2 -17 290.782 9.38128   5
  -3  -2 -17 288.878 9.16970   3
   3   2  17 289.476 9.29031   6
   3   2  17 291.310 9.56666   2
  -4  -2 -17 -0.4746 0.78982   3
  -4  -2 -17 0.49620 0.97338   5
   4   2  17 -0.7850 0.93120   2
   4   2  17 -0.9801 0.73399   6
  -5  -2 -17 201.458 8.10135   3
   5   2  17 216.265 9.05272   6
   0  -3 -17 1.48418 0.83581   5
   0  -3 -17 -0.1778 0.65301   3
   0   3  17 0.63231 0.82472   6
   0   3  17 0.55321 0.80595   2
  -1  -3 -17 0.50054 0.76849   3
  -1  -3 -17 0.49430 0.77300   5
   1   3  17 1.35841 0.82631   6
   1   3  17 0.38977 0.79435   2
  -2  -3 -17 16.1356 1.73518   5
  -2  -3 -17 14.8991 1.61059   3
   2   3  17 17.6507 1.81542   6
   2   3  17 12.1213 1.64402   2
  -3  -3 -17 159.609 5.87732   3
  -3  -3 -17 169.653 6.06734   5
   3   3  17 160.417 5.98717   6
   3   3  17 171.531 6.25920   2
  -4  -3 -17 0.07203 0.82347   3
   4   3  17 -0.5924 0.89992   6
  -1  -4 -17 12.0387 1.49595   5
   1   4  17 10.3600 1.47688   2
  -2  -4 -17 297.967 9.39911   5
  -2  -4 -17 267.996 10.0305   3
   2   4  17 300.453 9.55751   2
   2   4  17 302.101 11.3679   6
  -3  -4 -17 8.81331 2.16197   5
   3   4  17 10.3390 2.31426   2
  -1  -5 -17 108.363 4.44036   5
   1   5  17 106.453 4.55779   2
  -1  -1 -18 49.9950 2.75199   3
  -2  -1 -18 2.17208 0.87736   3
   2   1  18 3.16675 0.96918   6
  -3  -1 -18 47.4566 2.71727   3
   3   1  18 41.6237 2.58982   6
   0   0   0    0.00    0.00   0

 _exptl_absorpt_process_details 'SADABS 2014/5'
 _exptl_absorpt_correction_type   multi-scan
 _exptl_absorpt_correction_T_max  0.7464
 _exptl_absorpt_correction_T_min  0.6539
 _exptl_special_details
)
 The following wavelength and cell were deduced by SADABS from the
 direction cosines etc. They are given here for emergency use only:
 CELL 0.71071    7.843    8.769   12.305   86.374   81.251   81.088
)

;
_shelx_hkl_checksum              39766
loop_
_space_group_symop_operation_xyz
'x, y, z'
'-x, -y, -z'
loop_
_atom_site_label
_atom_site_type_symbol
_atom_site_fract_x
_atom_site_fract_y
_atom_site_fract_z
_atom_site_U_iso_or_equiv
_atom_site_adp_type
_atom_site_occupancy
_atom_site_site_symmetry_order
_atom_site_calc_flag
_atom_site_refinement_flags_posn
_atom_site_refinement_flags_adp
C1 C -0.35025(13) 0.75735(11) 0.33270(8) 0.01558(17) Uani 1 1 d . .
C2 C -0.20045(13) 0.81652(11) 0.30147(8) 0.01581(17) Uani 1 1 d . .
C3 C -0.76069(14) 0.63359(13) 0.54031(9) 0.0210(2) Uani 1 1 d . .
H3A H -0.8269 0.7328 0.5646 0.032 Uiso 1 1 calc R U
H3B H -0.7017 0.5821 0.6005 0.032 Uiso 1 1 calc R U
H3C H -0.8404 0.5680 0.5197 0.032 Uiso 1 1 calc R U
C4 C -0.62782(13) 0.66097(11) 0.44253(8) 0.01645(18) Uani 1 1 d . .
C5 C -0.62311(13) 0.61866(11) 0.33909(8) 0.01636(18) Uani 1 1 d . .
C6 C -0.74742(15) 0.53173(13) 0.29590(10) 0.0215(2) Uani 1 1 d . .
H6A H -0.8107 0.5988 0.2437 0.032 Uiso 1 1 calc R U
H6B H -0.8305 0.4989 0.3575 0.032 Uiso 1 1 calc R U
H6C H -0.6823 0.4406 0.2583 0.032 Uiso 1 1 calc R U
C7 C 0.19315(13) 1.04781(12) 0.29954(8) 0.01679(18) Uani 1 1 d . .
H7 H 0.2239 1.0887 0.3626 0.020 Uiso 1 1 calc R U
C8 C 0.05919(13) 0.96434(11) 0.29791(8) 0.01561(17) Uani 1 1 d . .
C9 C 0.05947(13) 0.92558(11) 0.18749(8) 0.01494(17) Uani 1 1 d . .
C10 C 0.19364(13) 0.98693(11) 0.12294(8) 0.01569(17) Uani 1 1 d . .
H10 H 0.2247 0.9797 0.0453 0.019 Uiso 1 1 calc R U
C11 C 0.41977(12) 1.14124(11) 0.15978(8) 0.01481(17) Uani 1 1 d . .
C12 C 0.54490(13) 1.13693(11) 0.22922(8) 0.01647(18) Uani 1 1 d . .
H12 H 0.5344 1.0783 0.2971 0.020 Uiso 1 1 calc R U
C13 C 0.68547(13) 1.21762(11) 0.20036(8) 0.01663(18) Uani 1 1 d . .
H13 H 0.7705 1.2144 0.2484 0.020 Uiso 1 1 calc R U
C14 C 0.70113(13) 1.30308(11) 0.10081(8) 0.01570(17) Uani 1 1 d . .
C15 C 0.57606(13) 1.30605(12) 0.03074(8) 0.01820(18) Uani 1 1 d . .
H15 H 0.5873 1.3634 -0.0376 0.022 Uiso 1 1 calc R U
C16 C 0.43561(13) 1.22623(12) 0.05981(8) 0.01767(18) Uani 1 1 d . .
H16 H 0.3505 1.2294 0.0119 0.021 Uiso 1 1 calc R U
C17 C 0.96191(14) 1.38741(13) 0.13557(10) 0.0212(2) Uani 1 1 d . .
H17A H 1.0155 1.2813 0.1514 0.032 Uiso 1 1 calc R U
H17B H 0.9060 1.4349 0.2047 0.032 Uiso 1 1 calc R U
H17C H 1.0519 1.4474 0.0996 0.032 Uiso 1 1 calc R U
N1 N 0.27471(11) 1.06104(10) 0.19225(7) 0.01489(15) Uani 1 1 d . .
O1 O 0.83423(10) 1.38549(9) 0.06424(6) 0.02066(15) Uani 1 1 d . .
S1 S -0.46206(3) 0.76359(3) 0.46765(2) 0.01810(7) Uani 1 1 d . .
S2 S -0.45207(3) 0.67022(3) 0.24071(2) 0.01838(7) Uani 1 1 d . .
S3 S -0.10035(4) 0.90161(3) 0.39741(2) 0.02011(7) Uani 1 1 d . .
S4 S -0.09602(3) 0.81405(3) 0.16340(2) 0.01699(7) Uani 1 1 d . .
loop_
_atom_site_aniso_label
_atom_site_aniso_U_11
_atom_site_aniso_U_22
_atom_site_aniso_U_33
_atom_site_aniso_U_23
_atom_site_aniso_U_13
_atom_site_aniso_U_12
C1 0.0182(4) 0.0156(4) 0.0137(4) 0.0007(3) -0.0034(3) -0.0045(3)
C2 0.0178(4) 0.0162(4) 0.0143(4) 0.0005(3) -0.0036(3) -0.0044(3)
C3 0.0196(5) 0.0239(5) 0.0189(5) -0.0002(4) 0.0012(4) -0.0051(4)
C4 0.0163(4) 0.0166(4) 0.0169(4) 0.0003(3) -0.0024(3) -0.0042(3)
C5 0.0161(4) 0.0163(4) 0.0173(4) 0.0003(3) -0.0032(3) -0.0038(3)
C6 0.0201(5) 0.0230(5) 0.0235(5) -0.0031(4) -0.0054(4) -0.0068(4)
C7 0.0175(4) 0.0196(4) 0.0141(4) -0.0009(3) -0.0019(3) -0.0055(3)
C8 0.0164(4) 0.0176(4) 0.0132(4) 0.0002(3) -0.0019(3) -0.0041(3)
C9 0.0156(4) 0.0151(4) 0.0147(4) -0.0015(3) -0.0021(3) -0.0035(3)
C10 0.0170(4) 0.0162(4) 0.0143(4) -0.0018(3) -0.0021(3) -0.0035(3)
C11 0.0143(4) 0.0141(4) 0.0160(4) -0.0012(3) -0.0010(3) -0.0028(3)
C12 0.0169(4) 0.0152(4) 0.0175(4) 0.0019(3) -0.0039(3) -0.0027(3)
C13 0.0158(4) 0.0165(4) 0.0183(4) -0.0001(3) -0.0041(3) -0.0030(3)
C14 0.0151(4) 0.0154(4) 0.0162(4) -0.0022(3) 0.0005(3) -0.0031(3)
C15 0.0192(4) 0.0221(5) 0.0137(4) 0.0002(3) -0.0014(3) -0.0058(4)
C16 0.0172(4) 0.0226(5) 0.0141(4) -0.0003(3) -0.0031(3) -0.0050(3)
C17 0.0164(4) 0.0223(5) 0.0264(5) 0.0011(4) -0.0042(4) -0.0067(4)
N1 0.0145(3) 0.0162(4) 0.0144(4) -0.0011(3) -0.0016(3) -0.0041(3)
O1 0.0185(3) 0.0266(4) 0.0186(3) 0.0007(3) -0.0015(3) -0.0104(3)
S1 0.02133(12) 0.02107(13) 0.01360(12) -0.00122(9) -0.00183(9) -0.00886(9)
S2 0.02091(12) 0.02289(13) 0.01331(12) -0.00084(9) -0.00292(9) -0.00887(9)
S3 0.02199(13) 0.02829(14) 0.01254(12) -0.00068(9) -0.00139(9) -0.01259(10)
S4 0.01923(12) 0.01938(12) 0.01394(11) -0.00186(8) -0.00200(9) -0.00766(9)
loop_
_atom_type_symbol
_atom_type_description
_atom_type_scat_dispersion_real
_atom_type_scat_dispersion_imag
_atom_type_scat_source
C C 0.0033 0.0016 'International Tables Vol C Tables 4.2.6.8 and 6.1.1.4'
H H 0.0000 0.0000 'International Tables Vol C Tables 4.2.6.8 and 6.1.1.4'
N N 0.0061 0.0033 'International Tables Vol C Tables 4.2.6.8 and 6.1.1.4'
O O 0.0106 0.0060 'International Tables Vol C Tables 4.2.6.8 and 6.1.1.4'
S S 0.1246 0.1234 'International Tables Vol C Tables 4.2.6.8 and 6.1.1.4'
loop_
_geom_angle_atom_site_label_1
_geom_angle_atom_site_label_2
_geom_angle_atom_site_label_3
_geom_angle
C2 C1 S2 122.69(8)
C2 C1 S1 123.34(8)
S2 C1 S1 113.96(6)
C1 C2 S4 121.89(8)
C1 C2 S3 121.28(8)
S4 C2 S3 116.83(6)
C4 C3 H3A 109.5
C4 C3 H3B 109.5
H3A C3 H3B 109.5
C4 C3 H3C 109.5
H3A C3 H3C 109.5
H3B C3 H3C 109.5
C5 C4 C3 127.34(9)
C5 C4 S1 116.99(8)
C3 C4 S1 115.67(8)
C4 C5 C6 127.69(10)
C4 C5 S2 117.01(8)
C6 C5 S2 115.30(8)
C5 C6 H6A 109.5
C5 C6 H6B 109.5
H6A C6 H6B 109.5
C5 C6 H6C 109.5
H6A C6 H6C 109.5
H6B C6 H6C 109.5
C8 C7 N1 107.04(9)
C8 C7 H7 126.5
N1 C7 H7 126.5
C7 C8 C9 108.11(9)
C7 C8 S3 134.65(8)
C9 C8 S3 117.23(7)
C10 C9 C8 107.73(9)
C10 C9 S4 135.02(8)
C8 C9 S4 117.23(7)
C9 C10 N1 107.09(9)
C9 C10 H10 126.5
N1 C10 H10 126.5
C12 C11 C16 119.80(9)
C12 C11 N1 119.64(9)
C16 C11 N1 120.54(9)
C11 C12 C13 120.60(9)
C11 C12 H12 119.7
C13 C12 H12 119.7
C12 C13 C14 119.69(9)
C12 C13 H13 120.2
C14 C13 H13 120.2
O1 C14 C13 124.45(9)
O1 C14 C15 115.95(9)
C13 C14 C15 119.59(9)
C16 C15 C14 120.68(9)
C16 C15 H15 119.7
C14 C15 H15 119.7
C15 C16 C11 119.64(9)
C15 C16 H16 120.2
C11 C16 H16 120.2
O1 C17 H17A 109.5
O1 C17 H17B 109.5
H17A C17 H17B 109.5
O1 C17 H17C 109.5
H17A C17 H17C 109.5
H17B C17 H17C 109.5
C7 N1 C10 110.02(8)
C7 N1 C11 124.04(8)
C10 N1 C11 125.94(8)
C14 O1 C17 117.10(8)
C1 S1 C4 95.84(5)
C1 S2 C5 96.08(5)
C8 S3 C2 94.25(5)
C9 S4 C2 94.07(5)
loop_
_geom_bond_atom_site_label_1
_geom_bond_atom_site_label_2
_geom_bond_distance
C1 C2 1.3504(15)
C1 S2 1.7494(10)
C1 S1 1.7525(11)
C2 S4 1.7666(11)
C2 S3 1.7677(10)
C3 C4 1.4989(14)
C3 H3A 0.9800
C3 H3B 0.9800
C3 H3C 0.9800
C4 C5 1.3375(14)
C4 S1 1.7634(11)
C5 C6 1.4988(14)
C5 S2 1.7582(11)
C6 H6A 0.9800
C6 H6B 0.9800
C6 H6C 0.9800
C7 C8 1.3727(14)
C7 N1 1.3801(13)
C7 H7 0.9500
C8 C9 1.4163(14)
C8 S3 1.7395(11)
C9 C10 1.3761(14)
C9 S4 1.7441(10)
C10 N1 1.3811(13)
C10 H10 0.9500
C11 C12 1.3881(14)
C11 C16 1.3936(14)
C11 N1 1.4220(13)
C12 C13 1.3902(14)
C12 H12 0.9500
C13 C14 1.3913(14)
C13 H13 0.9500
C14 O1 1.3651(12)
C14 C15 1.3947(14)
C15 C16 1.3849(14)
C15 H15 0.9500
C16 H16 0.9500
C17 O1 1.4282(13)
C17 H17A 0.9800
C17 H17B 0.9800
C17 H17C 0.9800
loop_
_geom_torsion_atom_site_label_1
_geom_torsion_atom_site_label_2
_geom_torsion_atom_site_label_3
_geom_torsion_atom_site_label_4
_geom_torsion
S2 C1 C2 S4 1.19(13)
S1 C1 C2 S4 -177.66(5)
S2 C1 C2 S3 -179.24(5)
S1 C1 C2 S3 1.90(13)
C3 C4 C5 C6 -1.00(18)
S1 C4 C5 C6 -179.80(8)
C3 C4 C5 S2 178.89(8)
S1 C4 C5 S2 0.08(11)
N1 C7 C8 C9 0.17(11)
N1 C7 C8 S3 -179.55(9)
C7 C8 C9 C10 -0.31(11)
S3 C8 C9 C10 179.46(7)
C7 C8 C9 S4 178.34(7)
S3 C8 C9 S4 -1.88(11)
C8 C9 C10 N1 0.33(11)
S4 C9 C10 N1 -177.98(8)
C16 C11 C12 C13 0.47(15)
N1 C11 C12 C13 -178.40(9)
C11 C12 C13 C14 -0.19(15)
C12 C13 C14 O1 -179.55(9)
C12 C13 C14 C15 -0.40(15)
O1 C14 C15 C16 179.94(9)
C13 C14 C15 C16 0.72(15)
C14 C15 C16 C11 -0.44(16)
C12 C11 C16 C15 -0.15(15)
N1 C11 C16 C15 178.70(9)
C8 C7 N1 C10 0.03(11)
C8 C7 N1 C11 179.46(9)
C9 C10 N1 C7 -0.23(11)
C9 C10 N1 C11 -179.64(9)
C12 C11 N1 C7 35.94(14)
C16 C11 N1 C7 -142.92(10)
C12 C11 N1 C10 -144.73(10)
C16 C11 N1 C10 36.41(14)
C13 C14 O1 C17 -2.26(14)
C15 C14 O1 C17 178.56(9)
C2 C1 S1 C4 -177.68(9)
S2 C1 S1 C4 3.37(6)
C5 C4 S1 C1 -2.11(9)
C3 C4 S1 C1 178.94(8)
C2 C1 S2 C5 177.70(9)
S1 C1 S2 C5 -3.34(6)
C4 C5 S2 C1 1.99(9)
C6 C5 S2 C1 -178.10(8)
C7 C8 S3 C2 177.53(11)
C9 C8 S3 C2 -2.17(9)
C1 C2 S3 C8 -174.04(9)
S4 C2 S3 C8 5.55(7)
C10 C9 S4 C2 -177.00(11)
C8 C9 S4 C2 4.81(8)
C1 C2 S4 C9 173.26(9)
S3 C2 S4 C9 -6.32(6)
