#------------------------------------------------------------------------------
#$Date: 2016-04-05 18:34:15 +0300 (Tue, 05 Apr 2016) $
#$Revision: 181620 $
#$URL: svn://www.crystallography.net/cod/cif/7/22/39/7223940.cif $
#------------------------------------------------------------------------------
#
# This file is available in the Crystallography Open Database (COD),
# http://www.crystallography.net/
#
# All data on this site have been placed in the public domain by the
# contributors.
#
data_7223940
loop_
_publ_author_name
'Tsuboi, Chiaki'
'Aburaya, Kazuaki'
'Kimura, Fumiko'
'Maeyama, Masataka'
'Kimura, Tsunehisa'
_publ_section_title
;
 Single-crystal structure determination from microcrystalline powders
 (\sim 5 \mm) by an orientation attachment mountable on an in-house X-ray
 diffractometer
;
_journal_issue                   14
_journal_name_full               CrystEngComm
_journal_page_first              2404
_journal_paper_doi               10.1039/C5CE02307F
_journal_volume                  18
_journal_year                    2016
_chemical_absolute_configuration 'CHOOSE rm ad rmad syn or unk'
_chemical_formula_moiety         'C3 H7 N O2'
_chemical_formula_sum            'C3 H7 N O2'
_chemical_formula_weight         89.09
_chemical_name_systematic        L-alanine
_space_group_crystal_system      orthorhombic
_space_group_IT_number           19
_space_group_name_Hall           'P 2ac 2ab'
_space_group_name_H-M_alt        'P 21 21 21'
_symmetry_space_group_name_Hall  'P 2ac 2ab'
_symmetry_space_group_name_H-M   'P 21 21 21'
_atom_sites_solution_hydrogens   geom
_atom_sites_solution_primary     direct
_atom_sites_solution_secondary   difmap
_audit_update_record
;
2015-10-04 deposited with the CCDC.
2016-01-19 downloaded from the CCDC.
;
_cell_angle_alpha                90.0000
_cell_angle_beta                 90.0000
_cell_angle_gamma                90.0000
_cell_formula_units_Z            4
_cell_length_a                   5.7772(15)
_cell_length_b                   6.0350(17)
_cell_length_c                   12.316(3)
_cell_measurement_reflns_used    1522
_cell_measurement_temperature    296
_cell_measurement_theta_max      25.40
_cell_measurement_theta_min      3.52
_cell_volume                     429.40(19)
_computing_cell_refinement       'RAPID AUTO'
_computing_data_collection       'RAPID AUTO (Rigaku, ????)'
_computing_data_reduction        'RAPID AUTO'
_computing_molecular_graphics    'CrystalStructure 4.1'
_computing_publication_material  'CrystalStructure 4.1 (Rigaku, 2014)'
_computing_structure_refinement  'SHELXL2013 (Sheldrick, 2008)'
_computing_structure_solution    'SIR2011 (Burla, et al., 2012)'
_diffrn_ambient_temperature      296
_diffrn_detector_area_resol_mean 10.000
_diffrn_measured_fraction_theta_full 0.851
_diffrn_measured_fraction_theta_max 0.838
_diffrn_measurement_device_type  'Rigaku R-AXIS RAPID'
_diffrn_measurement_method       \w
_diffrn_radiation_type           'Mo K\a'
_diffrn_radiation_wavelength     0.71075
_diffrn_reflns_av_R_equivalents  0.0923
_diffrn_reflns_Laue_measured_fraction_full 0.851
_diffrn_reflns_Laue_measured_fraction_max 0.838
_diffrn_reflns_limit_h_max       6
_diffrn_reflns_limit_h_min       -6
_diffrn_reflns_limit_k_max       6
_diffrn_reflns_limit_k_min       -6
_diffrn_reflns_limit_l_max       13
_diffrn_reflns_limit_l_min       -13
_diffrn_reflns_number            3242
_diffrn_reflns_point_group_measured_fraction_full 0.864
_diffrn_reflns_point_group_measured_fraction_max 0.851
_diffrn_reflns_theta_full        25.242
_diffrn_reflns_theta_max         25.655
_diffrn_reflns_theta_min         3.760
_diffrn_standards_number         0
_exptl_absorpt_coefficient_mu    0.115
_exptl_absorpt_correction_T_max  0.989
_exptl_absorpt_correction_T_min  0.342
_exptl_absorpt_correction_type   multi-scan
_exptl_absorpt_process_details   'ABSCOR (Rigaku, 1995)'
_exptl_crystal_colour            colorless
_exptl_crystal_density_diffrn    1.378
_exptl_crystal_density_method    'not measured'
_exptl_crystal_description
'microcrystalline powder suspension (under 5 micrometer)'
_exptl_crystal_F_000             192.00
_exptl_crystal_size_max          0.100
_exptl_crystal_size_mid          0.100
_exptl_crystal_size_min          0.100
_refine_diff_density_max         0.37
_refine_diff_density_min         -0.32
_refine_ls_abs_structure_details
;
 Flack x determined using 169 quotients [(I+)-(I-)]/[(I+)+(I-)]
 (Parsons and Flack (2004), Acta Cryst. A60, s61).
;
_refine_ls_abs_structure_Flack   2.7(10)
_refine_ls_extinction_method     none
_refine_ls_goodness_of_fit_ref   1.060
_refine_ls_hydrogen_treatment    constr
_refine_ls_number_parameters     55
_refine_ls_number_reflns         684
_refine_ls_number_restraints     0
_refine_ls_R_factor_all          0.1246
_refine_ls_R_factor_gt           0.0991
_refine_ls_shift/su_max          0.000
_refine_ls_structure_factor_coef Fsqd
_refine_ls_weighting_details
'w = 1/[\s^2^(Fo^2^)+(0.1745P)^2^+0.5297P] where P=(Fo^2^+2Fc^2^)/3'
_refine_ls_weighting_scheme      calc
_refine_ls_wR_factor_gt          0.2703
_refine_ls_wR_factor_ref         0.3083
_reflns_number_gt                506
_reflns_number_total             684
_reflns_threshold_expression     F^2^>2.0\s(F^2^)
_cod_data_source_file            c5ce02307f2.cif
_cod_data_source_block           20150717_alanine_0_5_moms
_cod_depositor_comments
'Adding full bibliography for 7223939--7223940.cif.'
_cod_original_cell_volume        429.4(2)
_cod_database_code               7223940
_shelxl_res_file
;
TITL 20150717_alanine_0_5_moms
CELL  0.71075 5.77718 6.03498 12.31550 90.00000 90.00000 90.00000
ZERR  4 0.00146 0.00173 0.00310 0.00000 0.00000 0.00000
LATT -1
SYMM .50+X, .50-Y,    -Z
SYMM    -X, .50+Y, .50-Z
SYMM .50-X,    -Y, .50+Z
SFAC C O N H
UNIT 12 8 4 28
L.S. 5
FMAP 2
PLAN -21
WPDB -2
HTAB
BOND $H
CONF
LIST 4
TEMP 23.0
ACTA
SIZE 0.100 0.100 0.100
WGHT    0.174500    0.529700
FVAR       2.03709
O1    2    0.371287    0.271280    0.084187    11.00000    0.04659    0.11019 =
         0.06665   -0.01036   -0.00278   -0.00479
O2    2    0.238749    0.551159    0.185741    11.00000    0.05149    0.09909 =
         0.06940   -0.00909    0.00597    0.00329
N1    3    0.812061    0.343275    0.138723    11.00000    0.03848    0.10303 =
         0.06283   -0.00091    0.00240   -0.00842
AFIX  33
H1A   4    0.954600    0.394270    0.149997    11.00000   -1.20000
H1B   4    0.784952    0.229738    0.183055    11.00000   -1.20000
H1C   4    0.798670    0.298550    0.070147    11.00000   -1.20000
AFIX   0
C1    1    0.643395    0.520584    0.160163    11.00000    0.04998    0.08604 =
         0.05158   -0.00872   -0.00602   -0.00143
AFIX  13
H1    4    0.657709    0.563375    0.236631    11.00000   -1.20000
AFIX   0
C2    1    0.700911    0.723608    0.090626    11.00000    0.05581    0.08550 =
         0.07334    0.00721   -0.00174   -0.00715
AFIX  33
H2A   4    0.590472    0.838859    0.104864    11.00000   -1.20000
H2B   4    0.853499    0.775362    0.108221    11.00000   -1.20000
H2C   4    0.694819    0.683878    0.015200    11.00000   -1.20000
AFIX   0
C3    1    0.396087    0.438518    0.141541    11.00000    0.04941    0.09127 =
         0.04324   -0.00057    0.00211   -0.00856
HKLF 4
 
REM  20150717_alanine_0_5_moms
REM R1 =  0.0991 for     506 Fo > 4sig(Fo)  and  0.1246 for all     684 data
REM     55 parameters refined using      0 restraints
 
END  
     
WGHT      0.1762      0.4722 

REM Instructions for potential hydrogen bonds
EQIV $1 x+1, y, z
HTAB N1 O1_$1
HTAB N1 O2_$1
EQIV $2 -x+1, y-1/2, -z+1/2
HTAB N1 O2_$2
EQIV $3 x+1/2, -y+1/2, -z
HTAB N1 O1_$3
EQIV $4 -x+1, y+1/2, -z+1/2
HTAB C1 O1_$4

REM Highest difference peak  0.373,  deepest hole -0.319,  1-sigma level  0.084
Q1    1   0.5734  0.9708  0.0161  11.00000  0.05    0.29
Q2    1   0.1312  0.6407  0.1299  11.00000  0.05    0.23
Q3    1   0.5718  0.0933  0.1389  11.00000  0.05    0.23
Q4    1   0.6488  0.5917  0.1428  11.00000  0.05    0.22
Q5    1   0.1379  1.0557  0.1763  11.00000  0.05    0.21
Q6    1   0.2998  0.4477  0.0316  11.00000  0.05    0.21
Q7    1   0.1753  0.7560  0.2423  11.00000  0.05    0.21
Q8    1   0.1365  0.6070  0.0773  11.00000  0.05    0.19
Q9    1   0.4731  0.3159  0.0444  11.00000  0.05    0.19
Q10   1   0.9630  0.0936  0.1434  11.00000  0.05    0.18
Q11   1   0.0779  1.0367  0.0820  11.00000  0.05    0.18
Q12   1   0.9427  0.0502  0.1719  11.00000  0.05    0.18
Q13   1   0.9238  0.5440  0.0780  11.00000  0.05    0.17
Q14   1   0.0932  0.3617  0.0206  11.00000  0.05    0.17
Q15   1   0.9018  0.9582  0.1088  11.00000  0.05    0.17
Q16   1   0.1086  0.3109  0.0191  11.00000  0.05    0.17
Q17   1   0.3282  0.7452  0.1970  11.00000  0.05    0.17
Q18   1   1.0182  0.2314  0.2232  11.00000  0.05    0.16
Q19   1   0.5560  0.7872  0.2262  11.00000  0.05    0.16
Q20   1   0.7348  0.6094  0.0347  11.00000  0.05    0.16
Q21   1   0.3782  0.7917  0.1838  11.00000  0.05    0.16
;
_shelxl_hkl_file
;
   0   1  -1 1123.95  137.15
   0  -1   1 1059.50  125.16
   0   1   1  991.75  122.69
   0  -1  -1  998.77  125.53
   0  -1   218934.90 7335.07
   0   1  -219650.76 7843.02
   0  -1  -218458.44 7452.58
   0   1   219067.65 7589.03
   0  -1  -3  334.64   16.67
   0   1  -3  476.47   31.98
   0  -1   3  329.79   15.00
   0   1   3  458.68   30.42
   0  -1   4 4385.90  445.20
   0   1  -4 4257.33  470.81
   0  -1  -4 4522.78  502.10
   0   1   4 4511.64  464.14
   0  -1  -5  721.92   40.15
   0   1  -5  698.01   38.16
   0   1   5  732.35   36.51
   0  -1   5  692.12   34.57
   0   1  -6   57.60    6.02
   0  -1  -6   68.89    6.49
   0   1   6   77.28    5.84
   0  -1   6   63.68    5.74
   0  -1   7   70.02    3.86
   0   1  -7   47.43    4.91
   0   1   7   86.57    5.41
   0  -1   7   64.32    6.40
   0  -1  -7   56.27    3.37
   0  -1  -7   64.95    6.41
   0   2   0   74.68   15.47
   0  -2   0   61.14   15.08
   0  -2   1   98.70   17.80
   0  -2  -1   94.44   17.31
   0   2   1   97.28    9.32
   0   2  -1  101.17    9.66
   0   2  -2 3975.96  430.86
   0  -2  -2 4371.29  616.30
   0  -2   2 4623.95  604.58
   0   2   2 3862.46  419.97
   0   2   3 1078.13   59.88
   0   2  -3 1055.28   62.43
   0  -2  -3 1025.06   59.78
   0  -2   3 1053.27   54.95
   0   2   4  169.77   20.97
   0  -2   4  169.46   18.79
   0   2  -4  211.96   21.87
   0  -2  -4  156.32   21.19
   0   2  -5  280.76   29.64
   0   2   5  295.12   28.53
   0  -2   5  306.15   27.82
   0  -2  -5  291.09   31.65
   0  -2  -6 3730.31  511.37
   0   2   6 3931.75  459.48
   0   2  -6 3855.20  474.80
   0  -2   6 3684.48  451.53
   0  -2  -7  213.73   21.11
   0  -2   7  215.23   19.87
   0   2  -7  136.34   18.45
   0   2   7  182.63   19.45
   0   2  -8    5.93    7.24
   0  -2  -8    2.88    8.43
   0   2   8    9.68    7.87
   0  -2   8    7.71    7.93
   0  -2   9  232.30   19.26
   0  -2  -9  247.32   21.28
   0   2   9  273.61   22.26
   0   2  -9  177.51   14.73
   0  -2  10  165.80   11.57
   0  -2 -10   66.73   12.45
   0  -2 -10  136.69   11.14
   0   2 -10   70.00   10.61
   0   2  10  154.93   12.03
   0  -2  10  131.24    9.63
   0  -3   0    8.59    5.76
   0   3   0    8.58    5.99
   0  -3  -1   50.95    7.50
   0   3  -1   50.99    8.16
   0  -3   1   43.67    7.89
   0   3   1   46.04    7.96
   0  -3  -2   -3.94    5.47
   0   3  -2    4.37    5.90
   0  -3   2   -4.92    5.36
   0   3   2   -0.44    5.77
   0  -3  -3   20.20    6.40
   0  -3   3   37.77    5.94
   0   3   3   20.39   12.69
   0   3  -3   27.65   13.15
   0  -3   4 1001.36  108.74
   0   3  -4 1121.44  123.47
   0   3   4 1093.34  122.32
   0  -3  -4  927.54  119.04
   0   3  -5  130.79   11.17
   0  -3  -5   57.36   22.61
   0   3   5  131.83   10.85
   0  -3   5  140.53   20.25
   0   3   6   53.05   14.90
   0   3  -6   49.18   15.16
   0  -3   6   60.15    8.09
   0  -3  -6   56.64    8.89
   0  -3   7  276.21   30.19
   0  -3  -7  185.88   33.04
   0   3   7  136.63   29.61
   0   3  -7  165.94   28.43
   0   3  -8   53.48    7.97
   0   3   8   42.73    8.31
   0  -3   8   49.82   16.19
   0  -3  -8   54.61   18.18
   0  -3   9   11.73   11.73
   0  -3  -9   24.39   13.79
   0   3  -9   20.97   11.31
   0   3   9   15.44   12.22
   0  -3  10   -0.97    5.59
   0   3 -10    6.97    9.32
   0  -3 -10    0.40    4.02
   0  -3  10   10.66    7.89
   0   3  10    7.08   10.22
   0  -3 -10   13.99    9.62
   0  -3 -11   63.38   11.79
   0  -3 -11   36.00    7.38
   0   3 -11   50.67   12.02
   0  -3  11   54.13    9.05
   0   3  11   46.85    8.93
   0  -3  11   54.24   10.77
   0  -3  12    0.40    5.39
   0  -3 -12    1.24    4.41
   0  -3 -12    3.65    6.91
   0   3 -12   -4.66    9.08
   0   3  12   -2.13   10.66
   0  -3  12   -5.94   10.19
   0  -4   0  628.17   86.67
   0   4   0  700.63   87.47
   0   4   1  354.28   49.35
   0   4  -1  358.43   50.74
   0  -4  -1  332.61   48.48
   0  -4   1  328.80   50.15
   0  -4   2  -20.59   13.76
   0   4   2  -22.90   14.20
   0  -4  -2   -9.18   14.00
   0   4  -2  -30.65   14.73
   0   4  -3  -31.07   13.87
   0  -4   3  -12.87   12.88
   0   4   3   -0.14   13.58
   0  -4  -3   -2.60   13.42
   0   4   4   25.92    7.86
   0  -4  -4   12.28   16.42
   0  -4   4   28.02   15.19
   0   4  -4   22.27    7.97
   0  -4   5   12.37    7.40
   0  -4  -5    8.49    8.15
   0   4   5    8.06    7.29
   0   4  -5    8.75    7.38
   0  -4   6   44.30    9.47
   0  -4  -6   43.13   10.64
   0   4   6   28.44   17.69
   0   4  -6   29.04   17.73
   0  -4   7   34.10   16.51
   0  -4  -7   30.61   18.67
   0   4  -7   17.63   16.04
   0   4   7   27.83   16.52
   0   4   8   58.23    9.14
   0  -4   8   34.28   16.82
   0  -4  -8   59.17   19.61
   0   4  -8   41.99    8.60
   0  -4  -9   13.85    7.81
   0  -4   9   12.84    6.37
   0   4  -9    8.85   12.37
   0   4   9   15.63   13.45
   0   4 -10   14.86   12.12
   0   4  10   22.14   13.32
   0  -4  11   -0.09    7.31
   0  -4 -11    7.90    5.63
   0   4  11    3.78   11.86
   0  -4  11    0.82    4.40
   0   4 -11   -2.28   10.87
   0  -4 -11   -5.80    6.08
   0   4 -12   29.90    5.22
   0  -4 -12   57.89   14.91
   0  -4  12   66.39    7.55
   0  -4 -12   47.51   10.96
   0   4  12   38.78   10.72
   0  -4  12   40.58   10.62
   0   5   0   -2.28    7.34
   0  -5   0   -0.54   15.28
   0   5  -1    2.61    7.79
   0   5   1    6.39    7.58
   0  -5   1  -13.34   16.25
   0  -5  -1   -0.26   16.03
   0  -5  -2   44.66   23.31
   0   5   2   55.52   11.11
   0  -5   2   54.07   23.18
   0   5  -2   63.67   11.36
   0  -5   3   51.80   11.16
   0   5  -3   51.66   10.66
   0  -5  -3   47.97   11.74
   0   5   3   44.24   10.59
   0  -5   4   -2.77    7.79
   0   5   4    5.84    7.40
   0   5  -4    7.96    7.42
   0  -5  -4    3.08    8.30
   0   5  -5   13.30   15.17
   0   5   5   25.95   15.17
   0  -5  -5   13.19    9.03
   0  -5   5   27.33    8.22
   0   5   6   -6.74   12.97
   0   5  -6   -2.92   12.84
   0  -5   6    0.17   13.41
   0  -5  -6   -8.16   15.24
   0   5   7   -3.62   14.00
   0  -5  -7   -4.60   15.64
   0   5  -7  -18.52   13.45
   0  -5   7   -5.73   13.42
   0   5  -8    3.38    6.63
   0   5   8    9.72    7.13
   0  -5   8    1.94   12.44
   0  -5  -8    9.73   15.25
   0   5  -9   -7.64   12.20
   0   5   9   -1.22   13.27
   0  -5   9    4.92    6.02
   0  -5  -9   -2.91    7.79
   0   5  10   16.87   14.12
   0  -5  10    2.29   12.44
   0  -5 -10   12.67   16.54
   0   5 -10   13.74   13.06
   0  -5 -11   -1.36    8.89
   0  -5 -11  -12.35   14.54
   0  -5  11    4.44   10.85
   0   5 -11    6.41    6.47
   0  -6   0    6.29    6.10
   0   6   0    1.26    6.36
   0   6  -1    4.78    6.86
   0   6   1   -6.41    6.69
   0  -6  -1    2.05    6.45
   0  -6   1   27.43    6.48
   0  -6   2    4.84    6.18
   0  -6  -2    4.75    6.39
   0   6   2   -7.42   12.42
   0   6  -2   -4.26   12.85
   0  -6  -3   11.51    6.43
   0   6   3   -5.58   12.75
   0  -6   3    1.04    6.15
   0   6  -3    6.17   12.84
   0  -6   4   -1.23    5.75
   0   6  -4    6.63   12.38
   0  -6  -4    5.38   11.94
   0   6   4    9.37   12.27
   0  -6  -5  -29.00   11.92
   0  -6   5   12.61   10.84
   0   6   5   -6.00   12.54
   0   6  -5    9.37   12.64
   0   6  -6   34.05   14.09
   0   6   6   19.02   14.20
   0  -6  -6   10.79   13.33
   0  -6   6   19.18   11.60
   0  -6   7   -3.08    9.93
   0  -6  -7  -11.26   11.89
   0   6  -7    3.12    6.43
   0   6   7    6.19    6.70
   0  -6   8   -9.64    5.50
   0   6   8    3.63    7.25
   0  -6  -8  -19.42    6.81
   0   6  -8   -0.97    6.78
   1   0   0   42.43    6.79
  -1   0   0  105.72   14.41
  -1   0  -1 3281.83  378.83
   1   0  -1 2237.54  204.43
  -1   0   1 3240.67  369.83
   1   0   1 2280.66  199.63
   1   0  -2  424.02   55.12
  -1   0  -2  461.11   58.34
   1   0   2  431.20   53.76
  -1   0   2  467.81   55.83
   1   0   3 2678.49  232.39
  -1   0  -3 2392.26  214.88
  -1   0  -3 1741.93  143.96
  -1   0   3 2363.26  206.28
   1   0  -3 2512.04  240.77
  -1   0   4  313.57   20.27
  -1   0  -4  299.07   21.63
   1   0   4  290.32   18.29
   1   0  -4  286.90   19.49
  -1   0   4  304.96   20.42
  -1   0  -4  277.63   19.80
  -1   0   5   -0.54    4.46
   1   0  -5   -0.65    4.06
  -1   0  -5   -5.07    4.61
  -1   0   5   -3.87    4.92
  -1   0  -5   -4.63    4.74
   1   0   5   -1.68    5.78
   1   0   6 1561.86  102.95
  -1   0  -6 1194.79   74.55
   1   0  -6 1435.15  103.02
  -1   0   6 1174.59   69.28
  -1   0  -6 1443.40  109.61
  -1   0   6 1571.22  107.92
  -1   0  -7   38.77    5.72
  -1   0   7   24.21    5.50
  -1   0  -7   35.44    5.54
   1   0   7   20.89    3.68
  -1   1   0  202.63   20.85
  -1  -1   0  285.11   52.38
   1   1   0  150.05   23.75
  -1  -1   0  366.95   36.58
   1  -1   0  160.90   23.98
   1   1   0  187.73   19.15
   1   1   1  261.22   37.31
  -1  -1   1  495.88   59.16
   1   1   1  474.23   58.19
   1  -1  -1  389.73   36.22
  -1  -1   1  372.42   38.46
  -1   1  -1  414.14   32.42
   1   1  -1  485.97   59.07
  -1  -1  -1  380.89   39.95
  -1  -1  -1  487.10   57.56
   1  -1   1  416.91   37.29
   1   1  -1  248.31   36.34
  -1   1   1  437.44   34.57
  -1  -1   2  550.59   55.94
  -1  -1   2  387.98   30.19
   1   1   2  416.11   43.70
  -1   1  -2  449.97   47.32
   1  -1  -2  379.14   29.00
   1  -1   2  421.42   28.41
   1   1  -2  414.89   45.17
  -1  -1  -2  544.37   56.67
  -1  -1  -2  383.98   31.03
  -1   1   2  467.54   47.98
   1  -1  -3 3674.14  456.25
  -1  -1   3 3772.73  441.17
  -1  -1   3 3566.83  436.76
   1   1   3 3636.42  447.16
   1  -1   3 3821.54  432.02
   1   1  -3 3588.70  457.56
  -1  -1  -3 3450.56  459.72
  -1  -1  -3 3123.30  292.08
  -1  -1   4  471.22   36.46
   1  -1  -4  439.41   38.10
   1   1   4  522.62   38.45
  -1  -1   4  520.12   36.80
  -1   1  -4  421.21   35.48
   1  -1   4  457.38   34.25
  -1  -1  -4  508.30   37.54
  -1  -1  -4  461.96   39.76
  -1   1   4  430.91   33.98
   1   1  -4  505.67   38.62
   1  -1  -5 1255.64   95.16
  -1  -1   5 1120.18   77.01
  -1   1  -5 1209.77   89.88
  -1  -1   5 1115.00   85.03
   1   1   5 1157.67   83.59
  -1   1   5 1155.76   81.95
  -1  -1  -5 1143.82   95.40
   1  -1   5 1246.77   84.05
   1   1  -5 1085.59   84.19
  -1  -1  -5 1069.66   79.30
  -1   1  -6   30.36    7.24
  -1  -1   6   25.34    6.62
  -1  -1   6   33.11    6.03
   1   1   6   37.63    6.76
   1  -1  -6   33.45    8.29
  -1  -1  -6   26.99    7.39
  -1  -1  -6   31.23    6.94
   1   1  -6   30.84    6.63
  -1   1   6   25.43    9.65
   1  -1   6   29.96   10.76
   1  -1  -7  610.58   46.19
  -1  -1   7  609.44   34.12
  -1   1  -7  631.54   48.03
  -1  -1   7  584.20   33.40
   1  -1   7  498.93   29.24
  -1  -1  -7  604.80   34.21
  -1  -1  -7  590.94   34.99
  -1   1   7  524.47   32.07
   1  -1  -8  273.46   19.23
  -1  -1   8  293.57   21.30
  -1   1  -8  295.91   21.34
  -1  -1   8  237.92   13.15
  -1   1   8  294.51   21.51
   1  -1   8  278.28   18.95
  -1  -1  -8  239.16   13.24
  -1  -1  -8  301.15   21.55
   1  -1   9  229.44   11.02
  -1   2   0    9.87    5.18
  -1  -2   0   -8.79    5.25
   1   2   0    8.49   10.51
   1  -2   0  -12.90   11.77
   1  -2  -1   96.26   17.86
  -1   2  -1   78.04    8.74
  -1  -2   1   77.96    8.90
   1   2   1   81.10   17.45
   1   2  -1  120.33   18.16
   1  -2   1  106.66   18.49
  -1  -2  -1   80.29    8.90
  -1   2   1   83.89    9.16
  -1   2  -2  876.82   76.63
   1  -2  -2  757.79   73.76
   1   2   2  719.31   43.58
  -1  -2   2  692.44   41.44
   1   2  -2  744.53   44.79
  -1  -2  -2  663.29   42.87
  -1   2   2  616.08   41.33
   1  -2  -3 1126.69  115.24
  -1   2  -3 1256.73  119.07
  -1  -2   3  976.49   62.82
   1   2   3 1003.53   68.04
  -1   2   3 1222.47  115.41
   1  -2   3 1175.73  107.09
   1   2  -3  992.83   68.85
  -1  -2  -3 1125.70  119.44
  -1   2  -4  465.32   44.09
   1  -2  -4  342.07   24.23
   1   2   4  524.98   49.24
  -1  -2   4  463.24   41.69
  -1   2   4  434.37   41.41
   1  -2   4  363.06   22.02
   1   2  -4  536.69   49.86
  -1  -2  -4  417.55   46.56
   1   2   5  743.30   57.28
  -1  -2   5  913.12   67.30
  -1  -2   5  690.20   36.77
  -1   2  -5  706.02   39.95
   1  -2  -5  886.54   78.44
  -1  -2  -5  705.66   36.58
  -1   2   5  703.01   37.08
   1  -2   5  902.39   69.89
  -1  -2  -5  888.78   75.73
   1   2  -5  710.52   57.70
   1  -2  -6    7.15    8.64
  -1  -2   6    1.47    7.67
  -1  -2   6    6.14    3.61
   1   2   6    2.52    3.46
  -1   2  -6   13.62    8.20
  -1   2   6    0.28    7.46
  -1  -2  -6  -11.10    8.61
   1   2  -6    2.24    3.44
   1  -2   6    5.49    7.61
  -1  -2  -6    2.82    6.83
   1  -2  -7  156.65   20.27
  -1   2  -7  142.11    9.48
   1   2   7   94.89   16.44
  -1  -2   7  233.18   20.41
  -1  -2   7  187.22   16.86
  -1   2   7  117.66   17.59
   1  -2   7  200.28   17.96
  -1  -2  -7  189.36   18.23
   1   2  -7  135.64   19.41
  -1  -2  -7  132.72   18.10
  -1   2  -8   -8.21    8.44
   1  -2  -8    0.90    8.74
  -1  -2   8    0.36    7.82
  -1  -2   8   -2.82    8.96
   1   2   8   -0.04    9.72
   1  -2   8    0.91    7.51
  -1   2   8   -1.27    8.53
   1   2  -8   -6.48    8.39
  -1  -2  -8   -1.98    7.63
  -1  -2  -8   -3.56    8.22
  -1   2  -9  265.51   26.38
  -1  -2   9  259.55   27.44
  -1  -2   9  262.51   24.26
   1   2   9  266.96   28.14
   1  -2  -9  321.19   31.73
  -1   2   9  278.87   26.47
   1   2  -9  203.65   23.45
  -1  -2  -9  251.06   30.47
   1  -2   9  288.44   26.01
  -1  -2  -9  249.04   28.32
   1  -2 -10    2.35    6.61
   1   2  10    5.72    7.89
  -1  -2  10    5.93    6.92
  -1  -2  10    4.32   11.24
  -1   2 -10    3.34    6.35
  -1  -2 -10   -0.02    7.75
  -1   2  10    6.38    6.52
  -1  -2 -10    5.79    9.02
   1   2 -10    2.15    6.23
   1  -2  10    4.57    6.86
  -1  -2  11    4.02    4.64
  -1   2  11    1.98    4.45
  -1  -2 -11    2.78    3.73
   1  -2  11    4.90    4.12
   1  -3   0  557.62   40.49
  -1   3   0  420.60   32.53
   1   3   0  479.56   35.30
  -1  -3   0  477.60   32.51
   1  -3  -1  445.55   33.09
  -1  -3   1  426.88   30.21
   1   3   1  411.15   31.84
  -1   3  -1  525.51   55.45
  -1   3   1  536.08   56.52
   1   3  -1  401.99   32.62
  -1  -3  -1  399.80   29.43
   1  -3   1  468.07   34.22
  -1   3  -2   26.15   12.76
  -1  -3   2   28.27    6.33
   1  -3  -2   24.12    7.45
   1   3   2   20.29    7.13
   1  -3   2   23.07    7.10
  -1   3   2   18.71   12.73
   1   3  -2   14.76   14.29
  -1  -3  -2   20.52    6.56
   1  -3  -3  605.17   47.12
  -1   3  -3  707.78   77.16
   1   3   3  753.27   81.67
  -1  -3   3  621.66   69.86
  -1  -3  -3  588.70   75.47
  -1   3   3  678.68   73.52
   1  -3   3  603.87   43.81
   1   3  -3  740.94   83.74
  -1  -3   4  129.03   19.95
   1   3   4  136.80   23.36
  -1   3  -4  121.02   21.61
   1  -3  -4  130.64   25.22
  -1   3   4  128.60   20.62
   1  -3   4  157.11   23.14
   1   3  -4  119.18   23.50
  -1  -3   5   29.35    9.95
   1   3   5   27.08   12.90
  -1   3  -5   14.82    6.18
  -1  -3  -5    9.49   11.03
  -1   3   5   21.92    5.85
   1   3  -5   21.13   12.92
   1   3   6   32.57    7.12
   1  -3  -6   34.21   13.71
  -1   3  -6   28.06   12.55
  -1  -3   6   10.32    7.21
  -1  -3   6   25.66    5.75
   1  -3   6   38.59   12.13
  -1   3   6   34.99   11.84
  -1  -3  -6   11.24    6.52
  -1  -3  -6   29.12    6.30
   1   3  -6   30.26    7.05
   1   3   7   79.59   25.67
   1  -3  -7  155.08   24.91
  -1  -3   7  103.49   20.16
  -1   3  -7  168.56   23.30
  -1  -3  -7   84.44   21.90
   1  -3   7  108.77   21.19
  -1  -3  -7  133.84   10.13
   1   3  -7   51.59   23.92
  -1   3   7   97.59   22.92
  -1   3  -8   32.13    7.36
   1   3   8   31.43   11.55
  -1  -3   8    7.04    6.79
  -1  -3   8   24.99   13.55
   1  -3  -8   23.02   14.99
  -1   3   8   35.05    7.32
   1  -3   8   19.11   12.20
  -1  -3  -8   31.18    5.62
   1   3  -8   26.73   10.54
  -1  -3  -8   47.04   14.51
  -1   3  -9  258.14   30.13
   1   3   9  232.80   26.84
  -1  -3   9  262.91   31.12
   1  -3  -9  174.19   34.22
  -1  -3   9  249.85   27.01
  -1  -3  -9  244.58   27.26
   1  -3   9  207.41   13.67
  -1   3   9  265.46   30.73
  -1  -3  -9  171.11   33.33
   1   3  -9  194.33   23.59
  -1   3 -10    7.25    9.52
   1   3  10   11.38   11.65
   1  -3 -10    6.83   11.16
  -1  -3  10   16.43   10.95
  -1  -3  10   16.34   11.03
   1  -3  10   10.89    8.33
   1   3 -10    6.60    5.10
  -1   3  10   11.20    9.94
  -1  -3 -10   13.10   11.85
  -1  -3 -10    7.20    8.30
  -1  -3  11   10.83    9.40
   1  -3 -11   13.33   10.26
  -1   3 -11   10.64    8.63
   1   3  11    7.37    9.75
  -1  -3  11    9.11    8.31
   1  -3  11    8.79    7.90
  -1  -3 -11    6.13    6.14
  -1   3  11    9.57    9.03
  -1  -3 -11    9.32   10.59
   1   3 -11   10.84    7.87
  -1   3 -12   20.07    7.84
   1   3  12   31.97   10.08
   1  -3 -12   35.96   10.73
  -1  -3  12   33.07    8.70
  -1   3  12   26.66    8.19
   1  -3  12   24.83    9.33
  -1  -3 -12   16.36    8.82
  -1  -3 -12   19.92    6.48
   1   3 -12   20.31    7.58
   1  -4   0   22.90    8.74
  -1   4   0   20.11    6.84
  -1  -4   0   13.73    6.35
   1   4   0   18.56    7.78
  -1   4  -1   87.48   10.39
   1   4   1   86.82   11.63
  -1  -4   1   71.68    9.90
   1  -4  -1   97.01   12.35
   1   4  -1  101.30   12.05
   1  -4   1   83.11   12.55
  -1  -4  -1   69.33    9.50
  -1   4   1   88.19   10.26
   1  -4  -2    0.35    7.84
  -1  -4   2    1.30    5.89
  -1   4  -2   10.91    6.63
   1   4   2   10.72    7.30
  -1  -4  -2    3.69    5.92
  -1   4   2   10.52    6.48
   1   4  -2    4.93    7.50
   1  -4   2   17.22    7.67
   1   4   3   80.80   11.47
  -1   4  -3   61.70   10.34
   1  -4  -3   87.78   12.54
  -1  -4   3   77.20    9.02
   1   4  -3   66.49   11.69
  -1   4   3   76.23   10.01
  -1  -4  -3   65.66    9.41
   1  -4   3   98.23   11.70
  -1   4  -4   24.98   14.21
   1   4   4   14.74   15.90
   1  -4  -4   18.67    8.99
  -1  -4   4   23.04    6.46
  -1   4   4   11.44   13.83
   1  -4   4   18.86    8.20
   1   4  -4   30.88   15.97
  -1  -4  -4   10.43    6.87
   1   4   5   27.36   15.98
   1  -4  -5   16.01   17.81
  -1  -4   5   10.38   12.67
  -1   4  -5   15.33   15.85
   1  -4   5    2.17   15.62
  -1   4   5   12.03   15.27
   1   4  -5   21.67   15.86
  -1  -4  -5   16.91   13.92
  -1  -4   6    4.98   13.77
   1   4   6   16.88   16.13
  -1   4  -6   19.18   15.82
   1   4  -6   21.51   15.89
  -1  -4  -6   23.55   14.96
  -1   4   6   10.73   15.32
  -1   4  -7  188.46   17.12
   1   4   7  218.34   18.26
   1  -4  -7  133.66   34.80
  -1  -4   7  179.81   15.88
   1  -4   7  104.35   28.06
  -1   4   7  195.49   17.20
  -1  -4  -7  110.80   17.41
   1   4  -7  191.28   17.26
   1  -4  -8   15.71    7.33
  -1  -4   8   20.85   12.86
   1   4   8    6.03   15.19
  -1  -4   8    1.30    7.57
  -1   4  -8   10.67   12.80
   1   4  -8    5.05   13.61
  -1  -4  -8   14.14    5.99
  -1  -4  -8    4.08   13.91
   1  -4   8   14.55    5.63
  -1   4   8    9.46   13.27
   1   4   9   -2.21    9.76
  -1  -4   9   -0.45    6.30
  -1  -4   9   -8.27   12.43
  -1   4  -9   -2.60   11.27
   1  -4  -9    3.09   13.28
  -1   4   9    1.25   11.89
  -1  -4  -9    2.39    4.87
  -1  -4  -9   -4.69   13.50
   1   4  -9   -4.88    8.57
   1  -4   9   -1.50    9.79
  -1  -4  10    2.73    6.29
  -1   4 -10    3.62   11.05
   1  -4 -10    1.87   13.05
   1   4  10   11.55   10.32
  -1  -4  10    2.00   11.37
   1  -4  10    4.96    9.39
  -1  -4 -10    9.22    7.14
   1   4 -10   -0.12    8.83
  -1   4  10    7.81   11.67
  -1  -4 -10    0.30    8.62
  -1  -4  11   25.63   19.84
  -1   4 -11   93.76   16.35
   1   4  11   63.33   19.67
  -1  -4  11   19.35   16.62
   1  -4 -11  118.36   20.16
  -1   4  11   46.30   17.13
  -1  -4 -11  100.32   14.60
   1   4 -11   98.68   16.63
   1  -4  11   33.18   14.72
  -1  -4 -11  112.74   20.37
   1   4  12    9.70   12.59
  -1  -4  12   -5.68    9.62
  -1   4 -12   12.87   10.12
  -1  -4  12   12.05   11.83
   1  -4 -12   -0.46   12.50
  -1  -4 -12    3.94    8.28
   1   4 -12   14.26   10.25
   1  -4  12   -1.54    5.11
  -1  -4 -12    0.20   12.80
  -1   4  12   -2.61   10.56
   1  -5   0   39.29   10.72
   1   5   0   20.61    9.93
  -1   5   0   21.95   18.24
  -1  -5   0   67.28   16.01
   1   5   1   31.52   11.12
  -1  -5   1   84.51   19.21
   1  -5  -1   70.96   12.06
  -1   5  -1   27.97   20.37
  -1   5   1   30.13   20.06
   1  -5   1   58.61   11.94
   1   5  -1   37.81   11.37
  -1  -5  -1   72.11   18.39
  -1  -5   2   70.32   16.57
   1   5   2   23.90    9.72
   1  -5  -2   43.29   10.82
  -1   5  -2   22.61   18.17
   1   5  -2   21.16    9.99
  -1  -5  -2   35.52   16.53
  -1   5   2   20.20   17.72
   1  -5   2   29.08   10.49
  -1  -5   3  151.94   24.48
   1   5   3   87.31   14.88
   1  -5  -3  141.88   16.43
  -1   5  -3   92.32   14.51
   1   5  -3   74.50   14.89
   1  -5   3  156.02   15.47
  -1  -5  -3  135.29   25.23
  -1   5   3  102.15   14.35
   1   5   4    4.41   15.29
  -1  -5   4   12.43   12.98
   1  -5  -4   18.18    8.54
  -1   5  -4    8.49    7.58
  -1   5   4    7.68    7.52
   1   5  -4    1.02   15.10
  -1  -5  -4   -0.02   13.62
   1  -5   4    9.49    7.79
   1   5   5    0.62   14.66
  -1  -5   5   10.50    6.64
   1  -5  -5   11.13   16.14
  -1   5  -5   11.73    7.34
  -1  -5  -5    6.35    7.14
   1   5  -5   24.29   14.49
   1  -5   5   -1.55   13.93
  -1   5   5   14.57    7.20
  -1  -5   6   15.41    6.87
   1   5   6   20.77   14.63
   1  -5  -6    7.21   16.36
  -1   5  -6   17.42   14.12
   1   5  -6   19.52   14.44
  -1  -5  -6   13.43    7.42
  -1   5   6   12.23   13.94
   1  -5   6   14.99   13.45
   1   5   7   41.08    9.01
  -1  -5   7   28.39   15.12
  -1   5  -7   30.60   15.76
   1  -5  -7   37.01   17.01
   1   5  -7   34.28    8.45
  -1  -5  -7   38.90   16.57
  -1   5   7   36.26   16.10
   1  -5   7   23.14   13.33
   1   5   8    1.74    7.09
  -1  -5   8   -0.04    7.76
  -1  -5   8   -0.18   12.70
   1  -5  -8   -7.92    7.14
  -1   5  -8   -2.13    6.36
   1  -5   8    3.87    5.34
  -1  -5  -8    6.77   14.18
  -1  -5  -8   -6.74    6.32
  -1   5   8   -2.82   12.73
   1   5  -8   -5.85   13.09
   1  -5  -9   31.42   15.95
   1   5   9    4.28   15.60
  -1  -5   9    3.04    8.14
  -1  -5   9   13.30    7.25
  -1   5  -9   18.28    6.83
  -1  -5  -9   14.67    6.65
  -1  -5  -9   17.54    8.36
   1   5  -9   13.15   10.12
  -1   5   9   14.08    7.19
   1  -5   9   11.43   11.81
   1   5  10   -0.53   10.37
  -1  -5  10    2.06   12.58
  -1  -5  10    0.38    7.13
  -1   5 -10    0.48   12.27
   1  -5 -10   -6.31   14.59
  -1  -5 -10   10.65   15.01
  -1  -5 -10   -1.12    5.79
   1   5 -10    0.46    4.98
   1  -5  10    1.88   10.99
  -1   5  10   -6.95   12.56
   1   6   0    2.22    7.08
   1  -6   0   21.18    6.23
  -1   6   0   -3.25    6.69
  -1  -6   0   15.12    5.53
  -1  -6   1   26.20    6.09
   1   6   1    1.08    7.51
   1  -6  -1   14.14    6.80
  -1   6  -1   14.35    7.11
  -1  -6  -1   15.46    5.85
   1   6  -1   13.83   14.90
  -1   6   1    9.16    6.93
   1  -6   1   26.48    6.78
   1   6   2   19.71   15.75
  -1  -6   2   27.95    6.54
   1  -6  -2   38.05    7.60
  -1   6  -2   19.48   14.95
  -1  -6  -2   26.55    6.63
   1   6  -2   21.93   16.15
  -1   6   2   24.75   14.59
   1  -6   2   32.31    7.28
   1   6   3   -5.11   13.42
  -1  -6   3   13.12    5.39
  -1   6  -3    0.04   12.62
   1  -6  -3    3.49    6.28
  -1  -6  -3    8.33    5.60
   1   6  -3   -2.57   13.46
   1  -6   3    6.41    5.87
  -1   6   3    2.52   12.50
  -1  -6   4    8.50   10.34
   1  -6  -4   25.34   12.16
  -1   6  -4    5.90   12.85
   1   6   4    3.45   13.49
  -1  -6  -4   13.71   10.93
   1   6  -4    4.93   13.55
  -1   6   4    6.22   12.64
   1  -6   4   14.61   10.83
   1   6   5   51.27   15.29
  -1  -6   5   42.64   11.96
   1  -6  -5   26.63   13.91
  -1   6  -5   47.60   14.84
  -1  -6  -5   16.12   12.76
   1   6  -5   27.94   15.39
  -1   6   5   34.21   14.49
   1  -6   5   20.94   12.06
   1   6   6   12.61   12.72
  -1  -6   6    8.97   10.25
  -1   6  -6    0.26   11.98
  -1  -6  -6   -7.33   11.19
   1   6  -6    6.72   12.35
  -1   6   6    1.84   12.08
   1   6   7   26.49    7.14
  -1  -6   7    3.55   10.46
   1  -6  -7   14.45   11.14
  -1   6  -7   13.38    6.47
  -1  -6  -7   -3.14   11.85
   1   6  -7   -8.81    6.72
   1  -6   7   -0.47    8.88
  -1   6   7   13.24    6.71
   1   6   8   18.59    7.51
  -1  -6   8    3.53    5.68
  -1  -6   8    8.62    8.22
  -1   6  -8    9.56   12.81
   1  -6  -8   11.14    6.25
  -1  -6  -8    6.67    6.57
  -1  -6  -8    4.00    6.84
   1   6  -8    9.55    6.87
  -1   6   8   20.98    7.06
   1  -6   8    3.83    5.01
  -2   0   0 9504.78 2009.18
   2   0   010943.64 2622.20
  -2   0  -1 1630.93  121.34
   2   0  -1 1948.26  201.45
  -2   0   1 1590.69  118.11
   2   0   1 1934.81  195.95
  -2   0   2  593.20   33.80
  -2   0  -2  604.63   35.07
   2   0   2  878.20   71.77
   2   0  -2  860.56   74.84
  -2   0  -3  204.26   22.02
   2   0  -3  175.63   13.03
  -2   0  -3  179.65   13.90
  -2   0   3  197.05   21.25
  -2   0   3  179.93   13.55
   2   0   3  232.94   23.92
  -2   0  -4  774.21   68.13
   2   0  -4  504.85   32.65
  -2   0   4  618.25   52.78
  -2   0  -4  659.42   65.58
   2   0   4  525.42   30.61
  -2   0   4  692.39   63.86
   2   0   5 1811.34  179.35
  -2   0  -5 1682.06  193.84
  -2   0   5 1950.36  204.42
  -2   0   5 1873.56  190.44
   2   0  -5 1720.26  193.38
  -2   0  -5 1927.81  215.72
  -2   0  -6  147.87   18.50
  -2   0   6  164.92   17.25
   2   0   6  122.94   13.45
  -2   0  -6  118.93    8.39
  -2   0   6  129.51    8.42
   2   0  -6  136.24   14.36
  -2   0   7    5.76    7.92
  -2   0   7    1.25    9.08
   2   0   7    6.60    6.81
  -2   0  -7    6.96    8.57
  -2   0  -7    7.73    8.01
   2   0  -7    3.07    6.77
   2   0  -8  114.21   14.03
  -2   0  -8  126.72   14.56
   2   0   8  123.53   14.91
  -2   0   8   63.90   14.78
  -2   0  -8  115.34   15.01
   2   0   9   16.15    7.50
  -2   0  -9   20.72    6.24
  -2   0  -9   26.02    8.12
  -2   0   9   24.42    8.21
   2   0  -9   21.76    6.35
  -2   0   9   -0.82    9.89
  -2   0 -10   23.94    6.50
  -2   0  10   -0.18   10.12
  -2   0  10   20.85    6.38
   2   1   010082.78 2231.09
  -2  -1   0 9927.05 2246.85
   2  -1   0 9898.21 2252.99
  -2  -1   010362.00 2653.18
   2   1   010690.51 2759.76
  -2   1   010643.59 2765.26
  -2  -1   1  298.60   33.62
  -2  -1   1  276.67   30.89
   2   1   1  203.85   17.07
   2   1   1  266.29   29.40
  -2   1  -1  111.43   29.47
   2  -1  -1  207.91   18.15
   2   1  -1  212.51   17.00
  -2  -1  -1  292.85   34.87
  -2  -1  -1   81.06   30.70
   2  -1   1  212.88   17.94
  -2   1   1  287.01   29.77
   2   1   2 2236.43  276.85
   2   1   2 2082.97  179.74
  -2  -1   2 2528.97  313.90
  -2   1  -2 2351.89  283.29
   2  -1  -2 2004.89  193.01
  -2  -1   2 2380.31  288.95
   2   1  -2 2399.43  306.75
  -2  -1  -2 2388.65  290.17
   2   1  -2 2412.37  297.66
  -2  -1  -2 2384.81  321.64
   2  -1   2 2141.30  189.05
  -2   1   2 2321.05  280.82
   2   1   3  560.07   53.14
   2   1   3  538.42   53.50
  -2   1  -3  396.68   26.97
  -2  -1   3  521.15   50.95
  -2  -1   3  434.72   42.83
   2  -1  -3  580.81   60.97
   2   1  -3  526.15   55.15
  -2  -1  -3  409.58   44.59
  -2  -1  -3  407.62   27.58
   2  -1   3  608.78   56.96
  -2   1   3  384.95   26.34
   2   1  -3  519.85   53.37
  -2  -1   4 2836.63  250.70
   2  -1  -4 3239.66  398.28
   2   1   4 2885.73  263.47
   2   1   4 3196.96  344.30
  -2  -1   4 3081.62  342.34
  -2   1  -4 2707.72  250.27
   2   1  -4 2733.94  254.94
  -2  -1  -4 2824.14  353.18
  -2  -1  -4 2798.90  254.93
   2   1  -4 2952.31  356.40
   2  -1   4 3342.51  366.43
  -2   1   4 2732.04  244.93
  -2  -1   5   23.71    9.89
   2   1   5   20.63    4.34
  -2  -1   5   17.93    4.23
   2  -1  -5   18.89    5.02
  -2   1  -5   20.27    9.73
  -2  -1  -5   12.30   10.29
  -2  -1  -5   11.68    4.42
   2  -1   5   16.95    4.42
   2   1  -5   14.88    4.47
  -2   1   5   15.41    9.23
   2   1   6  332.44   18.58
  -2  -1   6  382.67   30.44
  -2  -1   6  417.16   31.69
  -2   1  -6  451.18   38.75
   2  -1  -6  433.50   37.76
  -2  -1  -6  406.28   33.24
  -2  -1  -6  485.26   43.75
   2  -1   6  420.56   32.49
  -2   1   6  436.45   36.54
  -2  -1   7  211.46   14.03
  -2  -1   7  258.95   21.69
  -2   1  -7  261.86   24.13
   2  -1  -7  236.58   22.78
  -2   1   7  273.13   24.00
  -2  -1  -7  247.06   21.68
  -2  -1  -7  198.68   14.34
   2  -1   7  240.33   20.16
  -2  -1   8    0.26    9.00
  -2  -1   8    3.20    7.98
  -2   1  -8  -10.13    8.88
   2  -1  -8   -4.14    7.64
  -2   1   8   -4.02    9.13
  -2  -1  -8   -4.34    9.22
  -2  -1  -8   -5.19    7.79
   2  -1   8   -1.49    6.88
  -2   1  -9   59.14   11.97
  -2  -1   9   -1.72   12.28
  -2  -1   9   57.18   10.70
  -2   1  -9   75.37   12.52
   2  -1  -9   65.19   12.27
  -2   1   9   -1.15   13.58
  -2  -1  -9   76.98   13.20
  -2  -1  -9   65.79   12.78
   2  -1   9   83.16   17.50
  -2   1   9   69.17   12.69
  -2   1 -10   26.47    7.97
  -2  -1  10   -0.07    8.25
  -2  -1  10   30.97    8.39
   2  -1 -10   28.30    9.97
  -2   1 -10   20.91    7.26
  -2   1  10   -0.44    8.18
  -2  -1 -10   31.67    8.42
  -2  -1 -10   22.49    8.77
   2  -1  10   32.60   11.02
  -2   1  10   33.68    8.53
  -2  -1  11   28.95    5.74
  -2  -1  11   15.06    5.36
  -2   1 -11   30.61    7.98
  -2   1 -11   19.50    4.23
   2  -1 -11   22.52    4.57
   2  -1  11   33.58    9.80
  -2  -1 -11   28.41    5.71
  -2  -1 -11   27.52    5.42
  -2   1  11   27.70    5.67
  -2   1  11   -0.47    6.19
  -2  -2   0    9.44    7.11
   2   2   0   30.24   14.14
  -2  -2   0   14.44    6.81
   2  -2   0   19.11   13.50
   2  -2  -1  733.30   97.89
  -2  -2   1  717.69   99.55
  -2  -2   1  767.81   56.96
   2   2   1  706.21   58.68
   2  -2   1  780.90   99.65
  -2  -2  -1  758.01   55.84
   2   2  -1  704.35   57.82
  -2  -2  -1  691.52  101.32
   2  -2  -2 2837.06  433.22
  -2   2  -2 2671.24  400.78
  -2  -2   2 2795.01  274.71
   2   2   2 2539.97  272.86
  -2  -2   2 2825.63  422.07
   2  -2   2 2980.15  417.54
   2   2  -2 2563.35  272.69
  -2  -2  -2 2692.14  435.82
  -2  -2  -2 2761.87  271.22
  -2   2   2 2761.94  420.20
  -2  -2   3  281.32   20.04
  -2  -2   3  293.63   37.48
   2   2   3  250.57   20.80
  -2   2  -3  245.07   35.58
   2  -2  -3  286.51   38.16
  -2   2   3  281.25   35.71
  -2  -2  -3  272.52   20.18
  -2  -2  -3  285.54   39.60
   2   2  -3  240.44   20.82
   2  -2   3  293.40   35.39
   2   2   4  157.46   14.41
  -2  -2   4  187.06   26.61
  -2  -2   4  219.90   26.51
  -2   2  -4  162.80   13.19
   2  -2  -4  183.98   14.10
   2  -2   4  189.34   12.84
  -2  -2  -4  188.36   28.05
  -2  -2  -4  158.11   26.71
   2   2  -4  205.48   27.26
  -2   2   4  160.65   12.90
  -2  -2   5    2.80    5.48
   2   2   5   11.83   11.43
  -2  -2   5    9.25    9.16
  -2   2  -5    1.89   10.49
   2  -2  -5    9.49   11.06
  -2  -2  -5    7.47    5.88
  -2  -2  -5    9.66    9.31
   2   2  -5   -0.89   11.19
   2  -2   5    6.24    5.03
  -2   2   5   10.71    5.16
  -2   2  -6  487.43   51.12
   2   2   6  503.50   48.54
  -2  -2   6  489.09   50.15
  -2  -2   6  389.07   23.43
   2  -2  -6  529.37   59.37
  -2  -2  -6  371.97   23.62
   2   2  -6  416.16   46.13
  -2  -2  -6  440.33   53.85
   2  -2   6  485.41   44.84
  -2   2   6  471.31   47.47
  -2   2  -7   60.90    8.78
   2   2   7   79.80   17.20
  -2  -2   7   78.85   15.12
  -2  -2   7   -0.87   16.14
   2  -2  -7   83.31   10.26
  -2  -2  -7   75.55   14.09
   2   2  -7   82.02   14.88
  -2  -2  -7   84.35   17.27
   2  -2   7   78.38   16.14
  -2   2   7   70.79   16.46
   2   2   8  143.51   26.80
  -2  -2   8  125.98   23.75
  -2   2  -8  135.94   24.21
   2  -2  -8  169.48   28.08
   2  -2   8  139.14   22.14
  -2  -2  -8  147.52   22.05
  -2  -2  -8  111.64   24.41
   2   2  -8  132.86   22.12
  -2   2   8  112.07   23.57
  -2  -2   9   80.44   16.19
  -2  -2   9   79.20   16.85
  -2   2  -9   69.30   16.10
   2  -2  -9   70.83   16.38
  -2   2   9   65.79   15.79
  -2  -2  -9   79.48   15.42
  -2  -2  -9   90.21   17.27
   2  -2   9   65.58   12.88
  -2  -2  10   -1.31    9.32
  -2  -2  10    4.01    7.52
  -2   2 -10   -5.08    8.37
   2  -2 -10   -2.70    8.27
  -2  -2 -10    0.05    7.06
  -2  -2 -10   -6.12    9.43
  -2   2  10    2.35    8.43
  -2  -2  11   28.81    9.47
  -2  -2  11   19.65    8.51
  -2   2 -11   24.84    8.52
   2  -2 -11   25.69    8.40
  -2  -2 -11   25.88    8.06
  -2  -2 -11   35.67    9.36
   2  -2  11   29.48    8.26
  -2   2  11   24.89    8.63
  -2  -2  12   41.88    7.93
  -2  -2  12   35.23    8.02
  -2   2 -12   40.39    6.55
  -2   2 -12   29.05    7.16
   2  -2 -12   31.61    6.12
  -2   2  12   35.28    7.44
  -2  -2 -12   38.97   12.04
  -2  -2 -12   38.62    8.42
   2  -2  12   47.42    8.50
  -2   2  12   33.97    7.82
   2  -3   0    4.46   13.28
  -2  -3   0    4.51   12.47
  -2  -3   0   19.71    5.68
   2   3   0   11.63    5.75
  -2   3   0   15.98    6.70
  -2   3  -1  294.55   23.03
   2  -3  -1  373.71   43.67
  -2  -3   1  331.20   42.49
  -2  -3   1  339.71   20.79
   2   3   1  264.03   19.69
   2  -3   1  347.46   43.53
  -2  -3  -1  325.35   42.96
  -2  -3  -1  320.98   20.22
   2   3  -1  262.03   19.69
  -2   3   1  324.51   24.50
  -2   3  -2  270.54   21.42
   2  -3  -2  321.55   40.14
  -2  -3   2  332.22   38.14
  -2  -3   2  284.61   18.70
   2   3   2  222.93   17.63
  -2   3   2  265.21   21.76
   2  -3   2  353.20   38.58
  -2  -3  -2  295.44   39.16
  -2  -3  -2  281.56   18.67
   2   3  -2  237.71   17.94
   2  -3  -3  315.60   37.06
  -2  -3   3  214.58   17.97
  -2   3  -3  260.27   19.62
   2   3   3  203.84   15.84
  -2  -3   3  267.75   16.76
   2  -3   3  334.88   34.33
  -2   3   3  257.75   19.28
  -2  -3  -3  207.11   19.03
  -2  -3  -3  242.30   16.60
   2   3  -3  194.54   15.92
  -2   3  -4  133.02   24.11
   2  -3  -4  116.87   13.21
  -2  -3   4  103.34   11.41
   2   3   4  131.11   19.50
  -2  -3   4  114.50   20.23
  -2  -3  -4   92.14   20.08
  -2   3   4  111.19   12.12
  -2  -3  -4   93.49   12.35
   2   3  -4  110.74   19.55
   2  -3   4  147.82   11.90
   2  -3  -5  264.75   24.72
   2   3   5  288.16   36.54
  -2  -3   5  278.28   21.28
  -2  -3   5  388.92   47.39
  -2   3  -5  320.85   45.51
  -2   3   5  323.08   43.19
   2  -3   5  285.96   21.43
  -2  -3  -5  296.91   43.57
  -2  -3  -5  357.74   46.19
   2   3  -5  250.65   35.64
   2  -3  -6  761.27  108.04
   2   3   6  794.22  108.18
  -2  -3   6  749.04   91.81
  -2  -3   6  844.82  105.67
  -2   3  -6  691.98   99.09
  -2   3   6  679.17   92.20
   2  -3   6  741.09   88.88
  -2  -3  -6  666.52  100.10
  -2  -3  -6  673.77   55.89
   2   3  -6  710.93  104.02
  -2   3  -7   21.66    7.48
   2   3   7   25.37    8.50
  -2  -3   7   15.69   13.58
  -2  -3   7    3.78    8.04
   2  -3  -7   14.56   15.79
  -2   3   7   17.00    7.13
  -2  -3  -7   15.64    7.31
  -2  -3  -7   21.96   14.75
   2   3  -7   10.13    7.70
   2  -3   7   15.70   12.33
   2  -3  -8   39.14    8.45
  -2  -3   8    4.95   15.72
   2   3   8   24.80   17.14
  -2  -3   8   30.95   14.20
  -2   3  -8   20.02   14.45
  -2   3   8   20.77   14.12
  -2  -3  -8   26.53   15.30
  -2  -3  -8   20.36   11.69
   2   3  -8   22.57   14.74
   2  -3   8   31.67    6.22
   2  -3  -9   11.18   15.63
   2   3   9   16.83   12.94
  -2  -3   9   16.71   11.06
  -2  -3   9    8.74   11.25
  -2   3  -9   19.85   11.58
  -2  -3  -9   12.49    4.83
  -2  -3  -9   13.14   11.77
   2   3  -9   13.90   10.46
   2  -3   9   10.20    9.97
  -2   3   9   15.31   11.50
   2   3  10   63.76   17.78
  -2  -3  10   71.62   15.88
  -2  -3  10   68.91   15.08
  -2   3 -10   54.83   15.21
  -2   3  10   57.57   15.15
  -2  -3 -10   82.57   12.39
  -2  -3 -10   70.38   16.39
   2   3 -10   45.01   13.82
   2   3  11   18.75   13.81
  -2  -3  11   14.60   11.86
  -2  -3  11   17.55    6.24
  -2   3 -11   28.76   11.56
   2  -3 -11   42.90   12.48
  -2   3  11   20.03   11.59
   2  -3  11   18.13   10.13
  -2  -3 -11   26.44    9.79
  -2  -3 -11   21.10   12.20
   2   3 -11   24.98   10.31
  -2   3 -12   28.75   10.49
  -2  -3  12   30.92    9.59
  -2  -3  12   32.35   11.11
   2  -3 -12   35.98   11.56
  -2   3  12   28.81   10.62
   2  -3  12   35.52   10.76
  -2  -3 -12   16.51    8.06
  -2  -3 -12   32.44   12.63
   2  -3 -13   -2.71    6.31
  -2  -3  13   -0.75    7.38
  -2   3 -13    9.68    7.28
  -2   3  13   12.25    7.34
  -2  -3 -13   -3.87    8.80
  -2  -3 -13   10.26    6.57
   2   4   0   38.51   19.03
  -2  -4   0   23.24    7.95
  -2  -4   0   33.59   15.22
   2  -4   0   38.62    8.91
  -2   4   0   31.11    8.37
  -2  -4   1  107.00   14.93
   2   4   1  149.84   34.15
  -2  -4   1   95.24   28.64
  -2   4  -1  176.93   15.38
   2  -4  -1  175.62   16.01
   2   4  -1  167.26   34.38
  -2   4   1  169.21   15.75
  -2  -4  -1  108.06   14.75
  -2  -4  -1   83.96   27.37
   2  -4   1  172.12   16.05
   2   4   2  -18.88   12.02
  -2  -4   2  -12.72    7.29
  -2  -4   2   -0.98    7.07
   2  -4  -2   -2.07    7.93
  -2   4  -2  -17.96    7.67
  -2   4   2  -16.65    7.52
   2  -4   2  -11.56    7.64
  -2  -4  -2   -1.64    7.06
  -2  -4  -2  -19.57    7.33
   2   4  -2  -29.50   12.38
   2  -4  -3   66.15   22.39
  -2   4  -3   63.28   10.74
  -2  -4   3   62.83   10.33
  -2  -4   3   55.83    9.69
   2   4   3   60.82   16.86
   2  -4   3   69.48   20.87
  -2   4   3   64.73   10.55
  -2  -4  -3   53.60   10.04
  -2  -4  -3   59.36   10.03
   2   4  -3   63.98   16.91
   2  -4  -4   93.52   27.23
  -2   4  -4   80.74   13.26
   2   4   4  108.97   20.49
  -2  -4   4   89.95   11.71
  -2  -4   4  113.50   12.51
   2   4  -4   94.79   20.29
  -2  -4  -4   77.33   12.39
  -2  -4  -4   92.17   11.98
  -2   4   4   93.17   12.83
   2  -4   4  115.34   24.16
   2  -4  -5   71.04   24.12
  -2  -4   5   86.94   10.51
   2   4   5   75.67    9.96
  -2  -4   5   91.60   10.89
  -2   4  -5   88.31   22.80
   2  -4   5   80.40   20.01
  -2   4   5   98.85   21.68
  -2  -4  -5   67.73   10.36
  -2  -4  -5   56.32   11.42
   2   4  -5   61.00    9.85
  -2   4  -6   10.87   13.43
   2  -4  -6    2.74    7.94
  -2  -4   6    0.24   12.28
   2   4   6    4.23    5.93
  -2  -4   6    1.84   12.38
  -2   4   6    9.84   12.71
  -2  -4  -6    7.15   11.38
  -2  -4  -6    5.38   13.58
   2   4  -6   11.49    5.75
   2  -4   6    1.35    6.11
  -2  -4   7   33.56   15.39
   2  -4  -7   81.06   10.81
   2   4   7   36.12   15.62
  -2  -4   7    6.34   16.17
  -2   4  -7   67.31    9.18
   2  -4   7   54.77    7.82
  -2   4   7   57.73   17.17
  -2  -4  -7   90.52   18.09
  -2  -4  -7   64.21   16.76
   2   4  -7   29.42   14.43
  -2   4  -8   37.70    7.81
   2  -4  -8   58.41   18.22
   2   4   8   41.07   18.05
  -2  -4   8   16.45   17.72
  -2  -4   8   33.69    7.28
  -2   4   8   31.21    7.72
   2   4  -8   54.26   15.82
  -2  -4  -8   56.06   14.91
  -2  -4  -8   34.36    7.83
   2  -4   8   32.70   12.74
  -2   4  -9   -1.11   11.49
   2  -4  -9   10.73   14.77
  -2  -4   9    1.34    7.20
   2   4   9    2.73    7.61
  -2  -4   9    7.04   11.70
  -2   4   9   -1.07   11.69
   2  -4   9    5.99   10.49
  -2  -4  -9    9.40   11.25
  -2  -4  -9    4.97   12.31
   2   4  -9   11.23    6.36
   2  -4 -10   14.67   15.01
   2   4  10    4.59   14.92
  -2  -4  10    9.44   12.35
  -2  -4  10    1.35   11.64
  -2   4 -10   12.61    6.48
   2  -4  10    5.84    5.81
  -2   4  10    9.12   12.59
  -2  -4 -10    3.89    9.11
  -2  -4 -10   19.30   12.94
   2   4 -10    0.09   12.11
  -2   4 -11  -18.39   11.56
   2  -4 -11   -6.49   16.08
  -2  -4  11    6.34   11.91
  -2  -4  11   15.57    5.67
   2   4  11    2.67   12.82
   2  -4  11   -8.83   13.12
  -2   4  11    2.43   11.78
  -2  -4 -11   -1.82    4.31
  -2  -4 -11    8.72   12.83
   2   4 -11    7.65    5.18
   2  -5   0  109.14   10.87
  -2   5   0   42.51   19.86
  -2  -5   0  121.37   16.90
  -2  -5   0   31.46   10.51
   2   5   0   45.48   24.30
  -2   5  -1   33.61   17.24
   2  -5  -1   70.93    9.78
   2   5   1   27.31   20.70
  -2  -5   1   17.74    9.09
  -2  -5   1   55.46   15.50
   2  -5   1   59.15    9.51
  -2   5   1   29.16   17.16
  -2  -5  -1   58.66   14.68
  -2  -5  -1   42.60    9.07
   2   5  -1   34.36   20.92
  -2   5  -2    6.66   13.20
   2  -5  -2   20.84    7.36
  -2  -5   2   11.28   11.37
  -2  -5   2   -4.89    6.95
   2   5   2    4.18   15.53
   2  -5   2   16.32    7.03
  -2   5   2   -3.92   12.96
  -2  -5  -2   -3.06    6.86
  -2  -5  -2   16.20   11.19
   2   5  -2   -7.35   15.77
   2  -5  -3   82.42   10.51
  -2   5  -3   50.05    9.89
  -2  -5   3  102.70   15.79
   2   5   3   35.28   22.17
  -2  -5   3   44.65    9.99
  -2   5   3   56.81    9.71
   2  -5   3   99.47    9.58
   2   5  -3   31.38   21.95
  -2  -5  -3   76.27   16.15
  -2  -5  -3   46.16    9.62
  -2   5  -4    7.29    6.97
   2  -5  -4   18.31    7.26
  -2  -5   4    7.86   10.97
  -2  -5   4   11.62    6.98
   2   5   4    8.28   11.25
  -2   5   4   12.94    6.83
  -2  -5  -4   15.22    6.55
   2  -5   4   14.92    6.22
   2   5  -4    7.69   11.13
  -2  -5  -4   12.06    6.05
  -2   5  -5   15.76    7.08
   2  -5  -5    6.46   14.68
   2   5   5    8.82   11.45
  -2  -5   5   24.15    7.02
  -2  -5   5   17.03    5.93
  -2   5   5   16.63    6.90
   2  -5   5   15.01   11.97
  -2  -5  -5   21.72    6.49
   2   5  -5   29.63   11.21
  -2  -5  -5   18.31    6.29
  -2   5  -6   -1.56   12.03
   2  -5  -6   14.72   13.14
  -2  -5   6   -2.41    6.13
  -2  -5   6    7.05    5.44
   2   5   6   -1.97    5.52
  -2   5   6   -0.15   11.68
   2  -5   6   11.01   10.15
  -2  -5  -6    7.12    5.78
   2   5  -6    2.41    5.31
  -2  -5  -6    6.25    5.52
   2  -5  -7    4.07   13.78
  -2   5  -7    4.82   12.08
   2   5   7    8.93    5.75
  -2  -5   7    8.03    6.28
  -2  -5   7    4.07   10.99
  -2   5   7   34.09   12.07
   2  -5   7    7.41   10.34
  -2  -5  -7    0.77    5.40
   2   5  -7    5.70    5.30
  -2  -5  -7   16.95   11.66
   2  -5  -8   -1.92    7.44
  -2   5  -8   -0.18   12.48
  -2  -5   8   -5.04   11.17
  -2  -5   8    0.26   11.62
   2   5   8   -5.52   10.82
  -2   5   8    1.73   12.77
   2  -5   8    0.59    5.58
  -2  -5  -8    2.10   12.00
  -2  -5  -8   11.29    9.58
   2   5  -8    7.63    9.57
  -2   5  -9   -1.91    6.46
   2  -5  -9   -3.47   14.92
   2   5   9   -3.67   14.27
  -2  -5   9    3.73    6.20
  -2  -5   9    2.67   14.61
   2  -5   9    2.58   11.77
  -2   5   9    6.13    6.61
  -2  -5  -9   -3.49   11.93
   2   5  -9   -1.00   12.31
  -2  -5  -9   -0.80    6.73
   2  -5 -10  -11.30   15.65
  -2   5 -10  -13.55   12.82
   2   5  10   -1.64    7.89
  -2  -5  10    3.33   12.76
  -2  -5  10   -1.45    7.86
  -2   5  10   -1.26   13.12
   2  -5  10    2.19   13.48
  -2  -5 -10    1.67    6.32
   2   5 -10   -3.72    6.66
  -2  -5 -10    0.16   14.03
  -2   6   0    9.38   10.48
   2  -6   0   -0.41    4.78
  -2  -6   0   -1.13    5.76
   2   6   0    5.48   13.09
  -2  -6   0    6.52    4.25
  -2   6  -1    9.82   11.75
   2  -6  -1   17.86    5.57
   2   6   1   12.11   14.44
  -2  -6   1   23.89    5.03
  -2  -6   1    5.86    6.29
   2  -6   1   25.96    5.49
  -2   6   1    4.36   11.60
  -2  -6  -1   19.06    4.79
  -2  -6  -1    9.19    6.32
   2   6  -1   10.38   14.56
  -2   6  -2   10.89   12.49
   2  -6  -2   34.90    5.81
   2   6   2   13.96   15.14
  -2  -6   2   32.20    9.76
  -2  -6   2    8.14    6.62
   2  -6   2   33.38    5.59
  -2   6   2    8.00   12.29
  -2  -6  -2    9.40    6.55
  -2  -6  -2   44.26    9.59
   2   6  -2   16.50   15.26
  -2   6  -3    1.25   10.51
   2  -6  -3    3.32    4.82
  -2  -6   3    2.51    8.05
  -2  -6   3    3.48    5.60
   2   6   3   -5.64   12.68
   2  -6   3   -7.99    4.40
  -2   6   3    2.64   10.38
  -2  -6  -3   -1.12    5.32
  -2  -6  -3   -1.57    8.25
   2   6  -3    1.02   12.65
  -2   6  -4   -2.37   11.63
   2  -6  -4   -1.58    4.79
   2   6   4    0.70   12.50
  -2  -6   4  -14.21    7.93
  -2  -6   4   -2.25    5.51
   2  -6   4   -3.95    4.13
  -2   6   4   -4.38   11.37
  -2  -6  -4    9.59    8.39
  -2  -6  -4    1.75    5.19
   2   6  -4   -2.70   12.47
  -2   6  -5   -2.23   12.55
   2  -6  -5   47.46   10.18
   2   6   5   -3.49    9.61
  -2  -6   5   29.35    8.83
  -2  -6   5    1.61    5.90
   2  -6   5   29.59    8.51
  -2   6   5   -0.23   12.10
  -2  -6  -5   10.31    5.41
  -2  -6  -5   34.58    9.42
   2   6  -5    6.23    9.56
  -2   6  -6    8.87    6.72
   2  -6  -6   32.32   10.53
   2   6   6    9.27   10.19
  -2  -6   6   13.76    6.21
  -2  -6   6   29.69    8.99
   2  -6   6   31.59    8.83
  -2   6   6   11.39    6.70
  -2  -6  -6   17.87    5.52
  -2  -6  -6   41.78    9.71
   2   6  -6   42.32    9.76
   2  -6  -7   14.96    9.86
  -2   6  -7   15.17    6.36
   2   6   7   15.03    5.49
  -2  -6   7   28.18    6.07
  -2  -6   7    4.78    4.53
   2  -6   7   -4.38    8.44
  -2   6   7   22.31    6.58
  -2  -6  -7   10.28    5.16
  -2  -6  -7   10.91    4.92
   2   6  -7   24.10    5.01
  -3   0   0   -0.90    5.61
   3   0   0   -1.33    6.12
  -3   0   0    0.72    6.98
  -3   0   1  281.03   37.42
  -3   0  -1  274.11   38.16
  -3   0  -1  289.24   25.02
   3   0   1  279.80   22.28
  -3   0   1  300.39   24.52
   3   0  -1  293.70   22.78
   3   0  -2  412.17   30.89
  -3   0  -2  421.35   33.27
  -3   0  -2  440.37   51.71
   3   0   2  412.76   29.44
  -3   0   2  427.74   32.30
  -3   0   2  423.95   50.44
  -3   0  -3  601.58   44.79
  -3   0  -3  620.22   68.26
   3   0   3  577.16   39.20
  -3   0   3  633.48   43.52
  -3   0   3  607.88   65.65
   3   0  -3  566.13   41.47
  -3   0  -4 2177.31  306.26
   3   0   4 1985.97  259.57
  -3   0   4 2221.52  295.71
  -3   0   4 2157.22  298.36
   3   0  -4 1843.20  274.89
  -3   0  -4 1950.87  296.79
  -3   0  -5  134.03   13.90
  -3   0  -5  122.46   23.68
   3   0   5  160.57   21.62
  -3   0   5  158.03   23.57
   3   0  -5  137.75   23.50
  -3   0   5  136.07   13.33
  -3   0  -6  461.31   36.76
  -3   0  -6  736.10   79.23
   3   0   6  643.06   57.86
  -3   0   6  518.32   37.54
  -3   0   6  744.51   75.80
   3   0  -6  571.45   62.78
  -3   0  -7   25.71   13.58
  -3   0  -7   13.96   13.22
   3   0   7   24.06    5.74
  -3   0   7   29.08   13.44
  -3   0   7   31.63   13.60
   3   0  -7   25.98   12.00
  -3   0   8   26.18    7.22
  -3   0  -8   30.92    7.28
  -3   0  -8   18.20   15.02
   3   0   8   11.53   13.79
  -3   0   8   11.48   15.76
   3   0  -8   12.56   14.43
  -3   0  -9  111.58   18.08
  -3   0  -9   98.40   18.79
  -3   0   9  101.76   17.98
  -3   0   9   -1.34   19.33
   3   0  -9  106.61   18.19
  -3   0 -10   26.08   10.49
  -3   0 -10   19.53    8.64
   3   0  10   18.95    9.42
  -3   0  10   -0.19    8.79
  -3   0  10   32.26   10.38
   3   0 -10   19.38    8.51
  -3   0 -11   32.10   10.11
  -3   0 -11   26.32    9.78
   3   0  11   23.35    4.96
  -3   0  11   -0.43   10.08
  -3   0  11   21.71    9.64
   3   0 -11   13.44    3.76
  -3   0 -12   74.41   11.92
  -3   0 -12   79.47   11.55
  -3   0  12   75.44   11.22
  -3   0  12   68.95   12.14
  -3  -1   0   96.10   13.47
   3  -1   0  104.68   10.69
  -3   1   0  103.21   11.27
  -3  -1   0  115.07   19.43
   3   1   0  150.89   22.80
   3   1   1  920.66   94.74
  -3  -1   1  761.42   81.16
  -3  -1   1  639.85   53.91
  -3   1  -1  703.46   49.18
   3  -1  -1  633.46   47.34
  -3  -1  -1  635.29   56.34
   3   1  -1  925.33   97.48
   3  -1   1  648.15   46.68
  -3   1   1  731.95   49.70
  -3  -1  -1  739.61   80.16
   3   1   2  655.09   69.45
  -3  -1   2  488.97   39.74
   3  -1  -2  538.98   65.10
  -3   1  -2  502.72   36.69
  -3  -1   2  529.57   59.18
  -3  -1  -2  534.76   59.30
  -3  -1  -2  486.39   41.40
   3   1  -2  645.69   71.51
   3  -1   2  550.17   62.17
  -3   1   2  503.88   36.24
   3   1   3  209.42   15.04
  -3  -1   3  149.43   12.87
  -3   1  -3  205.33   28.99
   3  -1  -3  157.84   27.73
  -3  -1   3  206.83   16.44
  -3  -1  -3  153.20   13.10
  -3  -1  -3  195.17   17.14
   3   1  -3  199.47   15.79
   3  -1   3  182.84   25.99
  -3   1   3  205.04   28.23
   3   1   4  227.04   15.98
  -3  -1   4  175.44   13.40
  -3  -1   4  230.31   17.59
  -3   1  -4  195.09   30.68
  -3  -1  -4  195.16   17.76
  -3   1   4  205.17   29.84
   3   1  -4  199.14   16.35
  -3  -1  -4  174.78   13.68
  -3   1  -5   47.28   16.34
   3   1   5   64.94   15.77
  -3  -1   5   43.11   13.41
  -3  -1   5   69.05   17.26
   3  -1  -5   48.23   14.05
  -3  -1  -5   52.86   17.43
   3   1  -5   55.90   16.30
   3  -1   5   42.85   12.47
  -3   1   5   55.45   15.82
  -3  -1  -5   47.53   13.72
   3   1   6  124.66   21.23
  -3  -1   6  148.80   22.40
  -3   1  -6  198.58   14.31
   3  -1  -6  154.14   12.36
  -3  -1  -6   43.20   22.45
   3   1  -6   78.66   21.82
   3  -1   6  151.18   10.71
  -3   1   6  184.90   13.70
  -3   1  -7   -0.06   12.12
   3   1   7    7.06   10.25
  -3  -1   7    1.48    5.33
  -3  -1   7    5.34   11.27
   3  -1  -7    7.70   11.06
  -3  -1  -7    4.23   11.25
   3  -1   7    5.28    9.35
  -3   1   7    8.94   12.03
   3   1  -7    7.07    5.32
  -3  -1  -7    4.12    5.33
   3   1   8  325.81   23.55
  -3  -1   8  360.66   39.12
  -3  -1   8  408.34   45.33
  -3   1  -8  391.82   50.25
  -3   1  -8  292.90   27.10
   3  -1  -8  438.54   54.33
  -3  -1  -8  311.70   39.87
  -3  -1  -8  390.21   45.31
   3  -1   8  425.90   45.20
  -3   1   8  420.06   50.59
   3   1   9   -0.95    5.89
  -3  -1   9   13.23   12.50
  -3   1  -9    9.22   10.80
  -3   1  -9   15.09   11.76
   3  -1  -9   11.24   12.27
  -3  -1   9   17.37   12.38
  -3  -1  -9   14.78    6.27
  -3  -1  -9   11.53   12.47
   3   1  -9    3.56    5.34
   3  -1   9   15.68   10.70
  -3   1   9   11.18   12.81
  -3   1   9   13.25   10.95
  -3  -1  10   -0.86   13.65
  -3  -1  10   66.15   14.14
  -3   1 -10   56.36   13.70
  -3   1 -10   35.31    6.39
   3  -1 -10   50.82   12.53
  -3  -1 -10   60.12   14.28
   3  -1  10   54.79   11.87
  -3   1  10    0.27   13.54
  -3   1  10   64.12   14.04
  -3  -1 -10   62.33   14.03
  -3  -1  11   -0.53    9.71
  -3  -1  11    4.08    8.79
  -3   1 -11   16.45    9.82
  -3   1 -11    7.91    9.62
   3  -1 -11    9.70    9.60
  -3  -1 -11    3.45    9.17
  -3  -1 -11    7.29   10.05
   3  -1  11    7.13    8.78
  -3   1  11    5.50   10.05
  -3   1  11   -0.31   10.32
  -3  -1  12   33.76   13.97
  -3  -1  12   19.82    8.24
  -3   1 -12   16.74    6.81
  -3   1 -12   15.81    9.58
   3  -1 -12   19.07    7.87
  -3  -1 -12   21.60    9.60
  -3  -1 -12   33.94    8.94
   3  -1  12   36.03   10.40
  -3   1  12   22.58    7.00
  -3   1  12    8.26    9.87
   3  -1  13   11.43    3.38
  -3  -2   0  207.56   30.09
   3   2   0  211.66   16.42
   3   2   0  196.96   16.78
  -3   2   0  178.68   31.40
   3  -2   0  238.62   19.56
  -3  -2   0  169.97   26.47
  -3  -2   1  143.80   23.10
   3   2   1  126.32   15.10
  -3  -2   1  182.71   27.24
  -3   2  -1  156.13   27.76
   3  -2  -1  212.29   17.75
   3   2   1  185.53   14.52
  -3  -2  -1  141.20   24.07
  -3  -2  -1  178.16   26.62
   3   2  -1  191.09   14.62
   3   2  -1  126.45   14.90
   3  -2   1  217.65   17.28
  -3   2   1  161.62   29.39
   3   2   2  665.60   43.71
   3   2   2  531.00   45.48
  -3  -2   2  693.05   68.13
  -3  -2   2  799.28   80.02
  -3   2  -2  551.14   43.13
   3  -2  -2  819.84   55.26
  -3  -2  -2  659.94   70.46
  -3  -2  -2  779.17   79.51
   3   2  -2  589.46   44.07
   3   2  -2  502.89   45.18
   3  -2   2  835.02   52.49
  -3   2   2  550.70   43.87
   3   2   3  799.73   93.11
  -3  -2   3  764.74   86.20
  -3   2  -3  589.02   46.88
   3  -2  -3  768.31   59.49
   3   2   3  546.75   46.64
  -3  -2   3  951.02  102.53
  -3  -2  -3  767.15   87.01
  -3  -2  -3  878.66  105.99
   3   2  -3  788.64   91.55
   3  -2   3  821.04   55.50
  -3   2   3  579.62   47.11
   3   2   4   44.44    9.13
   3   2   4   91.69   18.46
  -3  -2   4   95.97   20.42
  -3   2  -4   58.32    8.96
   3  -2  -4   85.72   21.60
  -3  -2   4   78.37   18.64
  -3  -2  -4   82.34   18.91
  -3  -2  -4   78.20   21.18
   3   2  -4   27.31    9.33
   3   2  -4   87.89   19.44
   3  -2   4   83.93   10.06
  -3   2   4   63.37    8.77
   3   2   5  504.59   63.67
  -3  -2   5  369.23   32.21
  -3   2  -5  395.23   53.79
   3  -2  -5  509.90   68.44
  -3  -2   5  390.67   31.19
  -3  -2  -5  392.93   31.58
  -3  -2  -5  331.61   33.76
   3   2  -5  458.33   60.24
   3  -2   5  526.30   58.30
  -3   2   5  399.82   52.60
   3   2   6   87.47   11.85
  -3  -2   6   69.79   10.88
  -3  -2   6   73.68   21.62
   3  -2  -6   61.16   20.20
  -3  -2  -6   75.58   10.98
   3   2  -6   73.67   10.94
   3  -2   6   74.78   16.39
  -3   2   6   73.72   18.47
  -3  -2  -6   58.34   22.55
  -3  -2   7   99.95   27.73
  -3  -2   7  146.96   27.96
  -3   2  -7  160.14   27.53
   3  -2  -7  122.82   14.03
  -3  -2  -7  174.91   27.13
  -3  -2  -7   32.46   29.44
   3  -2   7  130.31   10.82
  -3   2   7   97.46   27.08
  -3  -2   8   46.98   14.70
  -3   2  -8   61.07    8.91
   3  -2  -8   63.26   17.42
  -3  -2   8   57.28   17.54
  -3  -2  -8   52.14   13.89
   3  -2   8   40.09   12.88
  -3   2   8   49.34    8.90
  -3  -2  -8   30.38    9.53
  -3  -2   9  304.61   34.06
  -3  -2   9  255.08   28.55
  -3   2  -9  193.11   33.73
   3  -2  -9  267.93   32.24
  -3  -2  -9  231.48   26.93
  -3  -2  -9  118.64   35.89
   3  -2   9  239.63   24.29
  -3   2   9   94.70   33.83
  -3  -2  10   68.95   17.94
  -3  -2  10   97.77   16.10
  -3   2 -10   67.77    9.42
   3  -2 -10   74.77   17.16
  -3  -2 -10   83.85   15.20
   3  -2  10   65.92   13.84
  -3   2  10   78.77    9.52
  -3  -2 -10   40.36   18.69
  -3  -2  11    0.16   11.93
  -3  -2  11   14.32   10.19
  -3   2 -11   16.73   11.31
   3  -2 -11   31.67   13.07
  -3  -2 -11   18.94   12.14
  -3  -2 -11   27.05    9.86
   3  -2  11   10.39   11.83
  -3   2  11    6.06   11.23
  -3  -2  12   41.54   12.90
  -3  -2  12   36.16   12.74
  -3   2 -12   34.47   11.95
  -3   2 -12   35.49   10.89
   3  -2 -12   45.05   11.36
  -3  -2 -12   32.20   13.08
  -3  -2 -12   32.72   13.04
   3  -2  12   49.35   13.26
  -3   2  12   50.39   12.09
  -3   2  12   34.96   11.98
  -3   3   0  367.47   32.76
   3  -3   0  426.18   34.75
  -3  -3   0  499.84   64.62
  -3  -3   0  534.21   63.79
   3   3   0  365.54   35.99
  -3   3  -1  222.75   21.93
   3  -3  -1  263.21   23.28
   3   3   1  236.51   47.30
  -3  -3   1  221.47   44.23
  -3  -3   1  349.18   45.80
   3  -3   1  279.81   22.90
  -3   3   1  259.53   24.12
   3   3  -1  209.46   46.18
  -3  -3  -1  226.78   44.81
  -3  -3  -1  221.16   44.44
  -3   3  -2  -15.05    7.08
   3  -3  -2   -1.11    7.37
   3   3   2  -16.19   15.31
  -3  -3   2   -1.27    7.32
  -3  -3   2   -5.30   14.73
   3  -3   2    2.34    7.10
  -3   3   2   -6.18    7.40
  -3  -3  -2    8.66    7.41
  -3  -3  -2   -7.59   14.76
   3   3  -2  -24.05   15.29
  -3   3  -3  184.84   19.28
   3  -3  -3  209.13   20.31
  -3  -3   3  202.38   19.65
   3   3   3  228.10   41.22
  -3  -3   3  191.34   33.57
   3  -3   3  225.36   18.67
  -3   3   3  201.04   19.66
  -3  -3  -3  183.33   20.44
  -3  -3  -3  164.89   33.37
   3   3  -3  210.08   40.59
  -3   3  -4   15.76   15.31
   3  -3  -4    4.96   16.11
   3   3   4   14.18   15.32
  -3  -3   4   13.88    8.01
  -3  -3   4   15.83   13.96
   3  -3   4   11.49   13.99
  -3   3   4   11.37   15.17
  -3  -3  -4   10.00    8.41
  -3  -3  -4   17.76   13.94
   3   3  -4   32.28   14.92
  -3   3  -5  146.67   35.31
   3  -3  -5  129.99   37.20
   3   3   5  160.58   35.02
  -3  -3   5  185.95   16.68
  -3  -3   5  197.25   18.26
   3  -3   5  150.10   30.17
  -3   3   5  166.84   34.13
   3   3  -5  143.59   33.68
  -3  -3  -5  140.14   37.30
  -3  -3  -5  177.32   16.61
  -3  -3   6   -3.67   13.65
  -3  -3   6    0.58    6.46
  -3   3  -6   10.40   14.31
   3  -3  -6    8.91   17.08
   3   3   6    3.00    7.31
   3   3  -6    6.35    6.83
   3  -3   6    5.12   12.74
  -3   3   6   -0.81   13.63
  -3  -3  -6   -4.65   14.94
  -3  -3  -6    6.39    6.42
  -3  -3   7  130.67   30.49
  -3   3  -7  225.53   17.94
  -3  -3   7   94.63   31.55
   3   3   7  145.56   34.68
   3   3  -7  117.09   30.13
  -3   3   7  214.55   17.32
  -3  -3  -7   61.12   34.24
  -3  -3  -7  272.18   28.51
  -3  -3   8    9.55   13.83
  -3   3  -8   11.37   13.71
   3  -3  -8   14.11   17.32
  -3  -3   8   12.87    6.72
   3   3   8   26.12   15.71
   3   3  -8    7.12   12.90
   3  -3   8   16.82   11.85
  -3   3   8   12.04   13.51
  -3  -3  -8   13.99   12.50
  -3  -3  -8    7.42    7.23
  -3  -3   9   22.78    7.46
  -3  -3   9   21.26   13.68
  -3   3  -9   21.34   13.27
   3  -3  -9   14.72   14.99
   3   3   9   29.54    8.40
   3   3  -9   13.65    6.58
   3  -3   9   11.09   10.47
  -3   3   9   12.87   13.35
  -3  -3  -9   18.45    6.56
  -3  -3  -9   13.32   14.33
  -3  -3  10    5.44   12.48
  -3  -3  10    2.61   12.18
  -3   3 -10   -5.04    6.06
   3  -3 -10    3.23    6.94
   3  -3  10    7.05    5.10
  -3   3  10    4.67    6.04
  -3  -3 -10   -4.71   10.86
  -3  -3 -10    7.43   12.50
  -3  -3  11   32.13   15.22
  -3  -3  11   32.94   12.52
  -3   3 -11   48.10   13.89
   3  -3  11   12.77   13.31
  -3   3  11   45.53   14.07
  -3  -3 -11   51.88   15.55
  -3  -3 -11   33.25    5.79
  -3  -3  12    1.64   11.04
  -3   3 -12    8.34   10.75
   3  -3 -12    7.29    5.81
   3  -3  12    0.72    5.57
  -3   3  12    4.61   10.64
  -3  -3 -12   -1.27    5.84
   3  -4   0   85.65   18.94
   3   4   0   27.35   20.61
  -3   4   0   24.37    9.87
  -3  -4   0   38.34    9.10
  -3  -4   0   39.67   10.05
  -3   4  -1   99.55   15.79
   3  -4  -1  206.06   31.09
   3   4   1  107.55   32.86
  -3  -4   1  104.15   15.03
  -3  -4   1  117.33   17.07
  -3  -4  -1  103.00   14.62
   3  -4   1  218.68   30.32
  -3   4   1   94.69   17.01
  -3  -4  -1  198.88   16.56
   3   4  -1  124.87   32.10
  -3   4  -2  -14.45    8.07
   3  -4  -2   -9.28   16.14
   3   4   2   -4.44   16.79
  -3  -4   2   -9.51    8.58
  -3  -4   2   -7.40    7.51
   3  -4   2   -9.99   15.16
  -3   4   2   -4.18    8.34
  -3  -4  -2   -3.35    7.50
  -3  -4  -2  -13.95    8.50
   3   4  -2  -12.37   16.70
   3  -4  -3  284.45   48.73
  -3   4  -3  225.63   25.28
   3   4   3  299.40   27.78
  -3  -4   3  319.48   27.35
  -3  -4   3  240.18   22.74
   3  -4   3  289.38   43.43
  -3   4   3  242.33   25.66
  -3  -4  -3  207.66   23.50
  -3  -4  -3  331.56   26.76
   3   4  -3  277.77   27.24
  -3   4  -4   45.39   20.73
   3  -4  -4   43.21   21.16
   3   4   4   72.27   11.83
  -3  -4   4   46.01    9.60
  -3  -4   4   82.32   11.51
   3  -4   4   71.98   17.55
  -3   4   4   51.56   20.50
  -3  -4  -4   44.51   10.04
  -3  -4  -4   81.65   11.24
   3   4  -4   69.50   11.50
  -3   4  -5   21.09   15.79
   3  -4  -5   24.39    8.52
   3   4   5   28.94    8.81
  -3  -4   5   19.84    7.01
  -3  -4   5   31.03    8.50
   3  -4   5   12.54    6.41
  -3   4   5   28.89   15.23
  -3  -4  -5   21.27   14.33
  -3  -4  -5   36.74   15.94
   3   4  -5   23.81    8.46
  -3   4  -6    7.19   12.64
   3  -4  -6    8.14    7.45
  -3  -4   6    6.75   11.46
   3   4   6   -3.16   14.45
  -3  -4   6   -0.08   13.79
   3  -4   6    2.91    5.23
  -3   4   6   -0.96   12.07
  -3  -4  -6   -1.14   12.44
  -3  -4  -6    2.04   13.20
   3   4  -6    3.81   13.54
  -3   4  -7   12.26    6.93
   3  -4  -7   16.90   15.70
   3   4   7    5.82   13.94
  -3  -4   7    9.72   12.26
  -3  -4   7   11.74   12.45
   3  -4   7   11.20   10.71
  -3   4   7   13.08    6.70
  -3  -4  -7   14.61   13.15
  -3  -4  -7    2.75   11.36
   3   4  -7   18.38   12.39
  -3   4  -8   23.81    7.38
   3  -4  -8   10.35   19.29
   3   4   8   31.76   15.14
  -3  -4   8   19.36    6.98
  -3  -4   8   18.89    6.93
   3  -4   8   18.41   11.76
  -3   4   8   20.43    7.22
  -3  -4  -8   21.79    7.36
  -3  -4  -8   18.57    6.13
   3   4  -8   17.11   12.81
  -3   4  -9    5.40   12.35
   3  -4  -9    3.48   17.49
   3   4   9   -2.26    7.02
  -3  -4   9    1.89   12.28
  -3  -4   9    0.87   11.71
   3  -4   9    3.66   12.62
  -3   4   9    5.13   12.08
  -3  -4  -9    1.70   12.83
  -3  -4  -9   11.96    9.99
   3   4  -9    3.07    5.74
  -3   4 -10  -15.48   12.06
   3  -4 -10    6.79   17.65
   3   4  10    4.46   13.80
  -3  -4  10   -3.63   12.94
  -3  -4  10   -2.84   11.80
   3  -4  10   -2.05   13.95
  -3   4  10   -0.59   11.87
  -3  -4 -10   -7.72   10.86
  -3  -4 -10    7.60   11.95
   3   4 -10    6.48   10.90
   3  -5   0   16.75    5.92
  -3   5   0   -2.54    6.59
  -3  -5   0   28.00   10.19
   3   5   0    2.51   11.05
  -3  -5   0    3.39   10.67
  -3   5  -1   32.61    8.54
  -3  -5   1   48.21    7.33
   3   5   1   15.06   14.19
  -3  -5   1   42.78   18.05
   3  -5   1   66.71    7.87
  -3   5   1   33.03    8.85
  -3  -5  -1   60.56   17.67
   3   5  -1   11.50   13.83
  -3  -5  -1   51.43    6.89
   3  -5  -2   14.38    6.24
  -3   5  -2    6.90    6.79
   3   5   2    4.23   11.07
  -3  -5   2   17.61    5.51
  -3  -5   2    6.89   14.24
  -3   5   2    6.81    6.79
  -3  -5  -2   -3.36    5.38
   3  -5   2   17.86    5.76
  -3  -5  -2    7.67   14.14
   3   5  -2    0.78   11.01
   3  -5  -3    2.12    5.75
  -3   5  -3   -4.25    6.35
   3   5   3    3.78   13.66
  -3  -5   3   -2.72    4.97
  -3  -5   3    1.30   13.51
   3  -5   3   -0.71    4.98
  -3   5   3   -1.28    6.33
  -3  -5  -3   -6.45    5.08
  -3  -5  -3   -9.69   13.17
   3   5  -3   -4.11   13.34
  -3   5  -4    0.07    6.26
   3  -5  -4  -14.74   10.87
   3   5   4   -0.70   13.22
  -3  -5   4    2.72    4.75
  -3  -5   4   -5.92   13.06
   3  -5   4   -6.21    8.76
  -3   5   4    4.10    6.09
  -3  -5  -4    0.47    4.95
  -3  -5  -4   -1.49   12.71
   3   5  -4   -1.93   12.98
   3  -5  -5   -9.61   12.64
  -3   5  -5    4.49   13.38
   3   5   5    9.41   14.60
  -3  -5   5   19.47    5.34
  -3  -5   5    9.35    7.64
  -3   5   5    9.45   12.75
   3  -5   5   25.30    9.75
  -3  -5  -5   10.70    5.61
  -3  -5  -5   37.58    7.37
   3   5  -5   31.23   14.29
   3  -5  -6   23.82   13.51
  -3   5  -6    2.68   13.83
   3   5   6   29.69    8.01
  -3  -5   6   15.22   10.55
  -3  -5   6   31.23    7.90
   3  -5   6   33.10   10.38
  -3   5   6   30.20   13.14
  -3  -5  -6   15.36   11.15
  -3  -5  -6   11.77    7.42
   3   5  -6   19.69    7.69
  -3   5  -7    2.90   12.33
   3  -5  -7   13.90    6.81
   3   5   7   16.08    7.63
  -3  -5   7   19.69   10.04
  -3  -5   7   19.92   14.13
   3  -5   7    4.95    5.39
  -3   5   7   16.46   12.07
  -3  -5  -7   17.04   12.68
  -3  -5  -7   -5.11    9.63
   3   5  -7    5.87    6.92
  -3   5  -8   -0.99    6.19
   3  -5  -8   -9.64    6.71
   3   5   8   14.51   14.47
  -3  -5   8    8.08   13.76
  -3  -5   8   -4.17    9.32
   3  -5   8  -13.31    5.71
  -3   5   8    4.55    6.07
  -3  -5  -8   23.72   11.95
  -3  -5  -8  -13.07    9.81
   3   5  -8   31.97   12.64
  -4   0   0  448.85   64.04
   4   0   0  337.79   29.03
  -4   0   0  388.09   62.43
   4   0  -1   19.98    7.48
  -4   0  -1  -11.99   16.06
   4   0   1   14.13    7.29
  -4   0   1    2.59   15.77
  -4   0   1  -13.73   15.73
  -4   0  -1   -4.08   16.18
  -4   0  -2  185.83   38.45
  -4   0  -2  213.02   39.09
   4   0   2  167.83   34.01
  -4   0   2  191.91   37.62
  -4   0   2  194.67   37.98
   4   0  -2  180.47   34.99
  -4   0   3    8.76   14.99
  -4   0  -3    4.05    8.01
   4   0   3    3.85   13.38
  -4   0   3   -0.71   15.20
   4   0  -3    0.64   13.96
  -4   0  -3   -0.31   15.26
  -4   0  -4  427.10   72.02
  -4   0  -4  455.33   42.53
   4   0   4  474.03   66.59
  -4   0   4  510.22   71.18
  -4   0   4  440.61   41.27
   4   0  -4  436.69   71.53
   4   0  -5  -12.61   13.09
  -4   0  -5    1.37    7.42
  -4   0  -5    3.51    8.36
   4   0   5  -16.65   11.72
  -4   0   5  -25.77   14.33
  -4   0   5    7.87    8.11
  -4   0  -6   19.04    9.23
   4   0   6   36.87    7.42
  -4   0   6   30.49    9.36
  -4   0   6   49.98   19.74
   4   0  -6   46.59    8.40
  -4   0  -6   37.35   20.39
  -4   0   7    0.20   13.34
  -4   0  -7   12.78   13.47
  -4   0  -7   -8.59   13.12
   4   0   7    3.97    5.48
  -4   0   7    3.93   13.49
   4   0  -7    7.91   12.08
  -4   0  -8   41.23    8.09
  -4   0  -8   13.71   16.87
   4   0   8   17.24   12.28
  -4   0   8   43.46    8.12
   4   0  -8   25.58   16.55
  -4   0   8   24.77   17.44
  -4   0  -9    6.03    6.98
   4   0   9   11.24   12.40
  -4   0   9   11.07   12.82
  -4   0   9    9.19    7.32
   4   0  -9   12.73    7.00
  -4   0  -9   12.15   12.67
  -4   0 -10   67.68   17.86
  -4   0 -10   43.29   18.45
   4   0  10   84.33   18.24
  -4   0  10   69.24   17.88
  -4   0  10   79.76   19.03
   4   0 -10   56.61   19.01
  -4   0  11   24.00   12.37
  -4   0 -11   18.16    5.34
   4   0  11   19.82   11.52
  -4   0  11   11.02    5.30
   4   0 -11   45.05   11.05
  -4   0 -11   60.14   12.59
  -4   0 -12   43.04   13.66
  -4   0 -12   48.85   13.12
   4   0  12   24.20    6.72
  -4   0  12   31.44   13.23
  -4   0  12   34.15   12.58
   4   0 -12   15.51    5.65
  -4  -1   0  943.62  115.87
  -4  -1   0  688.79   87.86
   4   1   0  827.11  101.33
  -4   1   0  655.96   53.24
   4  -1   0  584.91   47.12
   4   1   1  605.64   71.61
  -4  -1   1  486.63   62.00
  -4  -1   1  638.86   77.67
  -4   1  -1  450.79   37.37
   4  -1  -1  395.70   33.24
  -4  -1  -1  434.62   61.67
  -4  -1  -1  658.55   80.81
   4  -1   1  411.58   32.63
  -4   1   1  453.52   37.31
   4   1  -1  574.44   73.69
   4   1   2   39.22   16.51
  -4  -1   2   17.38   14.19
  -4  -1   2   27.60   17.98
  -4   1  -2   32.49    8.51
   4  -1  -2   27.30    7.47
  -4  -1  -2   13.33   14.34
  -4  -1  -2   26.60    9.59
   4   1  -2   39.26   16.89
   4  -1   2   22.15    7.19
  -4   1   2   24.81    8.37
  -4  -1   3   22.52    9.23
  -4   1  -3   32.53    8.48
   4   1   3   18.54   16.21
   4  -1  -3   15.45    7.36
  -4  -1  -3   21.14    9.32
   4   1  -3   37.68   16.63
   4  -1   3   18.78    6.93
  -4   1   3   30.02    8.32
   4   1   4  219.13   18.85
  -4  -1   4  219.21   20.93
  -4  -1   4  169.13   33.70
  -4   1  -4  171.12   37.17
   4  -1  -4  154.96   16.72
  -4  -1  -4  204.53   21.24
  -4  -1  -4  148.25   33.97
   4  -1   4  165.65   15.22
  -4   1   4  178.80   35.99
   4   1  -4  204.93   19.68
   4   1   5  101.20   13.31
  -4  -1   5  104.96   15.09
  -4  -1   5  118.58   24.00
   4  -1  -5  100.59   23.19
  -4   1  -5  106.95   27.32
  -4  -1  -5   97.87   15.30
  -4  -1  -5  114.26   24.42
   4   1  -5   89.81   14.23
   4  -1   5   91.82   20.13
  -4   1   5  121.53   26.34
  -4  -1   6  167.98   35.43
   4   1   6  165.42   31.22
  -4  -1   6  175.21   15.38
  -4   1  -6  157.01   33.78
   4  -1  -6  159.70   34.82
  -4  -1  -6  103.08   35.94
  -4  -1  -6  160.56   15.69
   4   1  -6  135.49   33.70
   4  -1   6  147.61   28.68
  -4   1   6  152.98   32.57
   4   1   7   30.63   13.35
  -4  -1   7   25.78   14.43
  -4  -1   7   48.34   15.78
  -4   1  -7   53.45    9.27
  -4   1  -7   23.95    9.50
   4  -1  -7   52.95    9.69
  -4  -1  -7   16.59   14.51
  -4  -1  -7   49.31   15.67
   4   1  -7   27.08   14.19
   4  -1   7   47.44    7.69
  -4   1   7   51.49    9.25
  -4   1   7   58.67    9.85
   4   1   8   44.46   13.33
  -4  -1   8   43.11    7.08
  -4  -1   8   72.19   18.41
  -4   1  -8   73.65   16.18
  -4   1  -8   33.17   17.32
   4  -1  -8   48.82   17.93
   4   1  -8   41.81    7.21
  -4  -1  -8   21.06    7.07
  -4  -1  -8   69.59   18.16
   4  -1   8   41.96    7.31
  -4   1   8   66.95   16.45
  -4   1   8   60.76   18.41
   4   1   9    3.69    5.44
  -4  -1   9    3.25    9.62
  -4  -1   9    2.47    6.92
  -4   1  -9    0.03   12.08
  -4   1  -9   -0.09   11.57
   4  -1  -9    5.27   11.97
  -4  -1  -9   -2.16    9.60
  -4  -1  -9   -2.87    6.78
   4   1  -9   -1.43    5.45
   4  -1   9   -1.15    9.58
  -4   1   9    1.65   12.56
  -4   1   9   10.47   12.41
  -4  -1  10    2.67   12.97
   4   1  10    0.07    6.02
  -4  -1  10   -2.71   12.97
  -4   1 -10    1.29    5.88
  -4   1 -10    0.16    5.78
   4  -1 -10    2.67    6.09
  -4  -1 -10    0.91   13.17
  -4  -1 -10   -6.83   12.84
   4   1 -10    3.87    5.69
   4  -1  10    2.44    5.08
  -4   1  10    3.02    5.97
  -4   1  10   -0.49    6.24
  -4  -1  11   13.16   13.42
  -4  -1  11   28.31   14.57
  -4   1 -11   51.60   14.78
  -4   1 -11   51.53   14.81
   4  -1 -11   43.30   13.70
  -4  -1 -11   48.76   13.84
  -4  -1 -11   40.07   15.07
   4  -1  11   10.38   12.51
  -4   1  11    6.63   15.65
  -4  -1  12   85.91   18.14
  -4  -1  12  100.76   20.30
  -4   1 -12   88.03   19.56
  -4   1 -12   94.03   20.34
   4  -1 -12   88.99   21.06
  -4  -1 -12  100.02   21.40
  -4  -1 -12   86.72   19.27
   4  -1  12   91.20   11.32
  -4   1  12  104.94   20.07
  -4   1  12   90.84   20.41
  -4  -2   0   39.57    8.25
   4   2   0   52.45    8.38
   4   2   0   40.81   10.35
  -4   2   0   50.37   17.92
   4  -2   0   45.33    9.19
  -4  -2   0   75.36   20.12
  -4  -2   1  131.64   26.84
   4   2   1  100.56   11.27
   4   2   1   90.04   13.84
  -4  -2   1   78.46   10.73
  -4   2  -1  118.40   24.01
   4  -2  -1   95.74   12.22
  -4  -2  -1  159.03   26.76
  -4  -2  -1   83.44   10.98
   4   2  -1   95.53   11.43
   4   2  -1  107.15   13.98
   4  -2   1   90.79   12.15
  -4   2   1  109.67   24.57
   4   2   2  172.96   13.89
   4   2   2   99.54   16.86
  -4  -2   2  165.78   32.31
  -4  -2   2  147.46   13.10
  -4   2  -2  151.25   29.40
   4  -2  -2  123.27   15.15
  -4  -2  -2  171.27   32.40
  -4  -2  -2   93.33   13.51
   4   2  -2  166.66   14.00
   4   2  -2  101.53   16.90
   4  -2   2  126.45   14.59
  -4   2   2  137.13   29.49
  -4  -2   3  195.26   39.98
   4   2   3  198.50   17.18
  -4  -2   3  183.78   16.58
  -4   2  -3  155.24   36.63
   4  -2  -3  194.88   18.90
  -4  -2  -3  187.49   40.15
  -4  -2  -3  166.59   16.82
   4   2  -3  192.14   17.50
   4  -2   3  206.72   17.65
  -4   2   3  146.52   36.79
   4   2   4   12.05    6.93
  -4  -2   4    4.75   13.58
  -4   2  -4   25.36   15.39
   4  -2  -4    0.97    7.62
  -4  -2   4   12.87   12.36
  -4  -2  -4   10.12   12.68
   4   2  -4    6.19    7.07
   4  -2   4    6.41    6.70
  -4   2   4    5.26   15.32
  -4  -2  -4    6.28   13.51
   4   2   5   26.72    7.87
  -4  -2   5   37.27   14.81
  -4  -2   5   30.18   13.79
  -4   2  -5   32.57   17.39
   4  -2  -5   40.25   16.73
  -4  -2  -5   24.03   14.99
  -4  -2  -5   22.19   14.17
   4  -2   5   34.43   13.70
  -4   2   5   35.18   17.00
   4   2  -5   25.15    8.11
   4   2   6   49.39    9.29
  -4  -2   6   48.49   21.86
  -4  -2   6   66.22    8.87
  -4   2  -6   72.10    9.89
  -4  -2  -6   25.71   22.65
  -4  -2  -6   77.31    8.93
   4   2  -6   39.55    9.60
  -4   2   6   71.67    9.67
  -4  -2   7   54.52    9.18
  -4  -2   7   44.88   14.58
  -4   2  -7   61.90   15.63
   4  -2  -7   65.36   15.77
   4   2   7   11.74    8.18
  -4  -2  -7   29.76    9.69
  -4  -2  -7   56.91   14.07
   4  -2   7   40.99   11.20
  -4   2   7   55.88   15.88
  -4  -2   8   49.91   17.03
  -4  -2   8   35.04   14.22
   4  -2  -8   46.04    8.36
  -4  -2  -8   32.39   17.83
   4  -2   8   36.75    5.71
  -4   2   8   48.14   15.66
  -4  -2   9   12.05   14.47
  -4  -2   9   16.87   12.65
  -4   2  -9   20.32   13.87
   4  -2  -9    5.95   13.51
  -4  -2  -9   18.51   12.03
   4  -2   9   13.31    9.35
  -4   2   9   18.62   14.13
  -4  -2  -9    1.08   14.89
  -4  -2  10   58.48    9.81
  -4  -2  10   60.12    8.44
  -4   2 -10   45.18   17.93
   4  -2 -10   83.99   21.40
  -4  -2 -10   33.74   10.06
  -4  -2 -10   61.37   15.50
   4  -2  10   75.21   15.51
  -4   2  10   51.07   18.17
  -4  -2  11   48.08   14.84
  -4  -2  11   19.99   15.03
  -4   2 -11    7.89   13.75
  -4   2 -11   14.37   14.23
   4  -2 -11   12.20   16.55
  -4  -2 -11   -0.32   15.18
  -4  -2 -11    8.97   14.71
   4  -2  11   20.34   13.00
  -4   2  11   20.60   14.44
  -4   2  11   40.82   15.34
  -4  -3   0   20.38    9.67
  -4  -3   0   39.27   16.31
   4   3   0   19.90   17.63
  -4   3   0   32.93   16.21
   4  -3   0   44.00   10.46
  -4  -3   1   54.98   24.04
   4   3   1   36.63   25.43
  -4  -3   1   82.16   13.84
   4  -3  -1  130.54   14.94
  -4  -3  -1   85.38   13.91
  -4  -3  -1   87.48   23.22
   4   3  -1   39.36   24.85
   4  -3   1  125.06   14.77
   4   3   2  -11.27   14.81
  -4  -3   2    0.37   15.21
  -4  -3   2    7.87   15.19
   4  -3  -2   -1.58    8.77
   4   3  -2    0.17   14.60
  -4  -3  -2   11.56   15.05
  -4  -3  -2   10.18   15.56
   4  -3   2   13.29    8.22
   4   3   3    5.65   19.19
  -4  -3   3   27.86   19.52
  -4  -3   3   46.09   19.38
  -4   3  -3   18.80   18.93
   4  -3  -3   74.78   11.25
  -4  -3  -3   31.15   19.95
   4   3  -3   11.60   18.86
   4  -3   3   68.22   10.04
  -4   3   3   23.36   19.39
  -4  -3  -3   23.15   19.51
   4   3   4    4.94   16.60
  -4  -3   4   13.76   15.27
  -4   3  -4   18.74   15.03
   4  -3  -4   31.68   17.23
  -4  -3   4    9.40   15.52
  -4  -3  -4    9.98   15.41
  -4  -3  -4   12.94   15.84
   4   3  -4   14.26   15.89
   4  -3   4   39.74   14.35
  -4   3   4    4.75   15.23
   4   3   5  155.25   37.47
  -4  -3   5  213.00   18.33
  -4   3  -5  182.61   17.84
   4  -3  -5  155.54   39.67
  -4  -3   5  159.48   34.01
  -4  -3  -5  218.88   18.33
  -4  -3  -5   39.25   35.85
   4   3  -5  221.34   35.42
   4  -3   5  151.37   30.10
  -4   3   5  191.29   17.66
   4   3   6   35.81    9.09
  -4  -3   6   35.28    8.36
  -4  -3   6   27.05   15.66
  -4   3  -6   28.23    8.18
   4  -3  -6   16.41   15.57
  -4  -3  -6   16.86    8.57
   4   3  -6   34.13    8.38
   4  -3   6   19.67   10.73
  -4   3   6   32.85    7.98
  -4  -3  -6   31.46    8.24
   4   3   7   20.48    8.43
  -4  -3   7   25.42   14.82
  -4  -3   7   19.74    7.44
  -4   3  -7   14.86   14.24
   4  -3  -7   21.33    7.82
  -4  -3  -7   22.29   14.26
  -4  -3  -7   15.27    7.89
   4   3  -7   15.06    7.35
   4  -3   7   16.63    4.96
  -4   3   7   12.56   14.11
  -4  -3   8   28.15   14.35
  -4  -3   8    6.75   12.59
  -4   3  -8   22.62   14.48
   4  -3  -8   33.26    8.21
  -4  -3  -8    9.86   15.15
  -4  -3  -8   12.65   11.78
   4  -3   8   18.53    5.02
  -4   3   8    6.74   14.46
  -4  -3   9   12.86   14.19
  -4  -3   9   14.31   12.49
  -4   3  -9   25.26    7.60
   4  -3  -9   28.30   16.41
  -4  -3  -9   10.84   14.98
  -4  -3  -9   17.23    6.06
   4  -3   9   16.80   10.11
  -4   3   9   19.89   14.49
  -4  -3  10    1.20    6.97
  -4  -3  10    4.27   11.36
  -4   3 -10    0.54   13.40
   4  -3 -10   10.67   14.10
  -4  -3 -10   -0.63    7.14
  -4  -3 -10   17.53   10.48
   4  -3  10    5.90    9.31
  -4   3  10    2.60   13.24
  -4  -4   0   23.28    6.77
   4   4   0   16.95   14.20
  -4  -4   0   19.72    6.66
  -4   4   0    5.28   14.26
   4  -4   0   50.31   12.94
   4   4   1   25.41    7.81
  -4  -4   1   23.03   13.60
  -4  -4   1   19.05    7.19
  -4   4  -1   14.02   14.67
   4  -4  -1   61.56   13.80
   4   4  -1   20.41    7.62
  -4  -4  -1   28.05   13.25
  -4  -4  -1   24.48    6.99
   4  -4   1   55.90   13.36
  -4   4   1   -0.71   16.11
   4   4   2   25.51    8.03
  -4  -4   2   36.52   13.58
  -4  -4   2   26.01    7.45
  -4   4  -2   10.32   15.34
   4  -4  -2   43.87   15.81
  -4  -4  -2   36.77   13.80
  -4  -4  -2   31.55    7.36
   4   4  -2   22.83    7.91
   4  -4   2   54.91   14.40
  -4   4   2   10.78   16.01
   4   4   3   26.58    8.03
  -4  -4   3   20.70    7.28
  -4   4  -3   12.21   15.12
   4  -4  -3   58.56   15.57
  -4  -4   3   26.81   13.09
  -4  -4  -3   30.84    7.24
   4   4  -3   25.53    7.81
  -4  -4  -3   12.19   13.51
   4  -4   3   52.95   12.94
  -4   4   3   20.48   15.52
   4   4   4   17.80    7.30
  -4  -4   4   16.18   11.65
  -4  -4   4   17.72    6.63
  -4   4  -4    5.81   13.95
   4  -4  -4    9.79   14.58
  -4  -4  -4    3.13   12.22
  -4  -4  -4   11.31    6.61
   4   4  -4   12.88    7.10
   4  -4   4   46.78   10.71
  -4   4   4   18.41   13.80
   4   4   5   10.98    7.47
  -4  -4   5   20.30   11.46
  -4  -4   5   19.84   12.86
  -4   4  -5   20.96    7.49
   4  -4  -5   20.46    8.19
  -4  -4  -5   12.99   12.09
  -4  -4  -5   16.84   12.87
   4   4  -5   23.25    7.22
   4  -4   5   32.26    5.48
  -4   4   5   15.84    7.27
  -4  -4   6   12.02   11.55
  -4  -4   6   39.07   13.09
   4   4   6   40.98   14.70
  -4   4  -6   16.32    7.62
   4  -4  -6   33.68    8.68
  -4  -4  -6    5.29    6.41
  -4  -4  -6    9.76   12.87
   4   4  -6   24.03   13.75
   4  -4   6   33.55    5.41
  -4   4   6   26.78    7.34
   4   4   7   15.68   13.44
  -4  -4   7    4.93    5.40
  -4  -4   7   -4.17   13.04
  -4   4  -7    2.53   12.83
   4  -4  -7    2.14   15.37
  -4  -4  -7   18.24    5.76
  -4  -4  -7   -5.53   12.31
   4   4  -7   -1.56   12.83
   4  -4   7    3.70    4.86
  -4   4   7    3.65    6.59
   4   4   8  -28.17   14.82
  -4  -4   8   -5.24    6.88
  -4  -4   8    2.79   10.69
  -4   4  -8   -2.00   13.06
   4  -4  -8  -43.14   16.27
  -4  -4  -8   -2.40   11.28
  -4  -4  -8   -2.99    6.32
   4   4  -8   14.28   12.64
   4  -4   8   -4.22   10.21
  -4   4   8   -4.46   12.78
   4   4   9   -2.83    8.00
  -4  -4   9    0.64    7.14
  -4  -4   9   13.86   11.83
  -4   4  -9    6.29   12.84
   4  -4  -9   11.88   14.75
  -4  -4  -9   15.27   12.51
  -4  -4  -9    1.94    6.41
   4   4  -9    0.56    6.57
   4  -4   9   14.68    9.95
  -4   4   9   -2.27   12.60
  -4  -5   0   12.51    4.27
   4  -5   0   20.85    4.46
   4  -5  -2    4.77    4.37
  -4  -5  -2    9.43    4.03
  -4  -5   3    6.60    7.62
   4  -5  -3   18.16    4.58
   4  -5   3    7.98    3.63
  -4  -5  -3    5.35    7.67
   4   5   4   14.66   10.79
  -4  -5   4    1.10    6.89
  -4  -5   4   13.56    9.73
  -4   5  -4   17.08   10.52
   4  -5  -4    7.35    8.77
  -4  -5  -4    6.66    7.24
  -4  -5  -4    5.88    9.61
   4   5  -4    8.91   10.47
   4  -5   4   -3.71    6.45
  -4   5   4   10.96   10.33
   4   5   5   17.59   10.27
  -4  -5   5    2.91    6.38
  -4  -5   5    8.34    4.83
  -4   5  -5    0.83   10.02
   4  -5  -5   -1.11    8.60
  -4  -5  -5    1.61    6.85
  -4  -5  -5   -3.68    6.82
  -4  -5  -5    0.26    4.74
   4   5  -5   15.06    9.83
   4  -5   5   -1.01    6.37
  -4   5   5   16.03    9.68
   4   5   6    3.95    5.32
  -4  -5   6   11.90    6.03
  -4  -5   6    1.51    4.72
  -4   5  -6   -1.45    5.03
   4  -5  -6  -16.27    9.18
  -4  -5  -6    5.45    6.57
  -4  -5  -6    3.45    4.43
   4   5  -6    5.76    4.82
   4  -5   6    6.46    7.26
  -4   5   6   -3.48    4.93
  -5   0   0    5.42    9.98
  -5   0  -1  381.52   38.04
  -5   0   1  367.01   37.15
  -5   0  -1  376.62   65.25
   5   0   1  340.98   55.97
  -5   0   1  398.16   63.48
   5   0  -1  337.06   56.56
   5   0  -2  -26.08   14.24
   5   0   2   -3.78   13.85
  -5   0   2    8.92   15.72
  -5   0  -2    7.32   16.05
  -5   0  -3   36.02    9.51
  -5   0  -3   57.27   10.66
   5   0   3    1.93   15.57
  -5   0   3   34.69    9.26
  -5   0   3   39.88   10.41
   5   0  -3    8.17   16.43
  -5   0  -4  517.30   45.09
   5   0   4  453.56   33.16
  -5   0   4  504.68   39.01
  -5   0   4  519.39   44.40
   5   0  -4  444.98   35.99
  -5   0  -4  433.91   39.71
  -5   0   5  135.97   45.02
  -5   0  -5  244.61   21.23
  -5   0  -5  305.82   46.22
   5   0   5  237.87   17.39
  -5   0   5  273.86   21.26
   5   0  -5  229.94   19.34
   5   0  -6   -9.78    6.91
   5   0   6  -15.37    6.11
  -5   0  -6  -45.01   15.41
  -5   0  -7  -18.86   13.69
  -5   0  -7  -12.04   12.99
   5   0   7   -4.08   10.24
  -5   0   7   -8.21   13.71
  -5   0   7  -10.51   13.41
   5   0  -7   -5.44   12.02
  -5   0  -8   65.93    9.93
  -5   0  -8   29.69   20.10
   5   0   8   52.70   16.58
  -5   0   8   61.68   20.91
   5   0  -8   55.90   20.02
  -5   0   8   65.46   10.01
  -5   0  -9   49.93   16.85
  -5   0  -9   24.48    9.29
   5   0   9   40.42    7.87
  -5   0   9   33.63   16.89
  -5   0   9   47.82    9.57
   5   0  -9   44.29    9.45
  -5   0 -10   -1.65   13.10
  -5   0 -10   11.23   13.51
   5   0  10    0.59   12.18
  -5   0  10   -1.87   12.96
  -5   0  10   -3.71   14.04
   5   0 -10    2.12   14.38
  -5  -1   0  355.94   30.35
  -5  -1   0  311.08   34.84
   5   1   0  430.43   58.38
   5  -1   0  370.86   49.91
  -5   1   0  351.01   31.86
  -5  -1   1   77.65   13.42
  -5   1  -1   87.56   12.70
   5   1   1   69.12   24.29
  -5  -1   1   69.71   11.96
   5  -1  -1  107.52   24.33
  -5  -1  -1  103.45   13.90
  -5  -1  -1  101.36   12.06
   5   1  -1   96.18   24.84
   5  -1   1   27.83   20.21
  -5   1   1   71.99   12.54
   5   1   2  763.85   94.67
  -5  -1   2  587.39   54.03
  -5   1  -2  574.84   52.10
   5  -1  -2  704.23   95.79
  -5  -1   2  554.31   48.20
  -5  -1  -2  560.09   55.54
  -5  -1  -2  550.49   48.88
   5   1  -2  774.57   97.96
   5  -1   2  736.96   92.61
  -5   1   2  552.01   51.18
   5   1   3  225.19   20.02
  -5  -1   3  233.19   21.81
  -5  -1   3  206.21   19.19
  -5   1  -3  187.73   21.01
   5  -1  -3  212.24   39.45
  -5  -1  -3  220.30   22.43
  -5  -1  -3  200.28   19.31
   5   1  -3  230.28   21.03
   5  -1   3  219.02   36.63
  -5   1   3  194.63   20.62
  -5  -1   4   67.32    9.66
  -5  -1   4   35.53    8.42
  -5   1  -4    3.12   17.87
  -5   1  -4   12.60    9.82
   5  -1  -4   41.73   17.67
   5   1   4   68.00    8.67
  -5  -1  -4   47.89    9.83
  -5  -1  -4   37.25    8.43
   5   1  -4   61.20    9.22
   5  -1   4   29.27   15.82
  -5   1   4    0.43   17.65
  -5   1   4    1.44    9.68
   5   1   5    1.96    6.57
  -5  -1   5   -0.14   12.43
  -5   1  -5  -26.03   13.96
  -5   1  -5   -4.47    7.36
   5  -1  -5  -11.92    7.08
  -5  -1   5    7.07    7.51
  -5  -1  -5   -7.78    7.50
  -5  -1  -5  -25.83   12.67
   5   1  -5   -0.17    7.04
   5  -1   5  -11.13    6.13
  -5   1   5  -30.74   13.67
  -5   1   5   -6.77    7.44
  -5  -1   6  267.46   37.27
   5   1   6  289.78   37.88
  -5  -1   6  331.03   43.75
  -5   1  -6  283.85   42.63
  -5   1  -6  256.63   23.03
   5  -1  -6  241.00   22.41
  -5  -1  -6  208.89   43.68
  -5  -1  -6  317.62   46.38
   5  -1   6  214.71   18.35
  -5   1   6  274.34   41.59
  -5   1   6  282.37   23.35
   5   1   7   59.81   17.06
  -5  -1   7   15.59   15.26
  -5  -1   7  119.15   20.93
  -5   1  -7   81.05   10.04
  -5   1  -7   41.17   19.42
   5  -1  -7   32.01   19.15
  -5  -1  -7   11.22   15.14
  -5  -1  -7  103.16   20.54
   5  -1   7   43.89   14.87
  -5   1   7   81.88   10.05
  -5   1   7   51.11   20.12
   5   1  -7   53.85   19.00
   5   1   8   15.30   10.49
  -5  -1   8   13.60    5.89
  -5  -1   8   28.50    8.12
  -5   1  -8   15.95    7.51
  -5   1  -8    4.68   13.26
   5  -1  -8   19.06   13.24
  -5  -1  -8    5.39    5.82
  -5  -1  -8   23.14    8.01
   5   1  -8   17.31   11.61
   5  -1   8   10.96    9.88
  -5   1   8   16.98    7.59
  -5   1   8   -0.70   14.08
   5   1   9   24.53    6.09
  -5  -1   9   25.00    6.29
  -5  -1   9   34.65   16.37
  -5   1  -9   27.23   14.53
  -5   1  -9   13.57    7.35
   5  -1  -9   23.97    7.56
  -5  -1  -9   10.70    6.31
  -5  -1  -9   28.39   16.15
   5   1  -9   24.54    6.69
   5  -1   9   21.48   10.46
  -5   1   9   27.92   14.75
  -5   1   9   19.43    7.77
   5   1  10   -0.04    5.92
  -5  -1  10    8.22   12.69
  -5  -1  10    5.26   10.50
  -5   1 -10    0.51   13.32
  -5   1 -10   -4.41   12.32
   5  -1 -10   10.32   13.10
  -5  -1 -10    9.27   12.81
  -5  -1 -10   -6.33   14.42
   5   1 -10    0.15    6.30
   5  -1  10    2.77    9.64
  -5   1  10    0.85   13.46
  -5   1  10    2.66   13.23
  -5  -2   0   79.27   12.26
  -5  -2   0  128.69   10.50
  -5   2   0  110.80   13.62
   5  -2   0  137.09   20.91
   5   2   0  135.46   10.45
   5   2   1   16.56    5.88
  -5  -2   1   12.22    6.92
  -5  -2   1   17.60    5.72
  -5   2  -1   20.07    7.65
   5  -2  -1   12.56   11.54
  -5  -2  -1   15.11    6.78
  -5  -2  -1   15.76    5.89
   5   2  -1   10.36    6.05
   5  -2   1   19.03   11.45
  -5   2   1   12.97    7.88
   5   2   2  159.05   11.33
  -5  -2   2   74.23   13.05
  -5  -2   2  136.83   11.06
  -5   2  -2  139.64   26.56
   5  -2  -2  130.92   22.06
  -5  -2  -2  155.78   12.97
  -5  -2  -2  135.01   11.38
   5   2  -2  146.79   11.66
   5  -2   2  135.73   20.95
  -5   2   2   91.42   14.96
   5   2   3    8.85    5.37
  -5  -2   3    9.45    5.31
  -5  -2   3    2.36    6.11
  -5   2  -3   -7.48   12.95
   5  -2  -3    8.37   10.77
  -5  -2  -3    9.03    6.11
  -5  -2  -3   -1.92    5.47
   5   2  -3    3.60    5.55
   5  -2   3    8.28    9.80
  -5   2   3    1.57   13.07
   5   2   4  156.80   10.51
  -5  -2   4   96.82   22.36
  -5  -2   4  145.00   10.38
  -5   2  -4  118.15   24.96
   5  -2  -4   86.21   10.98
  -5  -2  -4   97.67   22.24
  -5  -2  -4   86.24   10.61
   5  -2   4  121.89    9.57
  -5   2   4   73.59   24.80
   5   2  -4  138.07   10.87
   5   2   5   29.30    6.06
  -5  -2   5   23.28   13.04
  -5  -2   5   23.02   11.19
  -5   2  -5   60.63   15.15
   5  -2  -5   26.55    6.42
  -5  -2  -5   12.57   13.15
  -5  -2  -5   32.52   11.23
   5   2  -5   27.57    6.32
   5  -2   5   21.94    5.29
  -5   2   5    9.81   14.98
   5   2   6    5.87    5.52
  -5  -2   6   24.48   12.53
  -5   2  -6   20.52   13.70
   5  -2  -6    7.56    5.90
  -5  -2   6   12.99   10.03
  -5  -2  -6   13.71   10.19
  -5  -2  -6   30.05   12.56
   5   2  -6   14.52    5.79
   5  -2   6   10.57    4.43
  -5   2   6   26.32   13.46
   5   2   7    0.10    5.33
  -5  -2   7    7.08   13.01
  -5  -2   7   -6.93   11.80
  -5   2  -7    5.21    6.30
   5  -2  -7   -0.67   10.87
  -5  -2  -7   -2.10   13.24
  -5  -2  -7    7.34   11.51
   5   2  -7    7.39    5.61
   5  -2   7    1.78    7.49
  -5   2   7    6.41    6.43
   5   2   8    9.30    6.55
  -5  -2   8   13.00    7.73
  -5  -2   8   38.59    7.09
  -5   2  -8   25.91   13.84
   5  -2  -8   16.83   15.75
  -5  -2  -8   14.75    7.86
  -5  -2  -8   33.31    6.87
   5   2  -8   14.78    6.92
   5  -2   8   23.07   10.12
  -5   2   8   29.39    7.46
  -5  -2   9   13.29   13.50
  -5  -2   9    6.95   12.14
  -5   2  -9  -12.56   12.39
  -5   2  -9   -2.53    6.85
   5  -2  -9    9.56    7.87
  -5  -2  -9    4.82   14.01
  -5  -2  -9   -7.70   11.67
   5  -2   9    4.71    4.79
  -5   2   9    5.66   12.74
  -5   2   9    8.31    7.40
  -5  -3   0   46.17   16.40
   5   3   0   21.62    8.44
  -5  -3   0   29.43    7.32
  -5   3   0   29.65    7.65
   5  -3   0   59.68    6.52
   5   3   1    7.70    7.13
  -5  -3   1   12.95    6.09
  -5  -3   1    9.87   14.21
  -5   3  -1    7.81    6.34
   5  -3  -1    7.00    5.11
  -5  -3  -1    7.56    6.11
  -5  -3  -1    7.78   13.70
   5   3  -1   12.80    7.22
   5  -3   1   18.15    5.12
  -5   3   1    6.51    6.87
  -5  -3   2   11.01    5.99
  -5  -3   2    9.40   13.68
  -5   3  -2   11.87   11.88
   5  -3  -2    5.81    5.17
  -5  -3  -2   15.41    6.10
  -5  -3  -2   -1.75   13.62
   5  -3   2    4.88    4.78
  -5   3   2   10.51   12.46
  -5  -3   3   18.16   15.09
  -5   3  -3   18.86   13.06
  -5  -3   3   12.75    6.54
   5  -3  -3   25.00    5.78
  -5  -3  -3   10.98    6.73
  -5  -3  -3   24.81   14.80
   5  -3   3   32.15    5.06
  -5   3   3   12.45   13.46
  -5  -3   4   16.49    6.32
  -5  -3   4    7.94   12.15
  -5   3  -4   14.08   12.82
   5  -3  -4   23.37    5.76
  -5  -3  -4   16.06    6.60
  -5  -3  -4    8.29   12.17
   5  -3   4   27.69    4.65
  -5   3   4    6.58   12.97
  -5  -3   5   25.50   12.19
  -5  -3   5   34.38   12.18
  -5   3  -5   12.99   14.41
   5  -3  -5   22.00   11.53
  -5  -3  -5   12.54   12.58
  -5  -3  -5   20.86   12.31
   5  -3   5   34.38    8.50
  -5   3   5   18.43   14.22
  -5  -3   6   14.70   11.31
  -5  -3   6   18.28    6.03
  -5   3  -6   10.81   13.62
   5  -3  -6   20.76   11.27
  -5  -3  -6   16.01   11.85
  -5  -3  -6   15.28    6.06
   5  -3   6   14.90    7.25
  -5   3   6    9.42   13.37
  -5  -3   7   15.71   12.52
  -5  -3   7   44.13    6.78
  -5   3  -7   28.80    7.81
   5  -3  -7   12.43   11.90
  -5  -3  -7   15.46   13.24
  -5  -3  -7   22.56    6.57
   5  -3   7   12.43    6.80
  -5   3   7   51.89    7.80
  -5  -3   8   37.62    7.47
  -5  -3   8   86.25   14.66
  -5   3  -8   39.77    8.92
   5  -3  -8   43.45   14.00
  -5  -3  -8   41.08    7.88
  -5  -3  -8   26.33   14.06
   5  -3   8   26.67    7.29
  -5   3   8   65.01    8.92
   5  -4  -4   21.05    7.20
  -5  -4  -4   -4.34    4.01
   5  -4   4   21.17    4.64
   5   4   5   16.29    5.67
  -5  -4   5   -2.96    3.49
  -5  -4   5   11.39    5.32
  -5   4  -5    4.66    9.74
   5  -4  -5   12.61    7.08
  -5  -4  -5    1.70    7.06
  -5  -4  -5    8.04    5.31
   5   4  -5   21.14    5.31
   5  -4   5   -0.44    3.82
  -5   4   5   27.96    9.68
   5   4   6   -3.27    5.29
  -5  -4   6    3.19    5.90
  -5  -4   6    0.78    9.51
  -5   4  -6    5.47    8.96
   5  -4  -6    5.98    3.48
  -5  -4  -6   -0.38    6.36
  -5  -4  -6    6.51    9.00
   5   4  -6   18.01    4.67
   5  -4   6   -1.54    1.67
  -5   4   6   -5.55    9.03
  -6   0   0    9.30    5.12
  -6   0   0   13.61   13.09
   6   0   0   -0.77    4.39
  -6   0  -1   41.10    6.19
  -6   0  -1   37.97   16.06
   6   0   1   27.43    5.37
  -6   0   1   25.36    5.99
  -6   0   1   29.05   15.68
   6   0  -1   28.51    5.33
  -6   0  -2   12.67    5.23
  -6   0   2    3.82    5.14
  -6   0  -2   16.84   13.89
   6   0   2    6.85    4.54
  -6   0   2    5.84   13.58
   6   0  -2   14.34    4.60
  -6   0   3   -6.65   12.87
  -6   0  -3   -3.66    4.85
  -6   0  -3   10.40   13.09
   6   0   3   -3.45    4.09
  -6   0   3    3.19    4.72
   6   0  -3    1.43    4.31
  -6   0  -4   12.47   12.31
  -6   0  -4    4.04    9.56
   6   0   4    4.30    4.14
  -6   0   4   -1.77   11.86
  -6   0   4   10.06    9.32
   6   0  -4   12.78    4.52
  -6   0  -5   54.79   14.21
  -6   0  -5   21.79   10.94
   6   0   5   20.47    8.80
  -6   0   5   62.28   13.64
  -6   0   5   31.26   10.80
   6   0  -5   13.90    9.87
  -6   0  -6    4.47    6.20
  -6   0  -6   -4.45   10.18
   6   0   6   -2.40    7.01
  -6   0   6   10.90    6.03
  -6   0   6    3.16   10.16
   6   0  -6   -3.38    8.21
  -6   0  -7   81.39    9.72
  -6   0  -7   40.89   15.41
   6   0   7   44.96   12.30
  -6   0   7   73.23    9.75
  -6   0   7   54.70   15.57
   6   0  -7  114.01   14.81
  -6  -1   0    0.74   10.68
  -6  -1   0   -3.32    5.25
   6   1   0   -4.27    4.71
  -6   1   0   -5.43   11.28
  -6   1   0    5.37    5.30
   6  -1   0   -5.23    4.74
   6   1   1    1.69    4.70
  -6  -1   1   -3.77   10.49
  -6  -1   1    4.96    5.01
  -6   1  -1   -6.99   11.25
  -6   1  -1    3.31    5.18
   6  -1  -1    0.10    4.50
  -6  -1  -1  -12.26   10.54
   6   1  -1    6.41    4.75
  -6  -1  -1    9.45    5.10
   6  -1   1  -13.37    4.62
  -6   1   1   -8.73   11.23
  -6   1   1   -5.94    5.10
   6   1   2    1.75    4.76
  -6  -1   2    8.99    5.06
  -6  -1   2    1.02   12.99
  -6   1  -2  -16.24   11.58
  -6   1  -2   -1.02    5.20
   6  -1  -2   -4.10    4.61
  -6  -1  -2   -9.89   13.15
   6   1  -2    3.89    4.85
   6  -1   2   -0.85    4.49
  -6   1   2   -4.14   11.40
  -6   1   2    5.97    5.14
  -6  -1  -2    7.20    5.17
   6   1   3    4.51    4.80
  -6  -1   3   10.74    5.15
  -6  -1   3   -2.56   13.15
  -6   1  -3    1.67   11.86
  -6   1  -3    8.01   10.03
   6  -1  -3    6.45    4.77
  -6  -1  -3   -3.53    5.33
  -6  -1  -3    4.68   13.28
   6  -1   3    1.29    4.48
  -6   1   3    5.09   11.72
  -6   1   3    6.42    9.84
   6   1  -3    8.63    5.01
   6   1   4    7.19    4.74
  -6  -1   4   12.67    5.23
  -6  -1   4   -8.37   13.21
  -6   1  -4   14.16   12.21
  -6   1  -4    9.30   10.19
   6  -1  -4    5.58    9.33
  -6  -1  -4    3.45    5.40
  -6  -1  -4    7.35   13.48
   6   1  -4   10.31    5.12
   6  -1   4    1.98    8.34
  -6   1   4    5.77   11.89
  -6   1   4    5.75    9.94
   6   1   5   -1.58    4.48
  -6  -1   5    3.09    9.46
  -6  -1   5   -7.21    6.51
  -6   1  -5    1.06   11.73
  -6   1  -5   -1.12    8.92
   6  -1  -5    6.55    8.96
  -6  -1  -5   -4.90    6.73
   6   1  -5   20.11    4.87
  -6  -1  -5   -1.23    9.64
   6  -1   5    9.94    7.72
  -6   1   5   -7.67   11.29
  -6   1   5  -10.46    8.88
   6   1   6   28.23    9.57
  -6  -1   6   28.10   11.05
  -6  -1   6   31.90    7.83
  -6   1  -6   39.99   13.95
  -6   1  -6   22.77   10.34
   6  -1  -6   22.51    9.47
  -6  -1  -6   42.58   11.14
  -6  -1  -6   37.86    7.98
   6   1  -6   18.78   10.66
   6  -1   6   26.85    7.80
  -6   1   6   42.64   13.75
  -6   1   6    8.78   10.34
   6   1   7   -0.45    6.14
  -6  -1   7   -0.08    7.01
  -6  -1   7   11.34    6.73
  -6   1  -7   25.11    6.18
  -6   1  -7   -0.73    4.43
   6  -1  -7   -3.82    7.85
  -6  -1  -7    0.35    7.08
  -6  -1  -7   18.90    6.63
   6   1  -7   -3.00    7.01
   6  -1   7  -11.43    6.06
  -6   1   7   24.59    6.25
  -6   1   7   -9.77    4.49
   6   2   4   -0.56    2.91
   6  -2  -4    6.14    5.84
  -6  -2  -4   -2.26    3.02
   6   2  -4    6.52    3.12
   6   2   5    8.56    3.06
  -6  -2   5    9.16    5.58
  -6  -2   5   28.63    5.04
  -6   2  -5   48.95   10.46
   6  -2  -5   11.40    7.49
  -6  -2  -5   13.13    5.89
  -6  -2  -5   22.75    5.14
   6   2  -5    8.80    3.31
   6  -2   5    3.40    6.04
  -6   2   5   45.81   10.46
   6   2   6    1.60    2.59
  -6  -2   6   -1.61    4.82
  -6  -2   6   -7.79    4.41
  -6   2  -6  -11.65    8.95
  -6   2  -6   -1.50    3.43
   6  -2  -6    2.17    6.42
  -6  -2  -6    2.64    5.00
  -6  -2  -6   -0.12    4.32
   6   2  -6    3.20    2.78
   6  -2   6   -5.80    4.92
  -6   2   6  -12.96    9.25
  -6   2   6    0.77    3.40
;
loop_
_symmetry_equiv_pos_site_id
_space_group_symop_operation_xyz
1 +X,+Y,+Z
2 1/2+X,1/2-Y,-Z
3 -X,1/2+Y,1/2-Z
4 1/2-X,-Y,1/2+Z
loop_
_atom_site_label
_atom_site_type_symbol
_atom_site_fract_x
_atom_site_fract_y
_atom_site_fract_z
_atom_site_U_iso_or_equiv
_atom_site_adp_type
_atom_site_occupancy
_atom_site_site_symmetry_multiplicity
_atom_site_calc_flag
_atom_site_refinement_flags
O1 O 0.3713(11) 0.2713(14) 0.0842(5) 0.074(2) Uani 1 4 d .
O2 O 0.2387(12) 0.5512(13) 0.1857(6) 0.073(2) Uani 1 4 d .
N1 N 0.8121(11) 0.3433(14) 0.1387(7) 0.068(3) Uani 1 4 d .
C1 C 0.6434(15) 0.5206(17) 0.1602(7) 0.063(2) Uani 1 4 d .
C2 C 0.7009(18) 0.7236(19) 0.0906(9) 0.072(3) Uani 1 4 d .
C3 C 0.3961(14) 0.4385(17) 0.1415(7) 0.061(2) Uani 1 4 d .
H1 H 0.65771 0.56338 0.23663 0.0750 Uiso 1 4 calc R
H1A H 0.9546 0.39427 0.15 0.0817 Uiso 1 4 calc R
H1B H 0.78495 0.22974 0.18306 0.0817 Uiso 1 4 calc R
H1C H 0.79867 0.29855 0.07015 0.0817 Uiso 1 4 calc R
H2A H 0.59047 0.83886 0.10486 0.0859 Uiso 1 4 calc R
H2B H 0.8535 0.77536 0.10822 0.0859 Uiso 1 4 calc R
H2C H 0.69482 0.68388 0.0152 0.0859 Uiso 1 4 calc R
loop_
_atom_site_aniso_label
_atom_site_aniso_U_11
_atom_site_aniso_U_22
_atom_site_aniso_U_33
_atom_site_aniso_U_12
_atom_site_aniso_U_13
_atom_site_aniso_U_23
O1 0.047(3) 0.110(5) 0.067(5) -0.005(4) -0.003(3) -0.010(4)
O2 0.051(3) 0.099(5) 0.069(4) 0.003(4) 0.006(3) -0.009(4)
N1 0.038(4) 0.103(6) 0.063(5) -0.008(3) 0.002(3) -0.001(5)
C1 0.050(5) 0.086(6) 0.052(5) -0.001(4) -0.006(4) -0.009(4)
C2 0.056(5) 0.086(7) 0.073(7) -0.007(5) -0.002(4) 0.007(5)
C3 0.049(5) 0.091(6) 0.043(5) -0.009(5) 0.002(4) -0.001(4)
loop_
_atom_type_symbol
_atom_type_description
_atom_type_scat_dispersion_real
_atom_type_scat_dispersion_imag
_atom_type_scat_source
C C 0.0033 0.0016
;
International Tables for Crystallography
(Vol. C, Tables 4.2.6.8 and 6.1.1.4)
;
O O 0.0106 0.0060
;
International Tables for Crystallography
(Vol. C, Tables 4.2.6.8 and 6.1.1.4)
;
N N 0.0061 0.0033
;
International Tables for Crystallography
(Vol. C, Tables 4.2.6.8 and 6.1.1.4)
;
H H 0.0000 0.0000
;
International Tables for Crystallography
(Vol. C, Table 6.1.1.4)
;
loop_
_geom_angle_atom_site_label_1
_geom_angle_atom_site_label_2
_geom_angle_atom_site_label_3
_geom_angle
_geom_angle_publ_flag
N1 C1 C2 109.7(8) yes
N1 C1 C3 110.9(8) yes
C2 C1 C3 112.2(8) yes
O1 C3 O2 127.0(8) yes
O1 C3 C1 117.2(8) yes
O2 C3 C1 115.8(8) yes
C1 N1 H1A 109.474 no
C1 N1 H1B 109.467 no
C1 N1 H1C 109.473 no
H1A N1 H1B 109.464 no
H1A N1 H1C 109.476 no
H1B N1 H1C 109.473 no
N1 C1 H1 107.954 no
C2 C1 H1 107.947 no
C3 C1 H1 107.956 no
C1 C2 H2A 109.476 no
C1 C2 H2B 109.475 no
C1 C2 H2C 109.469 no
H2A C2 H2B 109.476 no
H2A C2 H2C 109.465 no
H2B C2 H2C 109.466 no
loop_
_geom_bond_atom_site_label_1
_geom_bond_atom_site_label_2
_geom_bond_distance
_geom_bond_publ_flag
O1 C3 1.240(13) yes
O2 C3 1.259(11) yes
N1 C1 1.471(12) yes
C1 C2 1.531(15) yes
C1 C3 1.529(12) yes
N1 H1A 0.890 no
N1 H1B 0.890 no
N1 H1C 0.890 no
C1 H1 0.980 no
C2 H2A 0.960 no
C2 H2B 0.960 no
C2 H2C 0.960 no
loop_
_geom_contact_atom_site_label_1
_geom_contact_atom_site_label_2
_geom_contact_distance
_geom_contact_publ_flag
_geom_contact_site_symmetry_2
O1 N1 2.669(9) no .
O1 C2 3.329(13) no .
O2 N1 3.589(10) no .
O2 C2 3.096(13) no .
O1 O1 3.565(9) no 2_455
O1 O1 3.565(9) no 2_555
O1 N1 3.328(9) no 1_455
O1 N1 2.852(11) no 2_455
O1 C1 3.494(12) no 3_645
O2 N1 2.826(10) no 1_455
O2 N1 2.805(11) no 3_655
O2 C1 3.459(11) no 1_455
O2 C1 3.477(12) no 3_655
O2 C2 3.480(12) no 1_455
O2 C2 3.408(13) no 3_645
N1 O1 3.328(9) no 1_655
N1 O1 2.852(11) no 2_555
N1 O2 2.826(10) no 1_655
N1 O2 2.805(11) no 3_645
N1 C3 3.423(11) no 1_655
C1 O1 3.494(12) no 3_655
C1 O2 3.459(11) no 1_655
C1 O2 3.477(12) no 3_645
C1 C3 3.518(14) no 3_655
C2 O2 3.480(12) no 1_655
C2 O2 3.408(13) no 3_655
C2 C3 3.588(14) no 3_655
C3 N1 3.423(11) no 1_455
C3 C1 3.518(14) no 3_645
C3 C2 3.588(14) no 3_645
O1 H1 3.0611 no .
O1 H1A 3.5446 no .
O1 H1B 2.6938 no .
O1 H1C 2.4806 no .
O1 H2C 3.2273 no .
O2 H1 2.5013 no .
O2 H2A 2.8523 no .
O2 H2C 3.4634 no .
N1 H2A 3.2799 no .
N1 H2B 2.6454 no .
N1 H2C 2.6454 no .
C2 H1A 2.5755 no .
C2 H1B 3.2272 no .
C2 H1C 2.6387 no .
C3 H1A 3.2393 no .
C3 H1B 2.6260 no .
C3 H1C 2.6260 no .
C3 H2A 2.7023 no .
C3 H2B 3.3591 no .
C3 H2C 2.7554 no .
H1 H1A 2.2631 no .
H1 H1B 2.2427 no .
H1 H1C 2.7242 no .
H1 H2A 2.3555 no .
H1 H2B 2.3274 no .
H1 H2C 2.8304 no .
H1A H2A 3.4545 no .
H1A H2B 2.4280 no .
H1A H2C 2.8396 no .
H1B H2B 3.4422 no .
H1B H2C 3.4722 no .
H1C H2A 3.5017 no .
H1C H2B 2.9326 no .
H1C H2C 2.4951 no .
O1 H1 2.5440 no 3_645
O1 H1A 2.6463 no 1_455
O1 H1A 3.0900 no 2_455
O1 H1B 3.3289 no 2_455
O1 H1C 3.3167 no 1_455
O1 H1C 1.9916 no 2_455
O1 H2A 2.9118 no 1_545
O1 H2C 3.1754 no 2_455
O2 H1 3.4156 no 1_455
O2 H1 3.1524 no 3_645
O2 H1 3.2905 no 3_655
O2 H1A 1.9455 no 1_455
O2 H1A 3.1028 no 3_655
O2 H1B 3.2614 no 1_455
O2 H1B 1.9471 no 3_655
O2 H1C 3.2885 no 1_455
O2 H1C 3.3636 no 3_655
O2 H2A 3.0439 no 3_645
O2 H2B 2.7741 no 1_455
O2 H2B 3.0811 no 3_645
O2 H2C 2.9573 no 2_465
N1 H1 3.5462 no 3_645
N1 H2A 3.3286 no 1_545
N1 H2B 3.4562 no 1_545
C1 H1 3.5007 no 3_645
C1 H1B 3.3831 no 3_655
C1 H2A 3.3768 no 3_645
C2 H1B 3.2957 no 1_565
C2 H1C 3.5245 no 1_565
C2 H2A 3.3171 no 2_565
C2 H2B 3.1663 no 2_465
C2 H2C 3.2494 no 2_465
C2 H2C 3.1863 no 2_565
C3 H1 2.7337 no 3_645
C3 H1A 2.5666 no 1_455
C3 H1B 2.9747 no 3_655
C3 H1C 3.0266 no 2_455
C3 H2A 3.1815 no 3_645
C3 H2B 3.5360 no 2_465
C3 H2B 3.5421 no 3_645
C3 H2C 3.2049 no 2_465
H1 O1 2.5440 no 3_655
H1 O2 3.4156 no 1_655
H1 O2 3.2905 no 3_645
H1 O2 3.1524 no 3_655
H1 N1 3.5462 no 3_655
H1 C1 3.5007 no 3_655
H1 C3 2.7337 no 3_655
H1 H1 3.5404 no 3_645
H1 H1 3.5404 no 3_655
H1 H1A 3.3096 no 3_755
H1 H1B 2.9200 no 3_655
H1 H1B 3.5148 no 3_755
H1 H2A 2.7753 no 3_645
H1A O1 2.6463 no 1_655
H1A O1 3.0900 no 2_555
H1A O2 1.9455 no 1_655
H1A O2 3.1028 no 3_645
H1A C3 2.5666 no 1_655
H1A H1 3.3096 no 3_745
H1A H1B 3.2542 no 3_755
H1A H1C 3.5576 no 2_555
H1A H2B 3.2574 no 3_745
H1A H2C 3.5421 no 2_565
H1B O1 3.3289 no 2_555
H1B O2 3.2614 no 1_655
H1B O2 1.9471 no 3_645
H1B C1 3.3831 no 3_645
H1B C2 3.2957 no 1_545
H1B C3 2.9747 no 3_645
H1B H1 2.9200 no 3_645
H1B H1 3.5148 no 3_745
H1B H1A 3.2542 no 3_745
H1B H2A 2.7847 no 1_545
H1B H2A 3.4583 no 3_645
H1B H2B 2.9199 no 1_545
H1B H2B 3.3236 no 3_745
H1C O1 3.3167 no 1_655
H1C O1 1.9916 no 2_555
H1C O2 3.2885 no 1_655
H1C O2 3.3636 no 3_645
H1C C2 3.5245 no 1_545
H1C C3 3.0266 no 2_555
H1C H1A 3.5576 no 2_455
H1C H1C 3.4166 no 2_455
H1C H1C 3.4166 no 2_555
H1C H2A 3.0538 no 1_545
H1C H2A 3.5037 no 2_565
H1C H2B 3.2077 no 1_545
H2A O1 2.9118 no 1_565
H2A O2 3.0439 no 3_655
H2A N1 3.3286 no 1_565
H2A C1 3.3768 no 3_655
H2A C2 3.3171 no 2_465
H2A C3 3.1815 no 3_655
H2A H1 2.7753 no 3_655
H2A H1B 2.7847 no 1_565
H2A H1B 3.4583 no 3_655
H2A H1C 3.0538 no 1_565
H2A H1C 3.5037 no 2_465
H2A H2B 3.0390 no 2_465
H2A H2C 2.7257 no 2_465
H2B O2 2.7741 no 1_655
H2B O2 3.0811 no 3_655
H2B N1 3.4562 no 1_565
H2B C2 3.1663 no 2_565
H2B C3 3.5360 no 2_565
H2B C3 3.5421 no 3_655
H2B H1A 3.2574 no 3_755
H2B H1B 2.9199 no 1_565
H2B H1B 3.3236 no 3_755
H2B H1C 3.2077 no 1_565
H2B H2A 3.0390 no 2_565
H2B H2C 2.5018 no 2_565
H2C O1 3.1754 no 2_555
H2C O2 2.9573 no 2_565
H2C C2 3.1863 no 2_465
H2C C2 3.2494 no 2_565
H2C C3 3.2049 no 2_565
H2C H1A 3.5421 no 2_465
H2C H2A 2.7257 no 2_565
H2C H2B 2.5018 no 2_465
H2C H2C 3.0201 no 2_465
H2C H2C 3.0201 no 2_565
loop_
_geom_hbond_atom_site_label_D
_geom_hbond_atom_site_label_H
_geom_hbond_atom_site_label_A
_geom_hbond_site_symmetry_A
_geom_hbond_distance_DA
_geom_hbond_distance_DH
_geom_hbond_distance_HA
_geom_hbond_angle_DHA
_geom_hbond_publ_flag
N1 H1A O2 1_655 2.826(10) 0.890 1.946 169.8 no
N1 H1B O2 3_645 2.805(11) 0.890 1.947 161.4 no
N1 H1C O1 . 2.669(9) 0.890 2.481 92.3 no
N1 H1C O1 2_555 2.852(11) 0.890 1.992 162.1 no
loop_
_geom_torsion_atom_site_label_1
_geom_torsion_atom_site_label_2
_geom_torsion_atom_site_label_3
_geom_torsion_atom_site_label_4
_geom_torsion
_geom_torsion_publ_flag
N1 C1 C3 O1 -20.1(11) no
N1 C1 C3 O2 160.6(7) no
C2 C1 C3 O1 103.0(10) no
C2 C1 C3 O2 -76.3(10) no
