#------------------------------------------------------------------------------
#$Date: 2016-04-05 18:34:15 +0300 (Tue, 05 Apr 2016) $
#$Revision: 181620 $
#$URL: svn://www.crystallography.net/cod/cif/7/22/39/7223939.cif $
#------------------------------------------------------------------------------
#
# This file is available in the Crystallography Open Database (COD),
# http://www.crystallography.net/
#
# All data on this site have been placed in the public domain by the
# contributors.
#
data_7223939
loop_
_publ_author_name
'Tsuboi, Chiaki'
'Aburaya, Kazuaki'
'Kimura, Fumiko'
'Maeyama, Masataka'
'Kimura, Tsunehisa'
_publ_section_title
;
 Single-crystal structure determination from microcrystalline powders
 (\sim 5 \mm) by an orientation attachment mountable on an in-house X-ray
 diffractometer
;
_journal_issue                   14
_journal_name_full               CrystEngComm
_journal_page_first              2404
_journal_paper_doi               10.1039/C5CE02307F
_journal_volume                  18
_journal_year                    2016
_chemical_absolute_configuration 'CHOOSE rm ad rmad syn or unk'
_chemical_formula_moiety         'C3 H7 N O2'
_chemical_formula_sum            'C3 H7 N O2'
_chemical_formula_weight         89.09
_chemical_name_systematic        L-alanine
_space_group_crystal_system      orthorhombic
_space_group_IT_number           19
_space_group_name_Hall           'P 2ac 2ab'
_space_group_name_H-M_alt        'P 21 21 21'
_symmetry_space_group_name_Hall  'P 2ac 2ab'
_symmetry_space_group_name_H-M   'P 21 21 21'
_atom_sites_solution_hydrogens   geom
_atom_sites_solution_primary     direct
_atom_sites_solution_secondary   difmap
_audit_update_record
;
2015-10-04 deposited with the CCDC.
2016-01-19 downloaded from the CCDC.
;
_cell_angle_alpha                90.0000
_cell_angle_beta                 90.0000
_cell_angle_gamma                90.0000
_cell_formula_units_Z            4
_cell_length_a                   5.779(2)
_cell_length_b                   6.031(2)
_cell_length_c                   12.318(4)
_cell_measurement_reflns_used    2320
_cell_measurement_temperature    296
_cell_measurement_theta_max      25.72
_cell_measurement_theta_min      3.76
_cell_volume                     429.3(2)
_computing_cell_refinement       'RAPID AUTO'
_computing_data_collection       'RAPID AUTO (Rigaku, ????)'
_computing_data_reduction        'RAPID AUTO'
_computing_molecular_graphics    'CrystalStructure 4.1'
_computing_publication_material  'CrystalStructure 4.1 (Rigaku, 2014)'
_computing_structure_refinement  'SHELXL2013 (Sheldrick, 2008)'
_computing_structure_solution    'SIR2011 (Burla, et al., 2012)'
_diffrn_ambient_temperature      296
_diffrn_detector_area_resol_mean 10.000
_diffrn_measured_fraction_theta_full 0.845
_diffrn_measured_fraction_theta_max 0.832
_diffrn_measurement_device_type  'Rigaku R-AXIS RAPID'
_diffrn_measurement_method       \w
_diffrn_radiation_type           'Mo K\a'
_diffrn_radiation_wavelength     0.71075
_diffrn_reflns_av_R_equivalents  0.0315
_diffrn_reflns_Laue_measured_fraction_full 0.845
_diffrn_reflns_Laue_measured_fraction_max 0.832
_diffrn_reflns_limit_h_max       6
_diffrn_reflns_limit_h_min       -6
_diffrn_reflns_limit_k_max       6
_diffrn_reflns_limit_k_min       -6
_diffrn_reflns_limit_l_max       13
_diffrn_reflns_limit_l_min       -13
_diffrn_reflns_number            3240
_diffrn_reflns_point_group_measured_fraction_full 0.858
_diffrn_reflns_point_group_measured_fraction_max 0.846
_diffrn_reflns_theta_full        25.242
_diffrn_reflns_theta_max         25.660
_diffrn_reflns_theta_min         3.762
_diffrn_standards_number         0
_exptl_absorpt_coefficient_mu    0.115
_exptl_absorpt_correction_T_max  0.989
_exptl_absorpt_correction_T_min  0.864
_exptl_absorpt_correction_type   multi-scan
_exptl_absorpt_process_details   'ABSCOR (Rigaku, 1995)'
_exptl_crystal_colour            colorless
_exptl_crystal_density_diffrn    1.378
_exptl_crystal_density_method    'not measured'
_exptl_crystal_description
'microcrystalline powder suspension (20-45 micrometer)'
_exptl_crystal_F_000             192.00
_exptl_crystal_size_max          0.100
_exptl_crystal_size_mid          0.100
_exptl_crystal_size_min          0.100
_refine_diff_density_max         0.16
_refine_diff_density_min         -0.20
_refine_ls_abs_structure_details
;
 Flack x determined using 241 quotients [(I+)-(I-)]/[(I+)+(I-)]
 (Parsons and Flack (2004), Acta Cryst. A60, s61).
;
_refine_ls_abs_structure_Flack   0.4(6)
_refine_ls_extinction_method     none
_refine_ls_goodness_of_fit_ref   1.106
_refine_ls_hydrogen_treatment    constr
_refine_ls_number_parameters     55
_refine_ls_number_reflns         680
_refine_ls_number_restraints     0
_refine_ls_R_factor_all          0.0450
_refine_ls_R_factor_gt           0.0421
_refine_ls_shift/su_max          0.000
_refine_ls_structure_factor_coef Fsqd
_refine_ls_weighting_details
'w = 1/[\s^2^(Fo^2^)+(0.0386P)^2^+0.2607P] where P=(Fo^2^+2Fc^2^)/3'
_refine_ls_weighting_scheme      calc
_refine_ls_wR_factor_gt          0.0977
_refine_ls_wR_factor_ref         0.1012
_reflns_number_gt                649
_reflns_number_total             680
_reflns_threshold_expression     F^2^>2.0\s(F^2^)
_cod_data_source_file            c5ce02307f2.cif
_cod_data_source_block           20150717_alanine_20_45_20w
_cod_depositor_comments
'Adding full bibliography for 7223939--7223940.cif.'
_cod_original_cell_volume        429.3(3)
_cod_database_code               7223939
_shelxl_res_file
;
TITL 20150717_alanine_20_45_20wt_momsorthorhombic
CELL  0.71075 5.77870 6.03110 12.31750 90.00000 90.00000 90.00000
ZERR  4 0.00210 0.00240 0.00420 0.00000 0.00000 0.00000
LATT -1
SYMM .50+X, .50-Y,    -Z
SYMM    -X, .50+Y, .50-Z
SYMM .50-X,    -Y, .50+Z
SFAC C H O N
UNIT 12 28 8 4
L.S. 5
FMAP 2
PLAN -21
WPDB -2
HTAB
BOND $H
CONF
LIST 4
TEMP 23.0
ACTA
SIZE 0.100 0.100 0.100
WGHT    0.038600    0.260700
FVAR       2.32038
O1    3    0.238966    0.050261    0.185241    11.00000    0.02413    0.05878 =
         0.04544   -0.00822    0.00458    0.00146
O2    3    0.371815   -0.228406    0.084283    11.00000    0.03369    0.05772 =
         0.04025   -0.01025   -0.00329   -0.00519
N3    4    0.814342   -0.155975    0.138055    11.00000    0.02235    0.04878 =
         0.03743   -0.00244    0.00063   -0.00069
AFIX  33
H3A   2    0.782897   -0.273433    0.179231    11.00000   -1.20000
H3B   2    0.805126   -0.193832    0.068352    11.00000   -1.20000
H3C   2    0.956588   -0.107846    0.152615    11.00000   -1.20000
AFIX   0
C4    1    0.644263    0.023486    0.161438    11.00000    0.02013    0.04378 =
         0.03276   -0.00425   -0.00052    0.00040
AFIX  13
H4    2    0.658747    0.066140    0.237908    11.00000   -1.20000
AFIX   0
C5    1    0.397715   -0.060326    0.141512    11.00000    0.02433    0.04839 =
         0.02443    0.00069   -0.00004   -0.00369
C6    1    0.697247    0.223791    0.091472    11.00000    0.03367    0.04885 =
         0.04912    0.00547   -0.00055   -0.00423
AFIX  33
H6A   2    0.587470    0.339154    0.106679    11.00000   -1.20000
H6B   2    0.850608    0.275939    0.107149    11.00000   -1.20000
H6C   2    0.687232    0.183190    0.016259    11.00000   -1.20000
AFIX   0
HKLF 4
 
REM  20150717_alanine_20_45_20wt_momsorthorhombic
REM R1 =  0.0421 for     649 Fo > 4sig(Fo)  and  0.0450 for all     680 data
REM     55 parameters refined using      0 restraints
 
END  
     
WGHT      0.0386      0.2608 

REM Instructions for potential hydrogen bonds
EQIV $1 -x+1, y-1/2, -z+1/2
HTAB N3 O1_$1
EQIV $2 x+1/2, -y-1/2, -z
HTAB N3 O2_$2
EQIV $3 x+1, y, z
HTAB N3 O1_$3
HTAB N3 O2_$3
EQIV $4 -x+1, y+1/2, -z+1/2
HTAB C4 O2_$4

REM Highest difference peak  0.160,  deepest hole -0.199,  1-sigma level  0.045
Q1    1   0.9768  0.5134  0.0831  11.00000  0.05    0.16
Q2    1   1.0610  0.6044  0.1367  11.00000  0.05    0.13
Q3    1   0.0248 -0.0275  0.1364  11.00000  0.05    0.13
Q4    1   0.7838  0.3226  0.1446  11.00000  0.05    0.13
Q5    1   0.5024 -0.0358  0.1719  11.00000  0.05    0.12
Q6    1   1.1500  0.4043  0.1349  11.00000  0.05    0.12
Q7    1   0.6153 -0.3268  0.0834  11.00000  0.05    0.11
Q8    1   1.1138  0.6378  0.1979  11.00000  0.05    0.11
Q9    1   0.9553  0.4940  0.1839  11.00000  0.05    0.11
Q10   1   0.5199  0.2577  0.2369  11.00000  0.05    0.11
Q11   1   0.4976 -0.2609  0.0236  11.00000  0.05    0.11
Q12   1   1.0646  0.6738  0.2157  11.00000  0.05    0.10
Q13   1   0.7200 -0.0036  0.3256  11.00000  0.05    0.10
Q14   1   0.2345 -0.2594  0.1561  11.00000  0.05    0.10
Q15   1   0.8715  0.3581  0.0351  11.00000  0.05    0.10
Q16   1   0.4887 -0.4630  0.1034  11.00000  0.05    0.10
Q17   1   0.5726  0.0900 -0.0524  11.00000  0.05    0.10
Q18   1   0.3816  0.3730  0.1277  11.00000  0.05    0.10
Q19   1   0.5223 -0.1463 -0.0489  11.00000  0.05    0.10
Q20   1   0.2075 -0.4867  0.0965  11.00000  0.05    0.10
Q21   1   0.1046  0.1633  0.1119  11.00000  0.05    0.10
;
_shelxl_hkl_file
;
   0   1   0  -14.26    5.02
   0   1  -1 1539.46   47.60
   0  -1  -1 1460.99   46.39
   0  -1   1 1596.84   48.52
   0   1   1 1651.90   49.47
   0  -1  -225414.81 1209.47
   0  -1   223240.47 1111.09
   0   1   224833.60 1179.39
   0   1  -225276.61 1200.14
   0   1   3  579.47   11.41
   0  -1   3  576.04   11.49
   0  -1  -3  595.51   18.21
   0   1  -3  578.71   17.69
   0  -1  -4 6586.45  179.86
   0   1   4 6078.97  166.62
   0  -1   4 6385.65  174.60
   0   1  -4 6711.29  182.49
   0   1   5 1134.54   21.89
   0  -1  -5 1085.08   21.57
   0  -1   5 1132.00   22.25
   0   1  -5 1107.17   21.60
   0   1  -6  143.68    4.74
   0   1   6  152.06    6.88
   0  -1   6  157.33    7.26
   0  -1  -6  147.65    4.90
   0   1   7   99.81    3.46
   0  -1   7   92.73    3.17
   0  -1  -7   99.92    4.13
   0   1   7   86.48    3.71
   0   1  -7   94.41    3.97
   0   1  -7   92.24    3.04
   0   2   0  228.04   14.80
   0  -2   0  214.50   14.57
   0  -2   1  221.36   14.73
   0   2  -1  217.99   14.29
   0   2   1  225.21   14.61
   0  -2  -1  220.08   14.37
   0  -2   2 6806.82  190.76
   0   2  -2 6721.37  189.99
   0   2   2 6852.90  191.10
   0  -2  -2 6765.14  191.54
   0  -2   3 2085.83   43.47
   0   2   3 2141.30   44.30
   0  -2  -3 2067.42   43.71
   0   2  -3 2091.77   43.89
   0  -2  -4  325.56   15.08
   0  -2   4  337.18   15.02
   0   2   4  332.83   14.97
   0   2  -4  306.24   14.70
   0  -2  -5  550.41   19.94
   0  -2   5  550.81   19.94
   0   2  -5  560.82   19.69
   0   2   5  538.32   19.56
   0  -2   6 6484.23  193.98
   0  -2  -6 6364.30  193.60
   0   2   6 6571.83  195.08
   0   2  -6 6496.29  195.88
   0   2   7  405.19   15.23
   0  -2   7  397.31   15.66
   0   2  -7  426.55   15.06
   0  -2  -7  419.45   15.38
   0  -2  -8   25.49    4.66
   0   2  -8   22.56    4.52
   0   2   8   21.49    4.81
   0  -2   8   28.70    5.16
   0  -2   9  645.91   20.57
   0   2  -9  623.03   18.83
   0   2  -9  609.05   12.36
   0   2   9  646.57   27.09
   0  -2  -9  578.57   17.61
   0   2 -10  368.80   14.06
   0   2  10  378.37   11.78
   0   2  10  385.64   13.42
   0  -2 -10  380.11   10.47
   0   2 -10  377.73   10.37
   0  -2  10  403.84   11.92
   0   3   0    7.48    2.78
   0  -3   0    6.00    2.76
   0   3  -1   89.98    5.96
   0   3   1   91.69    5.88
   0  -3   1   88.73    6.04
   0  -3  -1   86.64    5.97
   0  -3  -2   13.93    3.29
   0   3   2   14.82    3.20
   0   3  -2   15.94    3.29
   0  -3   2   17.57    3.31
   0  -3   3   82.04   10.23
   0   3   3   85.80   10.10
   0   3  -3   87.17   10.39
   0  -3  -3   84.46   10.42
   0  -3   4 1920.55   57.31
   0  -3  -4 1851.20   57.53
   0   3   4 1822.40   55.45
   0   3  -4 1793.71   57.16
   0   3  -5  363.59   19.29
   0  -3   5  345.35   19.13
   0   3   5  347.34   18.88
   0  -3  -5  357.08   19.46
   0  -3  -6  184.60    8.15
   0   3   6  190.61    7.99
   0   3  -6  188.01    8.10
   0  -3   6  189.56    8.06
   0   3  -7  534.40   25.14
   0  -3  -7  509.48   25.45
   0  -3   7  581.78   26.17
   0   3   7  595.18   25.53
   0  -3  -8  173.14   14.71
   0  -3   8  183.14   15.38
   0   3  -8  167.99    7.77
   0   3   8  175.19   14.52
   0  -3  -9   91.65   10.57
   0   3  -9   66.26   10.39
   0  -3   9  101.12   11.21
   0   3   9   89.89   10.54
   0   3 -10   19.89    3.63
   0   3  10   42.57    6.64
   0  -3  10   43.26    6.77
   0   3 -10   38.20    6.60
   0  -3 -10   37.08    6.70
   0  -3  11  318.36   14.86
   0   3 -11  321.83   13.85
   0   3  11  360.89   10.35
   0   3  11  297.65   14.71
   0   3 -11  308.55   15.37
   0  -3 -11  316.14   13.94
   0   3 -12   11.58    3.18
   0  -3  12   13.84    3.56
   0  -3 -12   14.12    4.66
   0   3  12    7.23    3.57
   0   3  12   12.63    3.83
   0   3 -12   16.18    4.63
   0  -4   0 1384.15   51.73
   0   4   0 1340.75   51.44
   0   4   1  629.67   30.38
   0   4  -1  619.39   31.09
   0  -4   1  666.24   31.32
   0  -4  -1  656.89   31.44
   0  -4   2    3.89    5.07
   0  -4  -2    0.22    5.12
   0   4  -2    4.89    5.06
   0   4   2    3.26    4.94
   0   4  -3    0.30    4.01
   0  -4   3    3.76    4.04
   0   4   3   -0.53    3.95
   0  -4  -3   -4.88    4.08
   0  -4  -4   83.40   12.82
   0   4   4   79.86   12.44
   0   4  -4   83.89   12.71
   0  -4   4   81.48   12.69
   0   4  -5   31.76    4.79
   0  -4  -5   24.83    4.87
   0  -4   5   27.26    4.82
   0   4   5   28.85    4.65
   0  -4   6  136.55    8.75
   0  -4  -6  125.17    8.77
   0   4   6  138.60    8.51
   0   4  -6  134.06    8.69
   0   4   7  150.76   16.23
   0   4  -7  146.85   16.26
   0  -4   7  156.20   16.61
   0  -4  -7  138.72   16.52
   0   4  -8  242.88   18.84
   0  -4   8  241.18   19.17
   0   4   8  242.64   18.40
   0  -4  -8  234.68   18.76
   0   4  -9   58.25   11.24
   0  -4   9   77.58    6.16
   0  -4  -9   60.20   11.19
   0   4   9   78.98    5.95
   0  -4 -10  107.79   12.45
   0  -4  10  106.79   13.05
   0   4 -10  116.18   12.55
   0   4  11    9.42    2.98
   0   4 -11    8.36    5.58
   0   4 -11   10.35    2.97
   0  -4  11    9.02    2.98
   0   4  11    0.86    3.45
   0  -4 -11    6.65    5.61
   0   4 -12  179.84   15.06
   0   4  12  167.10   14.08
   0  -4  12  190.59   14.26
   0   4  12  216.83    9.54
   0  -4 -12  199.78   13.55
   0   4 -12  184.55   13.29
   0   5   0   -6.09    6.88
   0  -5   0   -6.33    6.93
   0  -5  -1   30.30    9.34
   0  -5   1   34.81    9.48
   0   5  -1    7.72    9.12
   0   5   1    7.17    9.05
   0   5   2  264.17   12.71
   0   5  -2  263.45   12.86
   0  -5  -2  274.22   13.23
   0  -5   2  256.03   13.11
   0   5  -3  317.54   13.87
   0  -5   3  314.46   14.22
   0   5   3  300.78   13.66
   0  -5  -3  318.77   14.42
   0   5  -4   25.49    4.94
   0   5   4   28.02    4.88
   0  -5   4   27.42    5.08
   0  -5  -4   27.87    5.10
   0  -5  -5  108.45    8.03
   0   5   5  110.34    7.73
   0  -5   5  116.20    7.94
   0   5  -5  113.65    7.85
   0  -5   6   -3.91    5.22
   0  -5  -6    0.91    5.26
   0   5   6   -1.79    5.12
   0   5  -6   -5.73    5.16
   0   5   7    8.87    4.28
   0  -5   7    6.76    4.38
   0  -5  -7   -4.59    4.38
   0   5   8   10.27    6.72
   0  -5   8   12.03    6.98
   0  -5  -8   10.83    3.59
   0   5  -8   11.09    3.55
   0  -5  -9   11.59    7.38
   0  -5   9   17.02    3.88
   0   5  -9   -5.01    7.37
   0   5   9   16.93    3.77
   0  -5 -10   49.26   10.30
   0  -5  10   54.14   10.55
   0   5  10   32.56   10.45
   0   5 -10   45.55   10.27
   0  -5 -11    4.05    2.90
   0  -5  11    6.50    3.04
   0   5 -11    2.40    3.04
   0   5 -11    2.44    2.91
   0  -6   0   12.68    3.49
   0   6   0   11.70    3.35
   0  -6  -1   89.81    6.69
   0   6   1   94.96    6.26
   0   6  -1   77.80    6.18
   0  -6   1   93.19    6.82
   0  -6   2   14.93    3.55
   0   6   2   11.79    3.20
   0   6  -2    7.22    3.20
   0  -6  -2   11.38    3.54
   0   6  -3    7.46    2.88
   0  -6  -3    9.07    3.17
   0   6   3    6.21    2.85
   0  -6   3    5.97    3.19
   0   6   4   -5.40    4.44
   0  -6  -4   -4.32    5.00
   0   6  -4    0.19    4.52
   0  -6   4   -0.91    4.98
   0  -6  -5   14.80    6.64
   0   6  -5   -2.83    6.00
   0   6   5   13.08    6.06
   0  -6   5   16.43    6.58
   0  -6  -6   55.80    9.84
   0   6  -6   49.84    8.92
   0   6   6   17.84    8.97
   0  -6   6   56.72    9.72
   0  -6   7   26.29    7.79
   0   6   7    7.36    7.10
   0  -6  -7   21.84    4.09
   0   6  -7   21.26    3.78
   0   6  -8    2.06    2.30
   0  -6   8    1.49    2.56
   0  -6  -8    6.16    2.54
   0   6   8   -1.68    2.34
  -1   0   0    3.90    2.24
  -1   0   1 3383.22   81.02
  -1   0  -1 3556.71  104.13
   1   0  -1 3236.01   99.01
   1   0   2  589.94   27.13
  -1   0  -2  583.13   26.67
  -1   0   2  600.91   27.33
   1   0  -2  589.25   26.51
   1   0  -3 2886.47   69.97
   1   0   3 2756.41   57.06
   1   0   3 2778.32   57.16
  -1   0  -3 2757.87   57.01
  -1   0   3 2986.64   72.59
   1   0  -3 2881.95   69.82
   1   0   4  316.21    9.02
   1   0  -4  323.84    8.77
  -1   0  -4  316.67    9.34
   1   0  -4  334.98    9.15
   1   0   4  318.93    9.12
  -1   0   4  327.23    9.46
   1   0  -5    1.80    1.38
   1   0  -5    0.74    1.35
   1   0   5   -1.09    1.37
  -1   0  -5    0.63    1.45
  -1   0   5    1.10    2.19
   1   0   5    0.94    1.41
   1   0  -6 1664.13   31.81
   1   0  -6 1707.74   33.01
   1   0   6 1755.33   38.47
   1   0   6 1752.39   38.25
  -1   0  -6 1571.14   30.94
  -1   0   6 1758.61   38.98
  -1   0   7   74.56    3.54
   1   0  -7   81.43    4.36
   1   0   7   72.59    3.07
   1   0   7   68.59    3.01
   1   0  -7   79.61    4.18
   1  -1   0  294.15   13.60
   1   1   0  295.46   14.18
   1   1   0  294.63   27.68
  -1   1   0  305.32   13.59
  -1  -1   0  301.88   13.81
   1   1   1  657.71   38.62
  -1  -1   1  718.20   21.23
   1  -1  -1  699.59   20.85
   1   1   1  707.06   21.76
  -1   1  -1  704.51   20.62
   1  -1   1  713.66   21.19
  -1  -1  -1  691.29   20.78
  -1   1   1  722.47   21.30
   1   1  -1  700.79   21.16
   1   1  -1  609.08   38.02
   1   1   2  623.92   15.77
   1   1   2  530.85   26.87
  -1   1  -2  610.05   24.77
  -1  -1   2  636.60   25.56
   1  -1  -2  620.01   25.09
   1  -1   2  625.18   15.45
   1   1  -2  607.39   15.33
  -1  -1  -2  611.94   25.24
   1   1  -2  540.14   24.11
  -1   1   2  637.39   25.46
  -1   1  -3 4455.86  118.13
   1   1   3 4531.73  120.94
   1   1   3 4407.88  117.16
  -1  -1   3 4182.71  111.93
  -1   1   3 4382.19  117.02
  -1  -1  -3 4463.12  118.24
   1   1  -3 4350.85  102.54
   1   1  -3 4414.49  119.52
   1  -1   3 4343.40  116.22
  -1  -1   4  610.17   10.99
   1  -1  -4  624.74   17.03
   1   1   4  624.02   17.56
   1   1   4  647.07   17.47
  -1   1  -4  607.19   11.09
   1   1  -4  593.73   16.78
   1  -1   4  602.64   17.01
   1   1  -4  643.62   17.99
  -1  -1  -4  631.69   16.87
  -1   1   4  627.74   16.74
   1  -1  -5 1578.87   36.31
   1   1   5 1595.21   37.42
  -1  -1   5 1661.69   37.21
  -1   1  -5 1562.26   36.26
   1   1   5 1648.22   37.96
   1   1  -5 1609.86   38.30
  -1   1   5 1593.56   36.40
   1  -1   5 1665.84   37.65
  -1  -1  -5 1648.61   37.20
   1   1  -5 1659.70   38.00
   1   1   6   67.41    5.27
  -1   1  -6   70.01    4.91
  -1  -1   6   68.20    4.93
   1   1   6   71.49    5.34
   1  -1  -6   69.69    4.95
   1   1  -6   65.06    5.09
   1   1  -6   71.27    5.37
   1  -1   6   71.50    5.16
  -1  -1  -6   68.10    4.90
  -1   1   6   68.15    7.18
   1   1   7 1031.05   22.85
   1   1   7 1052.44   28.21
   1  -1  -7 1026.27   26.50
  -1   1  -7 1033.86   27.69
   1   1  -7 1035.28   21.94
   1   1  -7 1043.62   27.43
   1  -1   7  982.02   21.70
  -1   1   7  979.85   21.83
  -1   1  -8  554.61   15.70
   1   1   8  579.82   17.82
   1   1   8  548.97   13.33
   1  -1  -8  575.31   15.98
   1  -1   8  579.32   13.58
  -1   1   8  560.51   13.61
   1   1  -8  572.97   15.82
   1   1   9  537.54   11.50
   1   1   9  554.07   14.52
   1  -1   9  563.72   11.26
  -1   1   9  569.82   15.38
   1  -1   9  567.69   14.78
   1  -2   0    0.32    1.72
  -1  -2   0    3.77    3.45
   1   2   0    1.09    1.88
   1  -2  -1  192.20    7.12
   1   2   1  195.54    7.71
  -1  -2   1  181.27   13.61
   1   2  -1  189.09    7.46
  -1  -2  -1  180.76   13.34
   1  -2   1  196.73    7.32
   1  -2  -2 1250.72   26.56
  -1   2  -2 1246.19   38.58
   1   2   2 1335.68   28.17
  -1  -2   2 1282.48   39.29
  -1   2   2 1231.36   38.64
   1  -2   2 1303.55   27.11
   1   2  -2 1271.29   27.41
  -1  -2  -2 1291.90   39.50
  -1  -2   3 1825.10   39.04
   1  -2  -3 1795.50   51.33
   1   2   3 1921.12   54.75
  -1   2  -3 1840.90   39.82
  -1  -2  -3 1829.37   39.56
   1   2  -3 1879.17   54.43
  -1   2   3 1880.97   52.88
   1  -2   3 1918.42   53.11
  -1  -2   4  714.66   16.22
   1   2   4  712.25   25.60
  -1   2  -4  708.10   16.26
   1  -2  -4  678.43   24.05
   1  -2   4  632.05   24.27
  -1   2   4  724.81   16.30
   1   2  -4  708.32   25.47
  -1  -2  -4  681.83   15.98
   1   2   5 1368.97   30.51
  -1   2  -5 1478.49   43.44
  -1  -2   5 1545.52   44.10
   1  -2  -5 1483.08   30.15
   1   2   5 1611.71   43.81
  -1   2   5 1566.78   43.88
   1   2  -5 1606.21   33.13
  -1  -2  -5 1491.86   43.75
   1   2  -5 1494.35   30.99
   1  -2   5 1561.56   42.21
  -1  -2   6   21.95    5.17
   1   2   6   25.87    3.15
  -1   2  -6   25.20    5.15
   1   2   6   21.44    5.49
   1  -2  -6   25.09    5.02
  -1   2   6   21.57    5.18
   1  -2   6   18.09    5.21
   1   2  -6   20.05    5.30
   1   2  -6   22.74    5.69
  -1  -2  -6   25.51    2.76
  -1  -2   7  388.73   16.14
  -1   2  -7  367.02   15.54
   1   2   7  371.57   15.74
   1   2   7  344.40   17.65
   1  -2  -7  359.14   14.78
  -1   2   7  384.79   16.01
   1  -2   7  369.36   15.51
   1   2  -7  341.01   14.73
   1   2  -7  354.38   14.96
  -1  -2  -7  352.11   15.48
  -1   2  -8    6.92    3.73
   1  -2  -8    5.49    3.74
   1   2   8    6.65    3.95
   1   2   8    6.97    4.25
  -1  -2   8    7.87    3.98
  -1   2   8    8.37    3.96
   1  -2   8    4.22    3.98
   1   2  -8    6.02    3.66
  -1  -2  -8    5.26    3.61
   1   2  -8    7.78    3.64
  -1   2  -9  600.91   20.18
   1  -2  -9  597.33   20.74
   1   2   9  605.77   20.85
   1   2   9  623.32   22.66
  -1  -2   9  616.28   21.36
   1  -2   9  632.18   30.26
  -1   2   9  588.34   21.09
   1   2  -9  571.55   19.83
   1   2  -9  618.20   20.53
  -1  -2  -9  608.09   19.97
   1  -2 -10   21.18    4.07
  -1   2 -10   18.47    4.01
  -1  -2  10   25.92    4.09
   1   2  10   20.76    6.07
   1   2  10   18.84    4.32
   1   2 -10   20.48    3.90
  -1  -2 -10   17.55    3.86
  -1   2  10   21.99    4.06
   1   2 -10   18.20    5.79
   1  -2  10   25.44    6.46
   1   2  11   13.44    2.73
   1   2  11   13.59    4.04
  -1   2  11   15.83    2.85
   1  -2  11   19.27    2.90
   1  -3   0 1047.61   25.90
  -1   3   0 1089.58   27.06
   1   3   0 1115.44   27.75
  -1  -3   0 1070.35   27.05
  -1  -3   1  913.86   23.25
   1  -3  -1  882.54   22.02
   1   3   1  918.47   23.15
  -1   3  -1  929.02   22.94
  -1  -3  -1  889.97   22.93
   1  -3   1  904.23   22.60
   1   3  -1  914.84   23.19
  -1   3   1  902.42   22.55
   1  -3  -2  105.94   10.88
  -1   3  -2   93.47    6.06
  -1  -3   2   87.43    6.17
   1   3   2  103.52   11.29
  -1  -3  -2   89.20    6.20
  -1   3   2   85.20    5.80
   1   3  -2  100.67   11.54
   1  -3   2   91.25    5.91
  -1  -3   3 1268.78   29.92
  -1   3  -3 1343.18   44.88
   1   3   3 1307.57   44.19
   1  -3  -3 1286.56   42.74
  -1  -3  -3 1359.32   45.41
   1   3  -3 1214.70   43.97
   1  -3   3 1337.72   43.25
  -1   3   3 1315.74   29.55
  -1   3  -4  272.49   17.74
   1   3   4  283.60   17.40
  -1  -3   4  316.70   18.14
   1  -3  -4  310.45   17.06
   1  -3   4  297.82   17.24
  -1   3   4  285.26   17.51
  -1  -3  -4  296.21   18.41
   1   3  -4  291.69   17.45
  -1   3  -5   64.22   10.23
   1  -3  -5   74.97    5.13
   1   3   5   72.85    9.88
  -1  -3   5   73.53   10.24
   1  -3   5   78.78    9.68
  -1  -3  -5   67.94   10.29
  -1   3   5   62.63   10.06
   1   3  -5   73.85    5.26
   1   3   6  104.05    6.24
   1  -3  -6  101.92   11.29
  -1  -3   6  102.77    6.48
  -1   3  -6  103.05    6.58
   1  -3   6  103.03    6.11
  -1   3   6  104.24   11.91
  -1  -3  -6   98.65    6.51
   1   3  -6  100.85   11.54
   1  -3  -7  386.88   22.35
   1   3   7  415.93   22.41
  -1  -3   7  438.50   24.25
  -1   3  -7  439.51   24.14
  -1   3   7  443.93   24.03
   1  -3   7  395.05   22.02
   1   3  -7  405.92   22.34
  -1  -3  -7  401.82   23.71
   1   3  -7  395.36   13.92
  -1   3  -8  129.28   13.03
   1   3   8  120.67   13.10
   1  -3  -8  115.96    7.11
   1   3   8  137.58    8.48
  -1  -3   8  120.67   13.41
   1  -3   8  122.62   13.69
  -1  -3  -8  121.72   12.79
  -1   3   8  113.33   13.10
   1   3  -8  123.62    7.74
   1   3  -8  119.83    7.05
   1   3   9  636.68   31.31
   1  -3  -9  634.37   27.23
  -1   3  -9  676.08   27.41
   1   3   9  625.11   25.93
  -1  -3   9  685.48   27.98
   1  -3   9  643.08   27.24
  -1  -3  -9  641.56   27.33
  -1   3   9  654.19   16.64
   1   3  -9  601.44   26.91
   1   3  -9  554.05   25.82
   1   3  10   38.02    7.21
   1   3  10   37.27    7.74
   1  -3 -10   41.87    7.43
  -1   3 -10   37.24    7.06
  -1  -3  10   45.45    7.26
   1   3 -10   37.05    7.10
  -1   3  10   39.59    7.27
  -1  -3 -10   36.51    6.91
   1   3 -10   36.28    7.23
   1  -3  10   47.18    7.68
   1   3  11   39.53    7.27
  -1   3 -11   39.87    6.28
   1   3  11   36.19    6.58
   1  -3 -11   44.19    6.73
  -1  -3  11   47.74    6.68
  -1  -3 -11   37.95    6.29
   1  -3  11   46.67    7.02
   1   3 -11   37.17    6.61
  -1   3  11   43.14    6.72
   1   3 -11   32.67    6.48
   1   3  12   74.36    7.48
  -1  -3  12   76.54    6.96
   1  -3 -12   80.40    6.82
  -1   3 -12   68.48    6.56
   1   3  12   69.59    7.03
  -1  -3 -12   80.07    6.54
   1   3 -12   74.81    6.51
   1  -3  12   78.82    7.46
  -1   3  12   75.71    6.73
   1   3 -12   79.89    6.58
  -1   4   0   43.17    5.13
  -1  -4   0   38.12    5.22
   1   4   0   38.04    5.17
   1  -4   0   38.22    4.93
   1  -4  -1  333.53   12.28
   1   4   1  334.40   12.52
  -1  -4   1  344.74   12.98
  -1   4  -1  338.20   12.68
  -1  -4  -1  341.92   12.94
   1   4  -1  334.13   12.74
   1  -4   1  333.03   12.47
  -1   4   1  335.64   12.40
   1  -4  -2   67.87    5.86
  -1   4  -2   64.90    6.02
   1   4   2   61.68    5.99
  -1  -4   2   63.92    6.22
  -1  -4  -2   66.21    6.26
   1   4  -2   65.03    6.04
   1  -4   2   66.46    5.90
  -1   4   2   63.82    5.88
   1   4   3  300.08   11.90
  -1  -4   3  300.71   12.27
   1  -4  -3  290.23   11.68
  -1   4  -3  304.13   12.02
  -1   4   3  294.40   11.80
   1  -4   3  293.18   11.74
  -1  -4  -3  299.69   12.37
   1   4  -3  294.46   11.95
   1   4   4   67.26   11.81
  -1   4  -4   58.45   12.31
  -1  -4   4   76.37    6.53
   1  -4  -4   62.74   11.63
   1   4  -4   60.17   12.06
  -1  -4  -4   63.23   12.50
  -1   4   4   73.92    6.28
   1  -4   4   62.93   11.66
  -1   4  -5   51.70   12.16
   1   4   5   63.63   11.59
   1  -4  -5   60.70   11.45
  -1  -4   5   62.21   12.22
   1   4  -5   58.10   11.91
   1  -4   5   63.96   11.43
  -1  -4  -5   57.80   12.24
  -1   4   5   57.85   11.77
   1   4   6   52.91   11.54
  -1   4  -6   56.66   12.23
   1  -4  -6   59.64   11.80
  -1  -4   6   57.41   12.10
  -1  -4  -6   55.20   12.13
   1  -4   6   57.28   11.81
   1   4  -6   60.16   11.83
   1  -4  -7  619.06   19.33
  -1   4  -7  630.38   20.34
   1   4   7  630.66   19.19
  -1  -4   7  629.58   20.02
   1   4  -7  625.78   19.48
  -1  -4  -7  617.47   19.85
   1  -4   7  627.72   19.48
  -1   4   7  652.59   32.92
   1  -4  -8   60.73   10.81
  -1   4  -8   72.06   11.68
   1   4   8   66.72   10.82
  -1  -4   8   71.45   12.03
   1   4   8   20.60    6.77
   1   4  -8   63.77    6.36
  -1  -4  -8   69.64   11.45
   1  -4   8   67.27   11.27
   1   4  -8   66.62   10.88
  -1   4   8   82.19    6.22
  -1   4  -9    0.81    4.98
   1   4   9    3.29    3.18
  -1  -4   9    3.11    5.14
   1   4   9    4.93    5.17
   1  -4  -9    0.93    5.19
  -1  -4  -9    5.35    4.87
   1   4  -9    3.29    5.17
   1   4  -9    6.60    2.90
   1  -4   9    3.15    5.34
  -1   4   9    2.89    5.56
   1  -4 -10   29.16    8.18
   1   4  10   30.72    9.82
   1   4  10   29.50    4.37
  -1  -4  10   30.59    4.45
  -1   4 -10   30.73    4.22
   1  -4  10   34.11    4.52
   1   4 -10   25.53    8.14
  -1  -4 -10   28.97    7.98
   1   4 -10   24.04    8.81
  -1   4  10   29.62    8.32
   1   4  11  328.40   21.39
  -1  -4  11  337.57   20.80
   1   4  11  314.32   19.93
  -1   4 -11  335.83   19.16
   1  -4 -11  352.17   20.15
   1   4 -11  345.72   19.88
   1  -4  11  308.05   20.70
   1   4 -11  347.12   19.43
  -1  -4 -11  331.43   18.86
  -1   4  11  338.00   20.51
  -1   4 -12   19.97    6.14
   1   4  12   17.07    7.23
  -1  -4  12   22.38    6.60
   1   4  12   47.82    6.86
   1  -4 -12   18.93    6.59
   1   4 -12   11.57    6.43
   1  -4  12   23.00    7.07
   1   4 -12   15.12    6.50
  -1   4  12   17.81    3.43
  -1  -4 -12   20.10    6.13
  -1  -5   0   98.03    8.00
   1   5   0   79.77   14.35
   1  -5   0   79.28   14.42
  -1   5   0   84.24    7.73
  -1   5  -1  186.73   10.42
   1  -5  -1  180.88   19.35
   1   5   1  187.59   19.00
  -1  -5   1  192.03   11.18
   1  -5   1  179.16   19.77
  -1  -5  -1  191.91   11.04
   1   5  -1  194.81   19.21
  -1   5   1  181.49   10.43
  -1   5  -2  158.99    9.74
   1   5   2  144.61   17.65
  -1  -5   2  154.45   10.22
   1  -5  -2  158.83   18.09
  -1  -5  -2  161.63   10.18
   1   5  -2  161.67   17.82
   1  -5   2  142.31   18.09
  -1   5   2  156.38    9.65
  -1  -5   3  505.40   18.59
   1   5   3  489.17   29.71
  -1   5  -3  493.80   17.86
   1  -5  -3  520.16   30.64
  -1  -5  -3  491.39   18.57
   1   5  -3  495.50   30.00
   1  -5   3  513.96   30.80
  -1   5   3  479.90   17.49
  -1  -5   4   49.09    6.05
   1   5   4   50.56    5.72
  -1   5  -4   48.01   10.97
   1  -5  -4   46.76    5.85
   1   5  -4   46.55    5.79
  -1  -5  -4   44.85    5.98
   1  -5   4   52.91    5.93
  -1   5   4   51.19    5.70
  -1  -5   5   71.68   12.74
   1   5   5   74.89    6.50
  -1   5  -5   48.86   12.34
   1  -5  -5   85.54    6.68
   1   5  -5   81.68    6.58
  -1  -5  -5   73.07   12.73
   1  -5   5   85.65    6.68
  -1   5   5   48.80   12.28
  -1  -5   6   61.92   12.79
   1   5   6   95.18    6.68
   1  -5  -6   65.18   12.50
   1   5  -6   72.03   12.35
  -1  -5  -6   64.65   12.86
   1  -5   6   92.44    6.76
   1   5   7  187.67   17.16
  -1  -5   7  207.89   18.17
   1  -5  -7  184.62   17.31
  -1   5  -7  191.93   17.98
   1   5  -7  169.86   17.18
  -1  -5  -7  195.70   17.79
   1  -5   7  191.44   17.51
  -1   5   7  206.48   18.08
   1   5   8    0.09    4.46
   1   5   8    1.35    2.74
  -1  -5   8    0.95    2.44
  -1   5  -8    1.41    2.45
   1  -5  -8   -0.09    4.54
   1   5  -8   -0.24    4.50
   1   5  -8   -0.99    2.60
  -1  -5  -8    2.15    2.40
  -1   5   8    1.10    2.46
   1  -5   8    3.93    4.62
  -1   5  -9   62.88   13.58
  -1  -5   9   76.92   13.90
   1   5   9   67.74    7.95
   1   5   9  101.58    7.09
   1  -5  -9  102.94    7.15
  -1  -5  -9   61.98   13.47
   1   5  -9   99.49    7.68
   1   5  -9   99.38    7.16
   1  -5   9  102.83    7.20
  -1   5   9   73.30   13.79
   1   5  10   11.88    4.38
   1   5  10    5.92    7.22
  -1  -5  10   11.52    7.01
   1  -5 -10   13.21    7.13
  -1   5 -10    9.32    6.81
  -1  -5 -10   14.33    6.83
   1   5 -10   17.29    4.04
   1   5 -10   12.93    7.03
   1  -5  10    2.10    7.33
  -1   5  10   12.55    6.94
   1   6   0   12.93    3.38
   1  -6   0   14.71    3.45
  -1   6   0   13.76    3.38
  -1  -6   0   13.34    3.55
  -1  -6   1  129.00    7.87
   1   6   1  119.69    7.20
   1  -6  -1  135.86    7.60
  -1   6  -1  121.27    6.96
  -1  -6  -1  129.30    7.82
   1   6  -1  119.34    7.08
   1  -6   1  132.88    7.75
  -1   6   1  123.07    7.15
  -1  -6   2  167.32    9.00
   1   6   2  152.11    8.04
  -1   6  -2  160.12    7.96
   1  -6  -2  166.69    8.70
  -1  -6  -2  163.46    8.89
   1   6  -2  158.74    8.11
  -1   6   2  155.32    7.97
   1  -6   2  169.33    8.83
   1   6   3   41.30    4.53
  -1  -6   3   57.12    5.24
   1  -6  -3   33.31    9.25
  -1   6  -3   36.33    8.57
  -1  -6  -3   38.43    5.14
   1   6  -3   39.30    8.48
   1  -6   3   42.25    5.09
  -1   6   3   37.25    4.53
   1   6   4   37.47    7.60
  -1  -6   4   36.61    8.76
   1  -6  -4   29.71    8.43
  -1   6  -4   25.58    7.78
   1   6  -4   29.63    7.71
  -1   6   4   32.94    7.68
  -1  -6  -4   33.11    8.75
   1  -6   4   35.04    8.48
   1   6   5  116.55   11.52
  -1  -6   5  126.14   12.98
   1  -6  -5  112.85   12.69
  -1   6  -5   30.73   11.74
  -1  -6  -5  122.82   13.14
   1   6  -5  100.66   11.81
   1  -6   5  128.93   12.62
  -1   6   5  106.35   11.75
   1   6   6    4.18    6.47
  -1  -6   6   25.19    7.20
   1  -6  -6   22.58    7.13
  -1   6  -6   16.76    6.77
  -1  -6  -6   17.99    7.30
   1   6  -6   21.54    6.49
  -1   6   6    7.32    6.64
   1  -6   6   22.88    7.06
   1   6   7   10.63    3.96
  -1  -6   7   35.83    8.31
   1  -6  -7   30.91    4.36
  -1   6  -7   25.37    7.69
  -1  -6  -7   24.96    4.36
   1   6  -7   28.33    4.02
   1  -6   7   36.56    4.37
  -1   6   7   12.21    7.53
  -1  -6   8   68.00    6.15
   1   6   8   63.05    5.49
  -1   6  -8   55.74    5.61
   1  -6  -8   65.75    6.03
  -1  -6  -8   58.91    6.01
   1  -6   8   63.00    5.99
   1   6  -8   67.64    5.47
  -1   6   8   58.82    5.62
   2   0   014052.57  511.25
  -2   0   013668.16  533.39
   2   0   1 2303.52   50.81
  -2   0  -1 2231.11   63.68
   2   0  -1 2215.20   48.42
  -2   0   1 2263.16   65.66
   2   0  -1 2282.20   49.36
   2   0   2  861.85   18.26
   2   0   2  842.51   17.91
  -2   0  -2  871.80   27.82
  -2   0   2  887.80   28.43
   2   0  -2  846.52   17.90
   2   0  -2  853.30   18.06
   2   0   3  245.10    7.46
  -2   0   3  245.03    7.50
  -2   0  -3  248.34    7.47
   2   0  -3  242.74    7.32
   2   0  -3  239.42    7.31
   2   0   3  249.10    7.35
   2   0   4  834.87   26.21
   2   0  -4  774.17   25.91
   2   0  -4  785.07   25.84
  -2   0  -4  824.33   26.62
   2   0   4  817.57   26.61
  -2   0   4  815.10   17.21
   2   0  -5 2107.23   54.61
   2   0  -5 2064.47   52.92
   2   0   5 2112.73   53.96
   2   0   5 2095.01   54.11
  -2   0   5 2005.17   54.00
  -2   0  -5 2013.07   54.38
   2   0  -6  245.36   11.28
  -2   0  -6  261.76    7.04
   2   0   6  264.47   11.85
  -2   0   6  274.84   12.60
   2   0  -6  262.93   11.78
   2   0   6  252.90   11.62
  -2   0  -7   21.57    4.70
   2   0  -7   20.67    4.49
   2   0  -7   25.19    4.58
  -2   0   7   21.03    5.02
   2   0   7   22.81    4.69
   2   0   7   23.20    4.76
  -2   0  -8  241.44   11.32
   2   0   8  266.19   12.18
   2   0  -8  241.46   11.19
   2   0   8  258.19   11.92
  -2   0   8  271.79   17.56
   2   0  -8  254.76   11.23
  -2   0  -9   65.69    3.69
   2   0   9   61.64    6.66
   2   0   9   70.57    9.91
  -2   0   9   71.90    7.73
   2   0  -9   62.08    6.05
   2   0  -9   66.19    6.31
   2   0  10   84.80    8.83
   2   0  10   86.00    9.12
   2   0 -10   82.35    5.31
   2   0 -10   92.61    5.86
   2  -1   012865.09  489.84
  -2  -1   012694.49  456.99
   2   1   012578.22  485.06
  -2  -1   013453.06  482.85
   2   1   013181.83  501.40
  -2   1   013246.06  474.18
   2   1   1  191.85   13.08
   2  -1  -1  175.62   12.72
  -2  -1   1  186.49    7.35
   2   1   1  168.91   13.54
  -2  -1   1  165.40    6.94
  -2   1  -1  175.93    6.88
  -2  -1  -1  193.28   12.87
  -2  -1  -1  184.96    7.26
   2   1  -1  175.56   13.54
   2   1  -1  178.66   12.79
   2  -1   1  174.37   13.04
  -2   1   1  176.30    7.12
  -2  -1   2 2608.10   70.97
   2   1   2 2366.74   69.30
   2   1   2 2531.04   70.71
  -2  -1   2 2753.42   74.43
   2  -1  -2 2627.05   72.64
  -2   1  -2 2641.50   71.88
   2   1  -2 2425.88   70.68
  -2  -1  -2 2635.47   73.27
   2   1  -2 2573.46   73.08
   2  -1   2 2646.98   72.99
  -2  -1  -2 2555.64   70.92
  -2   1   2 2743.67   73.20
  -2  -1   3  598.19   22.97
  -2  -1   3  572.95   23.34
   2   1   3  644.15   24.20
   2  -1  -3  672.30   23.99
  -2   1  -3  620.55   24.11
   2   1   3  636.87   24.25
  -2   1   3  617.58   22.88
   2   1  -3  664.10   24.77
  -2  -1  -3  572.88   25.88
  -2  -1  -3  637.13   23.45
   2   1  -3  681.78   24.55
   2  -1   3  667.01   24.14
   2   1   4 4019.05   98.10
  -2  -1   4 3887.03  118.01
  -2  -1   4 4161.00  117.15
   2   1   4 4150.35  100.93
  -2   1  -4 4240.58  122.20
   2  -1  -4 4099.56  100.54
  -2   1   4 4154.48  118.36
  -2  -1  -4 4158.03  118.15
  -2  -1  -4 4296.68  127.26
   2   1  -4 4195.53  102.74
   2   1  -4 4139.77  102.40
   2  -1   4 4105.66   99.67
  -2  -1   5   47.79    3.56
   2   1   5   47.24    7.08
   2   1   5   47.16    6.78
  -2   1  -5   51.45    3.73
   2  -1  -5   40.95    6.69
  -2  -1   5   50.93    4.11
   2   1  -5   46.60    7.02
   2   1  -5   46.31    6.92
  -2  -1  -5   54.52    4.07
   2  -1   5   43.52    6.74
  -2   1   5   45.03    3.70
   2   1   6  665.56   23.68
   2  -1  -6  709.00   23.59
   2   1   6  650.48   22.23
  -2  -1   6  707.86   15.85
  -2   1   6  683.04   22.70
   2   1  -6  707.11   22.57
   2   1  -6  694.69   24.42
   2  -1   6  699.66   23.62
   2  -1  -7  425.34   17.14
  -2   1  -7  428.19   17.08
   2   1   7  440.71   18.31
   2   1   7  431.06   17.29
  -2   1   7  444.02   17.90
   2   1  -7  438.45   17.03
   2   1  -7  434.11   18.17
   2  -1   7  434.79   17.65
   2   1   8    7.78    4.21
  -2   1  -8    5.38    3.80
   2   1   8    6.80    4.17
   2  -1  -8    4.30    3.68
   2   1  -8    4.57    4.04
   2   1  -8    4.69    3.68
   2  -1   8    7.21    4.12
  -2   1   8    8.96    4.06
   2   1   9  168.80   11.64
   2   1   9  170.77   11.60
  -2   1  -9  161.65   10.56
   2  -1  -9  167.74   10.28
   2  -1  -9  165.83   10.20
   2   1  -9  158.28    9.91
   2   1  -9  172.10   11.32
   2  -1   9  178.60   11.09
   2  -1   9  170.17   11.24
  -2   1   9  187.49   16.79
  -2   1 -10   97.32    6.78
   2   1  10   91.21    7.03
   2   1  10   94.37    7.48
   2  -1 -10   96.27    6.52
   2  -1 -10   89.55    6.43
   2   1 -10   91.74    6.44
   2   1 -10   94.93    6.83
   2  -1  10   99.57    7.03
   2  -1  10   98.89    7.26
  -2   1  10   92.71    7.43
   2   1  11  139.39    6.60
   2   1  11  134.12    6.30
  -2   1 -11  127.97    5.94
   2  -1 -11  136.03    7.52
   2  -1 -11  136.70    5.59
   2  -1  11  137.57    6.30
   2  -1  11  138.86    6.19
  -2   1  11  142.85    9.21
   2   2   0    9.04    6.30
  -2  -2   0    7.94    5.79
   2   2   0   11.40    3.06
   2  -2   0   12.38    5.88
  -2   2   0    9.13    5.86
  -2   2  -1 1176.95   42.66
   2   2   1 1239.12   44.94
  -2  -2   1 1212.98   42.25
   2   2   1 1246.92   29.35
   2  -2  -1 1137.37   42.66
  -2  -2  -1 1231.83   42.98
   2  -2   1 1169.26   42.88
   2   2  -1 1216.85   45.07
   2   2  -1 1256.13   29.79
  -2   2   1 1157.28   41.97
   2   2   2 4013.50  101.98
   2   2   2 3922.20  122.76
  -2  -2   2 3976.69  121.22
  -2   2  -2 4017.02  123.89
   2   2  -2 4001.77  102.82
  -2  -2  -2 3989.28  122.61
   2   2  -2 3940.61  125.68
  -2   2   2 3916.63  119.31
  -2  -2   3  448.19   12.43
   2   2   3  455.68   12.85
   2   2   3  442.57   22.18
  -2   2  -3  453.98   12.96
   2  -2  -3  413.68   21.48
  -2  -2  -3  450.14   12.68
   2   2  -3  445.44   23.17
   2   2  -3  455.53   12.83
   2  -2   3  371.11   21.05
  -2   2   3  449.74   21.01
   2   2   4  353.57   18.35
  -2  -2   4  357.03   10.25
   2   2   4  355.24   18.85
  -2   2  -4  363.05   10.63
   2  -2  -4  347.92   10.25
   2  -2   4  348.17   18.13
  -2  -2  -4  347.39   10.25
   2   2  -4  344.86   10.98
   2   2  -4  334.08   17.97
  -2   2   4  347.75   10.30
  -2   2  -5   19.77    6.26
   2   2   5   20.09    3.37
   2   2   5   17.90    6.26
  -2  -2   5   24.79    5.99
   2  -2  -5   23.65    3.18
   2  -2   5   22.79    3.19
  -2   2   5   19.74    6.07
  -2  -2  -5   21.18    6.05
   2   2  -5   21.53    6.27
   2   2  -5   20.18    3.46
   2   2   6  848.78   31.68
   2  -2  -6  763.75   28.93
  -2  -2   6  835.94   29.29
   2   2   6  875.50   31.26
  -2   2  -6  788.39   29.33
   2  -2   6  840.39   29.89
   2   2  -6  717.00   30.36
  -2  -2  -6  829.29   29.36
   2   2  -6  848.56   19.57
  -2   2   6  751.65   29.66
  -2   2  -7  233.06    8.59
   2   2   7  245.36   16.92
  -2  -2   7  240.12    8.68
   2   2   7  248.01   16.64
   2  -2  -7  237.76   15.12
  -2  -2  -7  226.86    8.33
   2   2  -7  223.94   15.50
   2   2  -7  240.97   16.46
   2  -2   7  239.79   16.07
  -2   2   7  242.18   15.75
   2   2   8  418.33   22.52
   2   2   8  385.91   22.25
  -2  -2   8  399.60   21.23
  -2   2  -8  392.88   21.20
   2  -2  -8  381.79   20.01
  -2  -2  -8  389.92   20.09
   2   2  -8  398.55   21.66
   2   2  -8  402.25   20.69
  -2   2   8  417.10   21.08
   2  -2   8  438.31   22.08
   2   2   9  263.82   16.82
   2   2   9  249.53   16.59
  -2  -2   9  255.76    9.00
  -2   2  -9  255.60   15.91
   2  -2  -9  250.64   14.96
  -2   2   9  252.01   16.50
   2   2  -9  254.62   15.81
   2   2  -9  248.87   15.63
   2  -2   9  246.41   16.20
   2   2  10    7.92    4.17
  -2   2 -10    3.50    3.91
   2  -2 -10    8.21    3.84
   2   2  10    8.02    4.23
   2   2 -10    5.13    3.97
   2   2 -10    5.95    3.89
   2  -2  10    8.00    4.17
   2   2  11  105.84    8.12
   2   2  11  102.54    8.59
  -2   2 -11  103.84    7.68
   2  -2 -11   92.91    7.64
   2  -2  11  111.58    8.27
  -2   2  11  105.66    8.34
   2   2 -11  101.65    7.66
   2   2 -11   98.07    7.60
   2  -2 -12  105.46    5.55
   2   2  12   97.60    6.49
   2   2  12   94.09    6.30
  -2   2 -12   94.86    5.61
   2  -2 -12   99.42    6.03
  -2   2  12   95.26    6.59
   2  -2  12  105.54    6.68
   2   2 -12   99.70    5.72
   2   2 -12   86.35    7.64
   2  -2  12  100.44    6.39
  -2   3   0    1.24    5.43
  -2  -3   0   12.26    5.50
   2  -3   0    6.44    5.49
   2   3   0    3.83    3.18
   2   3   0    9.93    3.20
  -2   3  -1  718.45   30.75
   2  -3  -1  711.63   19.25
  -2  -3   1  734.75   30.99
   2   3   1  686.98   19.91
   2   3   1  782.79   21.36
   2   3  -1  791.89   21.79
   2   3  -1  701.12   20.18
  -2   3   1  709.82   30.01
  -2  -3  -1  738.59   31.11
   2  -3   1  701.19   19.26
  -2   3  -2  682.83   29.98
   2   3   2  731.87   20.53
   2   3   2  669.33   19.21
  -2  -3   2  684.27   18.93
   2  -3  -2  693.85   18.90
  -2   3   2  676.61   29.03
  -2  -3  -2  684.80   19.27
   2   3  -2  739.02   20.95
   2   3  -2  663.07   19.58
   2  -3   2  677.51   18.65
  -2   3  -3  644.68   18.24
  -2  -3   3  656.83   18.18
   2   3   3  670.98   19.54
   2   3   3  642.88   18.70
   2  -3  -3  649.92   18.04
  -2   3   3  626.06   17.64
  -2  -3  -3  639.02   18.37
   2   3  -3  649.26   19.49
   2   3  -3  636.32   18.86
   2  -3   3  640.80   18.07
  -2   3  -4  335.55   12.30
   2   3   4  320.88   23.33
   2   3   4  334.13   12.59
  -2  -3   4  343.20   12.14
   2  -3  -4  332.50   11.86
   2  -3   4  334.19   12.06
  -2   3   4  339.59   11.89
   2   3  -4  330.93   12.65
   2   3  -4  294.65   23.01
  -2  -3  -4  332.00   12.18
   2  -3  -5  658.09   30.86
   2   3   5  701.40   32.96
  -2  -3   5  714.50   32.13
   2   3   5  569.66   34.31
  -2   3  -5  691.15   32.04
   2   3  -5  657.29   32.89
  -2  -3  -5  657.19   31.74
   2   3  -5  552.29   29.91
  -2   3   5  675.98   19.00
   2  -3   5  710.09   31.63
   2  -3  -6 1403.40   51.99
   2   3   6 1522.64   55.14
   2   3   6 1464.36   55.31
  -2  -3   6 1373.27   51.93
  -2   3  -6 1442.14   54.42
   2   3  -6 1499.54   53.66
  -2  -3  -6 1419.03   52.35
   2   3  -6 1448.97   55.46
   2  -3   6 1321.22   51.78
  -2   3   6 1488.03   54.64
   2  -3  -7   47.34    5.19
   2   3   7   47.86    5.67
   2   3   7   44.93    5.68
  -2  -3   7   50.50   10.07
  -2   3  -7   51.90   10.32
  -2  -3  -7   40.43    5.23
   2   3  -7   42.09    5.33
   2   3  -7   43.12    5.53
  -2   3   7   53.19   10.40
   2  -3   7   47.63   10.20
  -2   3  -8  143.21   14.64
   2   3   8  145.77   15.23
   2   3   8  139.93   15.59
  -2  -3   8  145.86   14.69
   2  -3  -8  141.83   13.87
  -2   3   8  148.28    8.06
  -2  -3  -8  140.04   13.87
   2   3  -8  130.02   14.48
   2   3  -8  139.45   14.93
   2  -3   8  145.22   14.90
   2   3   9   64.80   10.37
   2  -3  -9   67.51    9.85
  -2   3  -9   71.29   10.33
   2   3   9   72.99   11.28
  -2  -3   9   75.85   10.41
  -2   3   9   56.44   10.42
  -2  -3  -9   63.80    9.88
   2   3  -9   70.78   10.31
   2   3  -9   81.71    5.53
   2  -3   9   79.88   10.45
   2  -3 -10  364.64   19.76
   2   3  10  399.65   20.68
   2   3  10  406.36   22.41
  -2  -3  10  412.25   20.88
  -2   3 -10  395.26   20.27
  -2  -3 -10  383.26   19.78
   2   3 -10  353.34   20.34
   2   3 -10  388.02   20.54
   2  -3  10  406.32   20.93
  -2   3  10  396.37   12.17
   2  -3 -11   55.12    8.47
   2   3  11   57.35    9.05
   2   3  11   41.24    8.43
  -2  -3  11   49.63    8.57
  -2   3 -11   58.92    8.31
  -2   3  11   38.22    8.56
  -2  -3 -11   61.79    8.16
   2   3 -11   58.55    8.16
   2   3 -11   53.21    8.36
   2  -3  11   65.61    8.86
   2  -3 -12  102.33    9.44
   2   3  12   98.20    9.58
   2   3  12   90.05    9.07
   2  -3  12   99.47    9.71
   2   3 -12   99.39    9.11
   2   3 -12   92.15    8.95
  -2   3  12   92.39    8.98
   2  -3 -13    4.45    2.95
   2   3  13    2.90    3.08
  -2   3 -13    0.32    2.63
  -2   3  13    2.42    2.97
   2  -3  13    3.04    3.31
   2   3 -13    3.03    2.80
   2   3 -13    4.26    2.75
   2   4   0  108.09    7.86
   2  -4   0   99.93    7.32
  -2  -4   0   80.85   15.11
   2   4   0   78.86    8.23
  -2   4   0  102.76    7.82
   2  -4  -1  506.90   16.48
  -2   4  -1  473.71   16.91
   2   4   1  398.47   17.51
   2   4   1  490.19   17.07
  -2  -4   1  508.76   30.52
   2   4  -1  441.47   18.22
  -2  -4  -1  509.94   30.61
   2   4  -1  490.33   17.21
  -2   4   1  470.96   16.92
   2  -4   1  508.27   16.69
   2  -4  -2   -0.67    2.20
  -2   4  -2   -2.00    4.42
   2   4   2   -0.98    2.46
   2   4   2    0.36    2.29
  -2  -4   2   -1.36    4.54
   2  -4   2   -2.13    2.19
  -2   4   2    0.80    4.37
   2   4  -2    4.87    2.31
  -2  -4  -2   -7.27    4.61
   2   4  -2   -0.60    2.52
   2  -4  -3  254.40   11.57
  -2   4  -3  233.73   22.37
   2   4   3  251.75   13.07
   2   4   3  250.02   12.12
  -2  -4   3  223.36   22.62
   2   4  -3  243.47   12.21
  -2   4   3  227.87   21.90
   2   4  -3  263.82   13.20
  -2  -4  -3  226.63   22.67
   2  -4   3  253.94   11.71
   2  -4  -4  375.88   15.00
   2   4   4  413.18   17.38
   2   4   4  385.89   15.84
  -2  -4   4  382.07   26.58
  -2   4  -4  351.77   26.46
  -2   4   4  367.44   27.96
   2  -4   4  388.24   15.28
   2   4  -4  425.34   17.25
  -2  -4  -4  384.57   26.65
   2   4  -4  371.03   15.84
  -2   4  -5  345.20   25.50
   2  -4  -5  351.30   24.66
   2   4   5  385.21   16.32
   2   4   5  357.78   26.08
  -2  -4   5  371.52   25.16
   2   4  -5  375.26   16.17
  -2   4   5  343.11   24.88
   2  -4   5  336.02   14.30
  -2  -4  -5  340.55   14.66
   2   4  -5  334.51   26.25
   2  -4  -6   21.20    8.19
   2   4   6   23.86    5.11
   2   4   6   19.48    8.79
  -2  -4   6   24.05    4.56
  -2   4  -6   25.21    4.57
  -2   4   6   19.98    4.52
   2  -4   6   23.77    8.37
  -2  -4  -6   21.35    4.52
   2   4  -6   20.68    8.47
   2   4  -6   18.22    9.49
   2  -4  -7  313.96   20.80
  -2   4  -7  321.96   22.32
   2   4   7  294.76   21.38
   2   4   7  274.01   25.02
  -2  -4   7  336.53   22.61
  -2   4   7  327.76   12.70
   2   4  -7  304.69   21.69
  -2  -4  -7  313.48   21.82
   2   4  -7  266.71   23.72
   2  -4   7  321.07   21.59
   2  -4  -8  223.39    9.73
   2   4   8  210.57   19.20
   2   4   8  216.34   10.04
  -2  -4   8  214.51   18.97
  -2   4  -8  222.54   18.10
  -2   4   8  221.87   18.66
  -2  -4  -8  203.72   17.34
   2   4  -8  232.93   17.92
   2   4  -8  220.50   10.22
   2  -4   8  219.84   10.20
   2  -4  -9   25.60    7.95
  -2   4  -9   30.40    4.41
   2   4   9   27.54    8.32
   2   4   9   31.65    4.76
  -2  -4   9   28.87    8.35
  -2   4   9   33.48    8.50
   2  -4   9   28.80    8.34
  -2  -4  -9   24.14    4.25
   2   4  -9   29.32    8.32
   2   4  -9   29.67    8.39
   2  -4 -10   33.96    8.94
   2   4  10   36.38    9.81
   2   4  10   37.96    9.02
  -2  -4  10   41.47    9.11
  -2   4 -10   41.88    8.70
  -2   4  10   39.85    9.08
   2  -4  10   46.34    9.37
  -2  -4 -10   36.16    8.57
   2   4 -10   30.38    9.05
   2   4 -10   43.66    8.98
  -2   4 -11   15.29    6.47
   2  -4 -11   14.80    6.94
   2   4  11   18.18    7.75
   2   4  11   18.47    6.95
  -2  -4  11   17.72    7.04
  -2   4  11   11.41    6.72
   2  -4  11   15.86    7.27
  -2  -4 -11   16.56    6.59
   2   4 -11   21.51    3.66
   2   4 -11   15.77    6.88
  -2   5   0  393.85   15.45
   2  -5   0  368.28   24.82
  -2  -5   0  386.82   15.78
   2   5   0  353.58   25.08
   2  -5  -1  226.99   19.01
  -2   5  -1  220.40   11.26
   2   5   1  204.09   19.05
  -2  -5   1  228.04   11.66
   2  -5   1  232.79   19.53
  -2   5   1  218.31   11.13
   2   5  -1  217.13   19.47
  -2  -5  -1  226.15   11.70
   2  -5  -2   63.49   10.70
   2   5   2   58.21   10.77
  -2  -5   2   52.95    6.26
   2   5   2   21.64    6.38
  -2   5  -2   63.17    6.09
   2  -5   2   62.02   10.86
  -2   5   2   63.13    6.00
   2   5  -2   55.98   10.91
  -2  -5  -2   58.70    6.26
   2   5  -2   30.96    6.60
  -2   5  -3  329.42   13.59
   2  -5  -3  343.95   22.23
   2   5   3  334.70   22.25
  -2  -5   3  358.49   24.58
  -2   5   3  327.34   13.29
   2   5  -3  324.63   22.60
   2  -5   3  340.46   22.64
  -2  -5  -3  333.38   24.41
   2   5  -3  251.98   14.16
  -2   5  -4   71.87   13.77
   2  -5  -4  103.98    6.93
  -2  -5   4   84.74   14.14
   2   5   4   85.38    7.92
   2   5   4   87.96    6.94
  -2   5   4   85.30   13.49
   2  -5   4   95.64    7.09
   2   5  -4  106.94    8.03
  -2  -5  -4   71.33   14.02
   2   5  -4   95.11    7.05
   2  -5  -5   90.36    6.42
  -2   5  -5   22.60   12.89
   2   5   5   92.13    6.47
   2   5   5   88.40    7.49
  -2  -5   5   66.00   13.19
  -2   5   5   63.18   12.89
   2  -5   5   86.43    6.51
   2   5  -5   76.47    6.55
  -2  -5  -5   57.44   12.07
   2   5  -5   91.72    7.53
   2  -5  -6    5.88    2.76
   2   5   6    8.03    3.27
  -2  -5   6   -0.92    5.38
   2   5   6    1.32    2.81
  -2   5  -6    3.58    5.35
  -2   5   6    0.43    5.40
   2  -5   6    5.35    2.78
   2   5  -6    9.14    5.41
   2   5  -6    3.15    3.24
  -2  -5  -6    5.34    5.34
   2  -5  -7   19.16    7.64
  -2   5  -7   24.37    4.16
   2   5   7    8.53    7.86
   2   5   7   31.47    4.93
  -2  -5   7   30.10    4.37
   2  -5   7   25.84    7.95
   2   5  -7   16.77    7.93
   2   5  -7   16.86    4.74
  -2  -5  -7   22.73    4.23
  -2   5   7   11.97    8.01
   2  -5  -8   12.94    6.49
  -2   5  -8    7.00    3.37
  -2  -5   8   17.86    3.52
   2   5   8   12.33    7.64
   2   5   8    7.65    6.40
  -2   5   8    6.36    3.41
   2  -5   8   13.29    6.63
   2   5  -8    5.59    7.28
   2   5  -8    8.33    6.46
  -2  -5  -8   11.10    6.46
  -2   5  -9   10.91    6.49
  -2  -5   9    8.46    6.93
   2   5   9   10.34    3.52
   2   5   9    9.47    7.06
   2  -5  -9    8.18    3.52
  -2   5   9   12.28    6.67
   2  -5   9   13.66    3.64
   2   5  -9    6.26    6.62
   2   5  -9   12.86    3.56
  -2  -5  -9   10.29    6.33
   2  -5 -10    4.36    4.17
  -2   5 -10    2.67    3.92
   2   5  10    1.10    4.17
  -2  -5  10   -1.07    4.12
   2   5  10   -0.31    2.37
   2  -5  10   -2.34    4.27
  -2   5  10    0.00    4.05
  -2  -5 -10    1.40    2.09
   2   5 -10    0.85    4.15
   2   5 -10   -0.99    2.19
  -2   6   0    5.78    2.35
   2  -6   0    7.68    4.20
   2   6   0   -1.79    2.58
  -2  -6   0    3.31    2.50
   2   6   0    2.71    4.16
  -2   6  -1  108.08    6.37
   2  -6  -1  123.24   11.53
   2   6   1  108.81   11.17
  -2  -6   1  110.58    7.13
   2  -6   1  115.60   11.93
  -2   6   1  110.91    6.46
  -2  -6  -1  111.18    7.09
   2   6  -1  107.65   11.07
  -2   6  -2  165.45    7.84
   2  -6  -2  179.77   14.01
   2   6   2  161.10   13.18
  -2  -6   2  172.22    8.77
   2  -6   2  186.38   14.35
  -2   6   2  162.16    7.78
  -2  -6  -2  168.16    8.68
   2   6  -2  151.04   13.24
  -2   6  -3   13.29    2.87
   2  -6  -3    8.76    5.43
   2   6   3    8.85    5.00
   2   6   3    8.57    3.33
  -2  -6   3    8.58    3.17
  -2  -6  -3    9.07    5.99
   2  -6   3    8.73    5.50
  -2   6   3    9.95    2.79
   2   6  -3    6.74    5.10
   2   6  -3    7.11    3.41
  -2   6  -4    2.64    4.03
   2  -6  -4    4.55    4.21
   2   6   4    4.06    2.50
   2   6   4    3.95    3.71
  -2  -6   4    4.71    4.52
   2  -6   4    2.40    4.10
  -2   6   4    0.02    3.90
  -2  -6  -4    3.67    4.53
   2   6  -4    0.64    2.56
   2   6  -4   -3.29    3.85
  -2   6  -5   11.65    5.54
   2  -6  -5   11.54    5.80
   2   6   5   20.34    3.46
   2   6   5    2.43    5.14
  -2  -6   5   13.12    6.22
   2  -6   5   13.58    5.82
  -2   6   5    6.32    5.44
  -2  -6  -5   11.42    6.18
   2   6  -5   19.58    5.25
   2   6  -5    5.82    3.52
  -2   6  -6   12.25    4.98
   2  -6  -6   14.48    3.06
   2   6   6    7.96    5.00
   2   6   6   23.85    3.47
  -2  -6   6    7.88    5.69
   2  -6   6   13.29    5.85
  -2   6   6    5.34    4.92
  -2  -6  -6    9.93    5.55
   2   6  -6    8.59    3.48
   2   6  -6    9.01    2.75
  -2   6  -7    1.45    4.23
   2  -6  -7    5.94    2.62
   2   6   7   15.76    3.11
   2   6   7    1.52    2.31
  -2  -6   7   10.53    5.11
   2  -6   7    7.25    2.78
  -2   6   7    2.84    4.20
  -2  -6  -7    8.01    2.60
   2   6  -7    9.08    3.00
   2   6  -7    5.91    2.33
   3   0   0    1.51    2.03
   3   0   0    0.13    1.99
  -3   0   0    1.15    2.11
   3   0   1  425.61   13.09
  -3   0  -1  430.69   12.92
   3   0   1  429.84   12.71
  -3   0   1  429.88   13.05
   3   0  -1  416.25   12.65
   3   0  -1  432.80   12.90
   3   0  -2  605.31   26.50
  -3   0  -2  610.47   16.12
   3   0   2  598.17   15.46
   3   0   2  585.35   15.92
  -3   0   2  596.54   15.73
   3   0  -2  603.34   15.89
  -3   0  -3  862.78   20.63
   3   0   3  872.89   31.46
   3   0   3  839.76   32.07
  -3   0   3  858.47   20.40
   3   0  -3  857.86   32.18
   3   0  -3  821.92   31.82
   3   0   4 2316.40   68.39
   3   0   4 2434.22   71.01
  -3   0   4 2524.23   72.95
   3   0  -4 2384.36   69.27
   3   0  -4 2275.45   69.61
  -3   0  -4 2351.53   71.73
   3   0  -5  210.21    7.95
  -3   0  -5  213.09   15.39
   3   0   5  219.32   14.41
   3   0   5  221.85   14.64
  -3   0   5  185.66   15.11
   3   0  -5  220.72   14.83
  -3   0  -6 1010.05   24.27
   3   0   6  957.98   22.63
   3   0   6 1005.86   23.20
  -3   0   6 1044.41   37.40
   3   0  -6  978.89   34.58
   3   0  -6  978.25   23.24
  -3   0  -7   72.00   10.41
   3   0   7   59.23    9.81
   3   0   7   78.72    9.92
  -3   0   7   63.71    5.56
   3   0  -7   73.34    9.58
   3   0  -7   72.65    9.88
  -3   0  -8   64.11   11.01
   3   0   8   86.47   11.16
   3   0   8   95.38   10.89
   3   0  -8   79.04    5.54
   3   0  -8   72.43   10.76
  -3   0   8   79.98   11.39
   3   0   9  289.17   17.04
  -3   0  -9  298.56   17.26
   3   0   9  296.83   17.16
  -3   0   9  290.63   10.13
   3   0  -9  281.19   16.96
   3   0  -9  288.18   16.87
  -3   0 -10  123.26   11.33
   3   0  10  105.10   10.43
   3   0  10  114.93   10.45
  -3   0  10  102.25   11.53
   3   0 -10  110.38    9.74
   3   0 -10  111.69   10.27
   3   0  11  121.05   10.23
   3   0  11  113.60   10.11
  -3   0  11  111.33    5.77
   3   0 -11  127.10   10.18
   3   0 -11  121.39    9.58
   3   0  12  176.09   10.25
   3   0 -12  191.54    9.88
   3   0 -12  174.24    8.96
   3   1   0  164.93    7.76
   3  -1   0  164.61    7.57
   3   1   0  151.06   14.49
  -3  -1   0  166.55   14.78
  -3   1   0  173.44   14.81
   3   1   1 1006.98   39.50
   3   1   1 1143.49   26.46
  -3  -1   1 1102.74   39.92
   3  -1  -1 1126.69   26.22
  -3   1  -1 1156.61   40.71
  -3  -1  -1 1138.40   40.65
   3   1  -1 1016.31   39.58
   3  -1   1 1172.04   27.08
  -3   1   1 1151.64   40.42
   3   1  -1 1146.50   26.78
   3   1   2  758.58   31.48
  -3  -1   2  784.74   19.81
  -3   1  -2  808.48   32.22
   3   1   2  830.09   19.85
   3  -1  -2  839.67   20.13
  -3  -1  -2  838.36   20.61
   3   1  -2  816.18   32.22
   3   1  -2  840.63   20.53
   3  -1   2  841.79   20.31
  -3   1   2  797.64   31.56
   3   1   3  333.31   10.44
   3   1   3  320.72   18.82
   3  -1  -3  340.47   18.43
  -3  -1   3  334.87   10.70
   3  -1   3  324.66   10.54
  -3  -1  -3  346.81   11.04
   3   1  -3  335.33   10.84
   3   1  -3  337.33   10.82
  -3   1   3  283.70   18.46
   3   1   4  357.82   19.00
   3   1   4  349.12   11.15
  -3  -1   4  360.84   11.25
  -3   1  -4  343.80   19.62
   3  -1  -4  337.62   18.87
   3   1  -4  348.16   19.41
   3  -1   4  352.20   19.14
  -3   1   4  322.31   19.30
  -3  -1  -4  356.31   11.40
   3   1  -4  364.63   11.26
   3   1   5   97.30   10.97
   3   1   5  102.85    6.11
  -3  -1   5   96.99   11.39
  -3   1  -5  102.61    6.20
   3  -1  -5  101.74   11.39
  -3  -1  -5   94.62   11.51
   3   1  -5   96.87   11.86
   3   1  -5   99.97   11.49
   3  -1   5   94.69   11.47
  -3   1   5   97.75   11.50
   3  -1  -6  372.15   11.79
   3   1   6  361.64   20.80
  -3  -1   6  314.43   23.06
  -3   1  -6  358.78   11.95
   3   1   6  376.63   21.18
  -3  -1  -6  335.35   23.22
   3   1  -6  361.93   12.26
   3  -1   6  375.99   20.91
  -3   1   6  371.63   12.06
   3   1   7   11.48    6.66
  -3  -1   7   13.15    3.87
  -3   1  -7   13.84    6.64
   3  -1  -7   14.46    6.28
   3   1   7   14.90    3.49
  -3  -1  -7   16.00    3.83
   3   1  -7   12.86    6.49
   3  -1   7   14.05    6.45
  -3   1   7   11.74    6.76
   3   1  -7   15.58    6.64
  -3   1  -8  693.32   18.90
   3   1   8  635.96   29.81
   3   1   8  672.45   18.82
  -3  -1   8  731.13   20.47
   3  -1  -8  658.25   18.07
   3  -1  -8  692.62   31.12
   3   1  -8  701.14   29.84
  -3  -1  -8  573.73   19.03
   3   1  -8  694.20   33.03
   3  -1   8  684.96   18.28
   3  -1   8  659.69   32.09
  -3   1   8  723.55   31.75
   3   1   9   64.79    5.15
   3   1   9   51.57    9.51
  -3   1  -9   43.07    9.33
   3  -1  -9   55.57    8.87
   3  -1  -9   57.63    8.95
   3   1  -9   60.83    8.50
   3   1  -9   50.54    9.81
   3  -1   9   76.20    9.11
   3  -1   9   56.15    5.06
  -3   1   9   64.49    9.60
  -3   1 -10  198.76    7.56
   3   1  10  183.51   14.23
   3  -1 -10  208.51   13.00
   3  -1 -10  193.37   13.05
   3   1  10  192.17   13.41
   3   1 -10  185.85   12.57
   3   1 -10  207.97   14.34
   3  -1  10  190.58    7.29
   3  -1  10  163.09   13.64
  -3   1  10  191.52   14.00
   3   1  11   21.76    5.78
   3   1  11   19.08    5.97
  -3   1 -11   25.16    5.50
   3  -1 -11   28.48    5.44
   3  -1 -11   21.94    5.31
   3   1 -11   24.67    5.33
   3   1 -11   13.50    5.94
   3  -1  11   24.54    5.56
   3  -1  11   19.38    5.72
  -3   1  11   17.26    5.81
   3   1  12   25.83    5.65
   3   1  12   30.51    5.55
  -3   1 -12    0.36    5.54
   3  -1 -12   40.55    5.25
   3  -1 -12   32.13    4.94
   3   1 -12   26.07    5.47
   3   1 -12   33.08    4.97
   3  -1  12   38.00    5.50
   3  -1  12   35.32    8.13
  -3   1  12   31.45    5.32
   3   1  13   38.94    4.64
   3   1  13   31.16    4.81
   3  -1  13   32.24    4.80
   3  -1  13   50.39    4.53
  -3   1  13   40.37    2.66
  -3  -2   0  434.55   14.58
   3   2   0  362.27   23.94
   3   2   0  412.37   13.49
  -3   2   0  391.05   12.87
   3  -2   0  377.03   23.04
  -3  -2   0  395.02   12.54
   3   2   1  380.01   13.02
  -3  -2   1  408.86   13.93
  -3   2  -1  379.30   12.56
   3  -2  -1  356.71   22.68
  -3  -2   1  375.36   12.21
   3   2   1  351.13   23.36
  -3  -2  -1  389.62   12.68
  -3  -2  -1  417.49   14.23
   3   2  -1  355.99   23.85
   3   2  -1  390.15   13.19
   3  -2   1  346.35   22.72
  -3   2   1  370.35   12.33
   3   2   2 1373.89   48.43
  -3  -2   2 1350.87   33.90
  -3   2  -2 1332.56   32.44
   3  -2  -2 1314.27   49.07
   3   2   2 1247.07   48.51
  -3  -2   2 1333.25   31.50
  -3  -2  -2 1348.43   32.64
  -3  -2  -2 1299.22   34.14
   3   2  -2 1287.84   50.43
   3   2  -2 1380.62   49.25
   3  -2   2 1285.55   48.19
  -3   2   2 1300.20   31.37
   3   2   3 1225.07   46.69
  -3  -2   3 1277.35   30.43
  -3   2  -3 1304.25   31.85
   3  -2  -3 1295.85   32.16
   3   2   3 1307.21   48.82
  -3  -2  -3 1260.65   30.88
   3   2  -3 1315.10   50.38
   3   2  -3 1182.91   46.43
   3  -2   3 1296.28   48.21
  -3   2   3 1293.02   30.93
   3   2   4  167.05    8.88
   3   2   4  147.55   15.76
  -3  -2   4  177.85   15.02
  -3   2  -4  184.84   15.57
   3  -2  -4  185.34    8.84
  -3  -2  -4  166.10   15.19
   3   2  -4  156.65   15.90
   3   2  -4  176.70    9.15
   3  -2   4  177.54    8.78
  -3   2   4  168.70   15.14
   3   2   5  800.63   22.25
  -3   2  -5  770.82   35.95
   3  -2  -5  817.35   35.05
  -3  -2   5  756.03   33.53
   3   2   5  793.91   35.33
  -3  -2  -5  783.93   33.91
   3   2  -5  801.27   21.69
   3   2  -5  777.34   22.68
   3  -2   5  820.30   22.12
  -3   2   5  752.85   33.39
   3   2   6  216.86   10.15
  -3  -2   6  210.99   17.72
  -3   2  -6  222.16   18.97
   3  -2  -6  186.88   18.02
   3   2   6  224.96   19.06
  -3  -2  -6  207.67    9.69
   3   2  -6  212.30   19.21
   3  -2   6  205.99   18.18
  -3   2   6  218.14   18.66
   3   2  -6  217.08   10.00
   3   2   7  366.34   24.01
   3   2   7  346.48   24.52
  -3  -2   7  353.87   13.05
  -3   2  -7  354.92   13.60
   3  -2  -7  332.03   22.71
   3   2  -7  348.57   23.15
   3   2  -7  356.90   24.65
   3  -2   7  306.57   23.13
  -3   2   7  357.27   13.63
   3   2   8  202.14   17.91
  -3   2  -8  204.22   17.84
   3  -2  -8  219.97    9.32
   3   2   8  216.73   10.26
   3   2  -8  224.18   10.21
   3   2  -8  221.73   17.02
   3  -2   8  217.89    9.79
  -3   2   8  218.84   18.08
   3   2   9  604.12   28.79
   3   2   9  590.00   16.73
  -3   2  -9  601.35   27.47
   3  -2  -9  555.99   26.21
   3   2  -9  557.24   28.87
   3  -2   9  586.78   27.49
  -3   2   9  611.37   27.96
   3   2  -9  597.53   26.70
   3   2  10  336.64   20.69
  -3   2 -10  311.09   18.71
   3  -2 -10  326.18   10.69
   3   2 -10  334.58   11.75
   3   2 -10  308.80   18.38
   3  -2  10  343.72   19.69
  -3   2  10  344.63   19.67
   3   2  11   35.83    8.84
   3   2  11   56.19    4.59
  -3   2 -11   50.45    7.93
   3  -2 -11   46.36    7.83
   3  -2 -11   57.67    7.75
   3   2 -11   43.99    8.05
   3   2 -11   41.72    8.26
   3  -2  11   48.62    8.55
  -3   2  11   43.38    8.43
   3   2  12   92.12    9.50
  -3   2 -12   89.28    8.78
   3  -2 -12   95.16    8.71
   3  -2 -12   88.64    8.68
   3   2  12   86.20    9.23
   3   2 -12   87.25    8.45
   3   2 -12   84.46    9.09
   3  -2  12   89.48    9.01
   3  -2  12   96.07    9.36
  -3   2  12   82.20    9.12
  -3   3   0  875.78   24.92
   3  -3   0  846.27   24.07
  -3  -3   0  855.29   24.45
   3   3   0  799.86   38.11
   3   3   0  868.96   26.03
  -3   3  -1  533.08   17.29
   3  -3  -1  543.18   17.32
   3   3   1  534.08   18.05
   3   3   1  513.02   29.05
  -3  -3   1  531.84   16.96
   3  -3   1  543.39   17.28
  -3   3   1  533.93   17.08
   3   3  -1  501.28   29.39
  -3  -3  -1  536.52   17.37
   3   3  -1  535.29   18.18
  -3   3  -2   30.11    4.75
   3  -3  -2   30.77    4.77
   3   3   2   23.76    5.07
   3   3   2   25.39    9.04
  -3  -3   2   29.10    4.62
   3  -3   2   32.02    4.73
  -3   3   2   28.16    4.66
  -3  -3  -2   27.80    4.75
   3   3  -2   29.24    5.10
   3   3  -2   19.94    9.17
  -3   3  -3  513.83   17.19
   3  -3  -3  531.41   17.13
  -3  -3   3  529.24   28.31
   3   3   3  527.54   18.00
   3   3   3  439.28   28.99
   3  -3   3  525.79   17.16
  -3   3   3  502.91   16.87
  -3  -3  -3  518.44   28.69
   3   3  -3  524.10   18.08
   3   3  -3  435.18   28.75
  -3   3  -4   42.63   10.83
   3  -3  -4   47.10    5.58
   3   3   4   38.27    6.01
   3   3   4   35.88   11.06
  -3  -3   4   48.36   10.38
   3  -3   4   47.21    5.64
  -3   3   4   45.16   10.63
  -3  -3  -4   43.80   10.46
   3   3  -4   37.57    5.98
   3   3  -4   43.16   10.88
  -3   3  -5  442.27   29.09
   3  -3  -5  472.88   28.50
   3   3   5  483.60   30.70
   3   3   5  494.24   30.49
  -3  -3   5  473.08   28.33
   3  -3   5  479.61   29.09
  -3   3   5  408.77   28.79
  -3  -3  -5  475.00   28.47
   3   3  -5  463.33   30.64
   3   3  -5  496.25   17.25
  -3   3  -6    4.36    6.47
   3  -3  -6   10.35    6.30
   3   3   6    2.78    6.88
   3   3   6    8.84    3.49
  -3  -3   6    8.91    6.22
   3  -3   6    5.27    6.40
  -3   3   6    3.02    6.47
  -3  -3  -6    5.95    3.22
   3   3  -6    9.39    6.84
   3   3  -6    5.75    3.38
  -3   3  -7  640.98   19.62
   3  -3  -7  658.75   19.32
  -3  -3   7  654.09   19.32
   3   3   7  646.99   34.04
   3   3   7  681.54   33.62
   3  -3   7  676.06   32.51
  -3   3   7  660.99   19.60
  -3  -3  -7  631.22   18.78
   3   3  -7  630.68   20.55
   3   3  -7  622.79   31.86
  -3   3  -8   68.29   11.25
   3  -3  -8   69.71   11.14
   3   3   8   44.70   12.10
   3   3   8   82.29    6.61
  -3  -3   8   70.79   11.43
   3  -3   8   80.36    6.33
  -3   3   8   76.93   11.43
   3   3  -8   58.43   11.30
  -3  -3  -8   58.89   10.87
   3   3  -8   48.42   12.23
  -3   3  -9   50.93   10.83
   3  -3  -9   57.01   10.05
   3   3   9   50.45   11.45
   3   3   9   62.80   11.25
  -3  -3   9   59.80   10.79
   3  -3   9   60.88   11.01
  -3   3   9   57.43   11.14
   3   3  -9   74.77    5.63
  -3  -3  -9   51.34   10.23
   3   3  -9   58.26   10.99
  -3   3 -10    9.96    6.20
   3  -3 -10   11.09    3.13
   3   3  10   15.37    6.63
   3   3  10   11.34    6.66
  -3  -3  10   12.45    3.39
   3  -3  10   10.65    6.42
  -3   3  10   12.07    3.41
   3   3 -10   12.57    3.40
   3   3 -10    8.05    6.21
  -3   3 -11   96.64   11.43
   3  -3 -11  104.26   11.51
   3   3  11  116.57   12.65
   3   3  11  111.29   12.64
   3  -3  11  110.96   12.46
   3   3 -11   99.06   11.86
   3   3 -11  107.77    6.38
  -3   3 -12   11.01    5.33
   3  -3 -12   14.57    5.51
   3   3  12   11.11    5.79
   3   3  12    9.39    6.01
   3  -3  12   12.46    5.95
  -3   3  12    9.78    2.94
   3   3 -12   13.90    5.64
   3  -4   0   85.76    7.70
  -3   4   0   73.26   14.23
   3   4   0   87.35    8.27
  -3  -4   0   74.21   14.10
   3   4   0   85.12   14.13
   3  -4  -1  499.47   17.76
   3   4   1  480.15   18.55
  -3  -4   1  423.82   28.94
  -3   4  -1  431.78   29.18
   3   4   1  463.11   30.04
   3  -4   1  496.65   18.02
  -3   4   1  420.25   29.15
  -3  -4  -1  448.24   29.43
   3   4  -1  477.73   17.90
   3   4  -1  471.42   18.55
   3  -4  -2    5.37    3.16
  -3   4  -2    2.99    5.82
   3   4   2    3.63    3.39
   3   4   2   -0.37    3.17
  -3  -4   2    6.14    5.78
   3  -4   2    2.48    3.20
  -3   4   2    0.56    5.74
   3   4  -2    2.97    3.36
  -3  -4  -2    3.91    5.88
   3   4  -2    6.22    3.22
  -3   4  -3  755.59   37.94
   3  -4  -3  782.72   24.22
   3   4   3  756.30   24.99
   3   4   3  743.44   24.48
  -3  -4   3  756.67   37.46
  -3   4   3  705.19   36.90
   3  -4   3  781.14   24.64
   3   4  -3  767.90   24.38
  -3  -4  -3  746.11   37.90
   3   4  -3  745.29   24.94
  -3   4  -4  287.24   22.05
   3  -4  -4  287.16   12.50
   3   4   4  284.18   13.31
   3   4   4  288.61   12.93
  -3  -4   4  290.03   12.33
   3  -4   4  298.70   12.83
  -3   4   4  291.51   21.62
  -3  -4  -4  274.35   12.31
   3   4  -4  268.65   23.31
   3   4  -4  290.33   12.68
  -3   4  -5  134.38    8.42
   3  -4  -5  138.37   15.06
   3   4   5  126.30   16.19
   3   4   5  133.83    8.53
  -3  -4   5  137.13    8.06
   3  -4   5  150.90   15.43
  -3   4   5  129.24    8.34
  -3  -4  -5  133.31    8.12
   3   4  -5  135.93    8.31
   3   4  -5  124.28   16.06
  -3   4  -6   10.66    3.45
   3  -4  -6   12.45    6.30
   3   4   6    7.86    6.77
   3   4   6    9.46    6.68
  -3  -4   6    9.19    3.35
   3  -4   6   10.88    6.57
  -3   4   6    9.16    3.47
  -3  -4  -6    9.73    3.33
   3   4  -6   12.47    6.72
   3   4  -6    7.74    6.47
  -3   4  -7   46.81   10.00
   3  -4  -7   46.53    9.67
   3   4   7   46.79   10.57
   3   4   7   35.92   10.67
  -3  -4   7   44.98    9.97
   3  -4   7   47.82   10.08
  -3   4   7   40.99   10.27
  -3  -4  -7   38.75    9.67
   3   4  -7   36.98   10.13
   3   4  -7   57.77    5.58
  -3   4  -8  112.31   13.83
   3  -4  -8  127.53    7.62
   3   4   8  130.73    8.20
   3   4   8  124.10   15.61
  -3  -4   8  128.46   14.42
   3  -4   8  131.87    8.03
  -3   4   8  105.92   14.24
  -3  -4  -8  125.91   13.76
   3   4  -8  118.65    8.20
   3   4  -8  131.69    7.94
  -3   4  -9   13.79    3.45
   3  -4  -9   11.36    6.60
   3   4   9   13.44    7.15
   3   4   9   13.24    3.92
  -3  -4   9   12.59    3.62
   3  -4   9   14.24    6.98
  -3   4   9   13.22    6.72
  -3  -4  -9   13.14    3.48
   3   4  -9   12.00    7.19
   3   4  -9   17.73    6.94
  -3   4 -10    3.52    4.46
   3  -4 -10    2.08    4.65
   3   4  10    3.16    4.88
   3   4  10   -1.84    5.24
  -3  -4  10    0.86    4.86
   3  -4  10    6.36    4.88
  -3   4  10    1.51    4.62
  -3  -4 -10    0.98    4.63
   3   4 -10    2.31    4.84
   3   4 -10    2.74    4.87
  -3   5   0    8.44    3.05
   3  -5   0    9.49    3.07
   3   5   0    4.85    6.55
   3   5   0    7.71    3.22
  -3  -5   0    4.54    3.24
  -3   5  -1  264.85   10.79
   3  -5  -1  282.91   11.19
   3   5   1  268.41   11.45
   3   5   1  212.26   21.53
  -3  -5   1  287.69   20.07
   3  -5   1  288.49   11.48
  -3   5   1  263.55   10.76
  -3  -5  -1  283.02   20.18
   3   5  -1  271.78   11.52
   3   5  -1  222.90   21.81
   3  -5  -2   85.19    6.25
  -3   5  -2   77.69    6.01
  -3  -5   2   58.93   11.88
   3   5   2   76.55    6.32
   3   5   2   51.11   13.04
   3  -5   2   87.07    6.37
  -3   5   2   75.47    5.92
  -3  -5  -2   61.75   11.99
   3   5  -2   80.71    6.39
   3   5  -2   46.69   11.65
   3   5   3    7.41    3.11
   3  -5  -3    7.68    3.09
  -3   5  -3    7.44    5.66
   3   5   3    6.25    5.95
  -3  -5   3    9.95    6.06
   3  -5   3    7.43    3.15
  -3   5   3   10.77    5.54
  -3  -5  -3    8.04    6.06
   3   5  -3    8.32    3.16
   3   5  -3    3.75    5.98
  -3   5  -4   -0.32    3.47
   3  -5  -4    0.29    1.88
   3   5   4   -1.09    1.88
   3   5   4    4.06    3.67
  -3  -5   4   -2.51    3.70
  -3   5   4    1.55    3.43
   3  -5   4   -1.56    1.92
  -3  -5  -4    1.45    3.70
   3   5  -4   -2.69    3.68
   3   5  -4    0.79    1.91
  -3   5  -5   43.90    9.93
   3  -5  -5   72.76    5.62
   3   5   5   73.98    5.74
   3   5   5   48.58   10.85
  -3  -5   5   50.40   10.26
   3  -5   5   71.28    5.76
  -3   5   5   47.08   10.07
  -3  -5  -5   53.13   10.28
   3   5  -5   55.54   10.56
   3   5  -5   67.75    5.84
  -3   5  -6   64.04   10.00
   3  -5  -6   64.21   10.55
   3   5   6   25.03   10.72
   3   5   6   79.60    6.08
  -3  -5   6   67.40   10.48
   3  -5   6   66.77   10.79
  -3   5   6   26.75   10.15
  -3  -5  -6   74.32    5.76
   3   5  -6   49.87   10.69
   3   5  -6   83.84    6.00
  -3   5  -7   48.97    4.50
   3  -5  -7   31.78    8.67
   3   5   7    9.78    8.55
   3   5   7    4.27    5.14
  -3  -5   7   58.57    4.82
  -3   5   7   50.03    4.56
   3  -5   7   19.51    9.05
  -3  -5  -7   39.25    4.72
   3   5  -7   39.07    8.65
   3   5  -7   43.11    9.09
  -3   5  -8    6.03    2.54
   3  -5  -8    0.90    2.73
   3   5   8    2.35    5.04
   3   5   8    1.42    5.63
  -3  -5   8    4.50    2.78
   3  -5   8    9.94    5.31
  -3   5   8    1.85    2.56
  -3  -5  -8    4.89    5.09
   3   5  -8    7.92    2.72
   3   5  -8    3.66    5.36
   4   0   0  532.64   28.66
  -4   0   0  636.21   18.94
   4   0   0  633.98   30.63
  -4   0  -1   44.75   11.28
   4   0   1   57.31   10.68
   4   0   1   61.45   10.89
  -4   0   1   64.21    5.88
   4   0  -1   55.79   10.53
   4   0  -1   62.75   11.06
   4   0   2  282.81   19.86
  -4   0  -2  291.31   20.68
   4   0   2  285.20   20.11
  -4   0   2  291.27   20.71
   4   0  -2  296.46   19.81
   4   0  -2  274.23   20.37
  -4   0  -3   13.35    7.62
   4   0   3   15.64    7.27
   4   0   3   18.16    7.32
  -4   0   3   21.63    7.53
   4   0  -3   13.44    7.22
   4   0  -3   17.30    7.43
   4   0  -4  713.93   19.97
  -4   0  -4  669.01   34.71
   4   0   4  687.71   19.96
   4   0   4  737.52   33.39
  -4   0   4  599.42   33.71
   4   0  -4  749.81   34.20
  -4   0  -5  -10.66    7.28
   4   0   5    9.91    3.49
   4   0   5   10.47    3.49
  -4   0   5   -2.69    7.11
   4   0  -5   11.20    3.46
   4   0  -5   12.92    3.56
  -4   0  -6  128.94    8.67
   4   0   6  115.47    7.99
   4   0   6  126.44    8.06
  -4   0   6  126.48    8.51
   4   0  -6  145.67   14.99
   4   0  -6  155.83   15.64
  -4   0   7   50.87   10.76
  -4   0  -7   45.70   10.64
   4   0   7   35.40    9.89
   4   0   7   56.90    9.90
   4   0  -7   50.05    9.77
   4   0  -7   48.85   10.01
  -4   0  -8  138.05   14.94
   4   0   8  153.35   14.76
   4   0   8  143.39   14.25
  -4   0   8  130.15   15.19
   4   0  -8  141.95    7.49
   4   0  -8  159.16   14.70
  -4   0  -9   20.02    3.95
   4   0   9   20.73    7.38
   4   0   9   23.13    3.82
  -4   0   9   24.22    7.60
   4   0  -9   20.14    6.99
   4   0  -9   22.03    7.34
   4   0  10  193.08   16.35
  -4   0 -10  174.32   15.78
   4   0  10  215.93   16.45
  -4   0  10  212.91   16.37
   4   0 -10  217.05   16.62
   4   0 -10  208.79   15.48
  -4   0  11  107.68   13.52
  -4   0 -11  115.38    7.01
   4   0  11   97.45    6.48
   4   0  11  101.46    6.53
   4   0 -11  118.53   11.21
   4   0 -11  122.77   12.04
  -4   0 -12   22.67    4.71
   4   0  12   36.55    9.12
   4   0  12   40.99    9.00
  -4   0  12   65.28    4.90
   4   1   0 1231.92   47.75
   4  -1   0 1111.33   29.29
  -4   1   0 1191.84   31.51
  -4  -1   0 1067.47   46.99
   4   1   0 1151.37   30.05
   4   1   1  809.13   36.21
   4   1   1  780.24   21.60
  -4  -1   1  710.19   35.15
  -4   1  -1  782.31   22.13
   4  -1  -1  778.04   21.53
  -4  -1  -1  721.46   35.33
   4   1  -1  783.02   22.06
   4  -1   1  794.91   22.18
  -4   1   1  784.49   22.24
   4   1  -1  800.10   36.32
   4   1   2   82.77    6.52
  -4  -1   2   67.07   12.50
  -4   1  -2   83.82    6.64
   4  -1  -2   84.89    6.50
   4   1   2   65.52   12.59
  -4  -1  -2   69.70   12.55
   4   1  -2   87.06    6.60
   4   1  -2   64.87   12.71
   4  -1   2   83.30    6.57
  -4   1   2   77.77    6.63
  -4  -1   3   51.76   11.45
   4   1   3   63.49    5.93
   4   1   3   55.32   11.53
  -4   1  -3   63.63    6.13
   4  -1  -3   62.20    5.92
  -4  -1  -3   60.60    6.13
   4   1  -3   64.45    6.05
   4  -1   3   65.24    6.03
  -4   1   3   62.71    6.05
   4   1   4  370.13   13.59
  -4  -1   4  369.53   13.94
   4  -1  -4  372.28   23.97
  -4   1  -4  391.83   25.31
   4   1  -4  330.55   24.82
  -4  -1  -4  374.85   14.16
   4   1  -4  367.06   13.95
   4  -1   4  365.97   13.82
  -4   1   4  354.39   13.86
   4   1   5  227.52   20.59
   4   1   5  235.64   19.56
  -4  -1   5  233.37   11.20
  -4   1  -5  216.82   20.72
   4  -1  -5  238.82   19.79
  -4  -1  -5  244.46   11.34
   4   1  -5  239.80   20.24
   4   1  -5  252.99   20.60
   4  -1   5  236.17   19.99
  -4   1   5  216.57   20.35
   4   1   6  340.40   23.38
   4   1   6  365.77   14.00
  -4  -1   6  372.22   24.38
  -4   1  -6  397.40   25.41
   4  -1  -6  367.73   24.22
   4  -1  -6  357.27   13.66
  -4  -1  -6  340.37   24.44
   4   1  -6  355.49   25.37
   4   1  -6  377.86   13.97
   4  -1   6  351.27   24.38
  -4   1   6  366.29   25.09
   4   1   7  170.03   16.13
   4   1   7  159.45    8.89
  -4  -1   7  146.78   17.87
  -4   1  -7  170.68    9.04
   4  -1  -7  162.21    8.58
   4  -1  -7  163.99    8.53
   4   1  -7  162.97    8.98
   4   1  -7  162.24   15.96
   4  -1   7  165.64    8.58
   4  -1   7  159.88   16.10
  -4   1   7  171.12    9.08
  -4  -1  -7  142.55   17.90
   4   1   8  177.58    8.77
   4   1   8  165.01   16.54
  -4  -1   8  213.12   18.11
  -4   1  -8  175.59   16.60
   4  -1  -8  176.92   15.17
   4  -1  -8  157.74   15.73
   4   1  -8  173.55   16.25
  -4  -1  -8  189.12    9.79
   4   1  -8  156.08   14.96
   4  -1   8  167.52    8.81
   4  -1   8  176.92   15.78
  -4   1   8  174.37    9.14
   4   1   9    7.05    4.68
   4   1   9    4.81    4.72
  -4  -1   9    2.29    2.80
  -4   1  -9   -0.27    4.90
   4  -1  -9    3.61    4.64
   4  -1  -9    3.66    4.85
  -4  -1  -9    2.30    2.77
   4   1  -9    1.46    2.31
   4   1  -9    4.90    5.25
   4  -1   9    3.07    4.68
   4  -1   9    2.09    4.69
  -4   1   9    1.29    4.96
   4   1  10   20.19    6.18
  -4  -1  10    5.37    3.68
   4   1  10   11.23    6.86
  -4   1 -10   14.63    3.27
   4  -1 -10   11.46    3.23
   4  -1 -10   29.84    6.06
  -4  -1 -10   -3.60    3.61
   4   1 -10   -2.82    5.74
   4   1 -10   13.97    3.48
   4  -1  10    3.03    6.70
  -4   1  10   17.20    3.40
   4   1  11   57.11   10.16
   4   1  11   59.02   10.82
  -4   1 -11   66.77    9.86
   4  -1 -11   79.54    9.81
   4   1 -11   64.74    9.45
   4   1 -11   73.70   10.75
   4  -1  11   65.46    9.86
   4  -1  11   49.94   10.38
  -4   1  11   49.86   10.42
   4   1  12  206.03   15.53
   4   1  12  224.03   16.57
  -4   1 -12  189.77   14.71
   4  -1 -12  195.92   14.86
   4  -1 -12  193.51   14.34
   4   1 -12  198.82   16.16
   4   1 -12  185.63   14.59
   4  -1  12  205.09   15.07
   4  -1  12  206.42   15.90
  -4   1  12  192.60    8.38
  -4  -2   0  158.67   10.05
  -4  -2   0  138.92    8.62
   4   2   0  144.52    9.05
  -4   2   0  150.86    9.17
   4  -2   0  137.77    8.84
   4   2   0  142.91    9.21
   4   2   1  305.91   13.11
   4   2   1  311.08   13.16
  -4  -2   1  337.49   14.24
  -4  -2   1  300.51   12.46
  -4   2  -1  309.10   13.05
   4  -2  -1  312.18   22.34
  -4  -2  -1  312.71   12.98
   4   2  -1  313.74   13.41
   4   2  -1  300.28   13.11
   4  -2   1  300.48   12.95
  -4   2   1  299.88   13.03
  -4  -2  -1  333.57   14.23
   4   2   2  385.33   26.36
   4   2   2  384.16   15.05
  -4  -2   2  405.51   16.28
  -4  -2   2  375.39   14.34
  -4   2  -2  387.03   15.15
   4  -2  -2  385.92   25.28
   4   2  -2  399.55   26.84
  -4  -2  -2  375.53   14.77
   4   2  -2  380.00   15.14
   4  -2   2  378.79   25.23
  -4   2   2  376.49   14.91
  -4  -2  -2  419.48   16.48
   4   2   3  429.62   28.65
   4   2   3  450.17   27.92
  -4  -2   3  476.13   17.88
  -4  -2   3  431.10   15.80
  -4   2  -3  444.64   16.76
   4  -2  -3  430.88   27.38
  -4  -2  -3  488.45   18.15
   4   2  -3  440.48   28.93
  -4  -2  -3  425.55   16.08
   4   2  -3  451.25   28.25
   4  -2   3  427.48   27.50
  -4   2   3  427.98   16.31
   4   2   4   15.43    8.61
   4   2   4   15.90    8.33
  -4  -2   4   20.92    4.90
  -4   2  -4   13.80    8.79
   4  -2  -4   13.85    8.94
   4   2  -4   12.71    8.55
  -4  -2  -4   23.20    4.95
   4   2  -4   15.16    8.52
   4  -2   4   16.33    8.32
  -4   2   4   16.62    4.52
   4   2   5   75.76   14.83
   4   2   5   76.03   13.88
  -4  -2   5  113.02    8.21
  -4   2  -5   68.18   14.34
   4  -2  -5   68.56   14.60
  -4  -2  -5  100.34    8.18
   4   2  -5   78.66   15.11
   4   2  -5  116.07   13.87
   4  -2   5   71.10   14.58
  -4   2   5   77.43   14.14
   4   2   6  268.23   11.67
   4   2   6  279.53   22.28
  -4   2  -6  269.43   21.47
   4  -2  -6  286.30   11.94
   4   2  -6  273.13   12.48
   4   2  -6  287.97   11.70
   4  -2   6  275.12   11.95
   4   2   7  204.04   10.27
   4   2   7  204.50    9.90
  -4   2  -7  214.00   18.14
   4  -2  -7  214.54   17.52
   4   2  -7  205.29    9.62
   4  -2   7  202.00   10.11
  -4   2   7  197.87   18.10
   4   2  -7  202.66   10.49
   4   2   8  197.71   18.07
   4   2   8  179.62   17.38
  -4   2  -8  196.58    9.62
   4  -2  -8  166.84   16.77
   4   2  -8  187.75   16.72
   4   2  -8  183.53   18.37
   4  -2   8  184.15   17.59
  -4   2   8  198.81    9.73
   4   2   9   49.86   10.74
   4   2   9   43.51   10.26
  -4   2  -9   41.57    9.93
   4  -2  -9   54.71    9.64
   4   2  -9   48.47   10.77
   4   2  -9   48.58    9.73
   4  -2   9   48.41   10.13
  -4   2   9   52.47   10.28
   4   2  10  268.45   11.82
   4   2  10  277.06   11.43
  -4   2 -10  282.33   19.43
   4  -2 -10  273.54   10.79
   4  -2 -10  273.19   18.76
   4   2 -10  278.48   20.76
   4   2 -10  266.98   10.83
   4  -2  10  285.43   10.91
   4  -2  10  267.22   11.14
  -4   2  10  293.20   20.39
   4   2  11   27.93    9.22
   4   2  11   30.65    9.08
  -4   2 -11   31.68    8.38
   4  -2 -11   42.76    8.29
   4  -2 -11   40.16    8.35
   4   2 -11   34.25    7.96
   4   2 -11   32.30    9.24
   4  -2  11   38.29    8.49
   4  -2  11   29.25    8.73
  -4   2  11   32.52    8.76
   4   3   0   61.09   13.35
  -4  -3   0   60.97    6.37
   4   3   0   70.77   13.01
  -4   3   0   67.56    6.59
   4  -3   0   57.58   12.67
  -4  -3   1  265.42   11.75
   4   3   1  270.61   23.20
   4   3   1  240.17   22.35
  -4   3  -1  265.10   11.86
   4  -3  -1  254.36   22.05
  -4  -3  -1  266.48   12.04
   4   3  -1  269.15   23.10
   4   3  -1  241.44   22.38
   4  -3   1  255.60   22.29
  -4   3   1  260.87   11.76
   4   3   2   34.36   11.05
   4   3   2   27.47   10.62
  -4  -3   2   34.60    9.87
  -4   3  -2   44.13    5.37
   4  -3  -2   31.94   10.54
   4   3  -2   31.24   10.98
  -4  -3  -2   45.22   10.23
   4   3  -2   37.14   10.73
   4  -3   2   27.81   10.53
  -4   3   2   42.05    5.31
   4   3   3  142.04   17.04
   4   3   3  152.87   17.60
  -4  -3   3  159.78   16.16
  -4   3  -3  161.54   16.48
   4   3  -3  140.05   17.72
  -4  -3  -3  152.62   16.33
   4   3  -3  139.54   16.98
  -4   3   3  166.16   16.00
   4   3   4   49.30   11.57
  -4  -3   4   43.96   10.58
  -4   3  -4   55.04   10.79
   4  -3  -4   57.71   10.90
   4   3   4   53.01   11.20
  -4  -3  -4   36.02   10.48
   4   3  -4   63.04   11.06
   4   3  -4   51.69   11.55
   4  -3   4   53.41   10.95
  -4   3   4   62.94   10.59
   4   3   5  532.86   29.76
   4   3   5  545.40   30.62
  -4   3  -5  519.60   30.06
   4  -3  -5  550.84   29.02
  -4  -3   5  528.91   28.36
  -4  -3  -5  529.86   28.38
   4   3  -5  550.14   17.61
   4   3  -5  515.63   30.51
   4  -3   5  513.21   29.06
  -4   3   5  496.35   29.68
   4   3   6  147.56    8.60
   4   3   6  136.09    8.88
  -4  -3   6  143.10   15.04
  -4   3  -6  147.39   15.99
   4  -3  -6  145.00    8.28
  -4  -3  -6  137.04    8.21
   4   3  -6  148.58    8.48
   4   3  -6  134.87    8.86
   4  -3   6  143.36    8.29
  -4   3   6  139.31   15.95
   4   3   7  112.42    7.83
   4   3   7  111.62    8.11
  -4  -3   7  118.90    7.59
  -4   3  -7  120.18    7.78
   4  -3  -7  119.87    7.38
  -4  -3  -7  108.86    7.37
   4   3  -7  116.82   13.85
   4   3  -7  114.19   14.68
   4  -3   7  116.09    7.59
  -4   3   7  112.39    7.91
   4   3   8   75.81   12.62
   4   3   8   73.01   12.93
  -4   3  -8   63.39   12.12
   4  -3  -8   72.00   11.63
   4   3  -8   58.32   12.75
   4   3  -8   53.72   11.77
   4  -3   8   75.70   12.17
  -4   3   8   97.55    6.79
   4   3   9   66.58   13.93
   4   3   9   74.29   13.09
   4  -3  -9  111.81   12.55
   4   3  -9   62.30   13.82
   4   3  -9  109.80    6.80
   4  -3   9  109.72   13.06
  -4   3   9   63.80   13.15
   4   3  10    4.58    3.53
   4   3  10    8.14    3.33
  -4   3 -10   11.96    5.84
   4  -3 -10    8.72    5.99
   4   3 -10    7.04    6.56
   4   3 -10    9.13    6.04
   4  -3  10    8.69    3.33
  -4   3  10    5.00    6.23
  -4  -4   0  102.51   12.72
   4   4   0  113.77   13.71
   4   4   0  105.98    7.19
  -4   4   0   70.78   12.27
   4  -4   0  111.34   12.70
   4   4   1  162.60    8.79
  -4  -4   1  155.31   14.73
   4   4   1  145.58   16.00
  -4   4  -1  129.90   14.13
   4  -4  -1  156.82   15.09
  -4  -4  -1  148.78   15.05
   4   4  -1  160.47    8.81
   4   4  -1  139.60   15.77
   4  -4   1  167.30   15.31
  -4   4   1  126.60   14.10
   4   4   2  154.62   16.88
   4   4   2  180.68    9.49
  -4  -4   2  176.50   15.77
  -4   4  -2  171.25   15.48
   4  -4  -2  176.80   16.25
  -4  -4  -2  183.97   16.14
   4   4  -2  154.70   16.81
   4   4  -2  190.79    9.49
   4  -4   2  167.91   16.34
  -4   4   2  155.35   15.09
   4   4   3  130.67   15.42
   4   4   3  153.64    8.64
  -4  -4   3  160.87   14.46
  -4   4  -3  136.55   14.36
   4  -4  -3  143.38   14.98
   4   4  -3  121.31   15.40
   4   4  -3  147.12    8.58
   4  -4   3  140.30   15.02
  -4   4   3  134.52   14.04
  -4  -4  -3  139.03   14.65
   4   4   4   47.29   12.03
   4   4   4   84.09    6.57
  -4  -4   4   82.82    6.11
  -4   4  -4   74.49    6.09
   4  -4  -4   73.57   11.68
  -4  -4  -4   77.11    6.19
   4   4  -4   46.06   11.90
   4   4  -4   83.59    6.49
   4  -4   4   63.82   11.77
  -4   4   4   71.26   11.02
   4   4   5   59.77   13.58
   4   4   5  108.42    7.37
  -4  -4   5  107.47    6.90
  -4   4  -5  101.33    6.80
   4  -4  -5  113.96   13.10
  -4  -4  -5  107.16    6.90
   4   4  -5   66.76   13.31
   4   4  -5  110.99    7.26
   4  -4   5  118.99   13.11
  -4   4   5  104.79    6.88
  -4  -4   6  104.79    6.79
   4   4   6   95.73    7.30
  -4   4  -6  100.36    6.55
   4  -4  -6  105.13    6.96
  -4  -4  -6  101.27    6.75
   4   4  -6   94.15    7.13
   4   4  -6   81.36   12.87
   4  -4   6  103.23    7.08
  -4   4   6  100.27    6.75
   4   4   7   25.25    4.79
   4   4   7    1.74    8.94
  -4  -4   7   41.65    8.45
  -4   4  -7   36.94    7.82
   4  -4  -7   40.60    4.53
  -4  -4  -7   28.85    8.17
   4   4  -7   25.04    4.76
   4   4  -7   25.93    8.50
   4  -4   7   40.36    4.68
  -4   4   7   13.60    8.10
   4   4   8    3.42    4.94
   4   4   8   -0.37    4.93
  -4  -4   8    0.91    4.69
  -4   4  -8    3.22    4.42
   4  -4  -8   -0.30    4.63
  -4  -4  -8    0.83    4.56
   4   4  -8    0.72    4.87
   4   4  -8    2.91    2.48
   4  -4   8    4.22    4.80
  -4   4   8    1.26    4.41
   4   4   9    1.18    5.87
   4   4   9   -1.15    3.16
  -4  -4   9    7.42    3.03
  -4   4  -9    6.38    2.74
   4  -4  -9    8.63    5.46
  -4  -4  -9    5.56    2.91
   4   4  -9   -0.38    5.75
   4   4  -9    6.66    2.99
   4  -4   9    3.29    5.73
  -4   4   9    0.78    5.59
  -4   5  -3   28.62    5.97
   4   5   4   22.54    5.68
  -4  -5   4   13.83    5.28
  -4   5  -4    7.81    4.54
   4  -5  -4   13.43    5.47
   4   5   4    3.70    5.11
  -4  -5  -4   12.87    5.26
   4   5  -4    6.22    5.00
   4   5  -4   21.24    5.59
   4  -5   4   20.41    5.60
  -4   5   4   16.26    4.59
   4   5   5    2.63    3.43
   4   5   5    0.76    4.04
  -4  -5   5    7.71    3.77
  -4   5  -5   -1.07    3.07
   4  -5  -5    2.28    3.80
  -4  -5  -5    2.16    3.68
   4   5  -5    3.68    3.54
   4   5  -5    6.32    2.13
   4  -5   5    3.57    3.92
  -4   5   5    0.60    3.20
   4   5   6    5.77    3.67
   4   5   6    0.66    2.38
  -4  -5   6    8.11    4.15
  -4   5  -6    5.11    3.12
   4  -5  -6    8.84    3.99
  -4  -5  -6    5.15    3.86
   4   5  -6    4.70    2.01
   4   5  -6   10.94    2.25
   4  -5   6    9.66    4.28
  -4   5   6    2.44    3.25
   5   0   0    3.68    2.56
   5   0   0   -1.23    2.68
   5   0   1  724.10   22.36
   5   0   1  718.43   21.98
   5   0  -1  706.67   21.79
   5   0  -1  718.94   22.10
  -5   0  -1  744.18   37.94
  -5   0   1  742.80   38.24
   5   0  -2  302.79   12.79
   5   0   2  297.50   13.03
   5   0   2  309.59   12.94
   5   0  -2  309.28   13.07
   5   0   3  112.39    7.95
   5   0   3  116.59    7.86
   5   0  -3  114.16    7.85
   5   0  -3  116.25    7.91
  -5   0  -4 1111.99   30.21
   5   0   4 1030.37   28.82
   5   0   4 1076.92   28.54
  -5   0   4 1064.48   29.61
   5   0  -4 1049.91   28.36
   5   0  -4 1065.42   28.82
  -5   0  -5  558.66   17.96
   5   0   5  529.85   28.32
   5   0   5  549.80   16.87
   5   0  -5  527.24   27.87
   5   0  -5  539.61   28.47
  -5   0   5  544.98   17.77
   5   0  -6  117.44   12.79
   5   0   6  139.40   12.72
   5   0  -6    8.44   12.70
  -5   0  -7    3.77    7.43
   5   0   7   29.72    7.13
   5   0   7    5.33    6.90
  -5   0   7   22.49    7.46
   5   0  -7    4.61    7.05
  -5   0  -8  336.85   21.10
   5   0   8  264.30   11.33
   5   0   8  277.13   10.97
  -5   0   8  283.58   21.00
   5   0  -8  282.35   11.16
   5   0  -8  277.09   11.41
   5   0   9  246.83   17.57
   5   0   9  182.23    9.23
  -5   0   9  177.76    9.80
   5   0  -9  250.74   17.06
   5   0  -9  252.18   17.61
  -5   0  -9  182.38    9.72
  -5   0 -10   10.77    6.97
   5   0  10   10.85    7.04
   5   0  10   16.51    6.75
  -5   0  10    9.62    7.11
   5   0 -10   16.93    6.84
   5   0 -10   12.28    7.23
   5   1   0  775.47   23.96
   5   1   0  760.83   22.98
  -5   1   0  721.79   38.25
   5  -1   0  763.11   22.87
  -5  -1   0  751.71   38.37
   5  -1  -1  283.29   12.58
   5   1   1  279.42   12.32
   5   1   1  280.12   13.15
  -5   1  -1  272.59   22.59
   5  -1  -1  277.66   12.34
   5   1  -1  283.90   12.43
   5   1  -1  282.37   13.03
   5  -1   1  277.65   12.79
  -5   1   1  275.04   22.44
   5   1   2 1250.54   33.70
   5   1   2 1250.50   35.32
   5  -1  -2 1253.75   33.97
   5  -1  -2 1262.84   34.37
  -5   1  -2 1261.56   52.20
  -5  -1   2 1183.26   33.11
  -5  -1  -2 1218.60   33.66
   5   1  -2 1252.04   34.18
   5   1  -2 1305.23   35.74
   5  -1   2 1249.02   34.58
   5  -1   2 1271.97   33.80
  -5   1   2 1217.68   51.10
   5   1   3  494.33   17.30
  -5  -1   3  478.31   16.47
  -5   1  -3  498.78   28.93
   5  -1  -3  483.93   16.51
   5  -1  -3  481.60   16.71
   5   1   3  484.91   16.23
  -5  -1  -3  488.50   16.75
   5   1  -3  476.50   16.61
   5   1  -3  515.35   17.38
   5  -1   3  485.40   16.81
   5  -1   3  495.77   16.44
  -5   1   3  476.62   28.25
   5   1   4  158.80    8.59
   5   1   4  161.96    9.20
  -5  -1   4  156.05    8.80
  -5   1  -4  169.81    9.33
   5  -1  -4  160.63   15.92
   5  -1  -4  160.42    8.86
   5   1  -4  160.40    9.16
  -5  -1  -4  167.22    8.98
   5   1  -4  157.81    8.87
   5  -1   4  156.61    8.99
   5  -1   4  164.68    8.72
  -5   1   4  163.65    9.12
   5   1   5   17.76    7.08
   5   1   5   14.23    3.97
  -5  -1   5   17.54    3.89
  -5   1  -5   16.68    4.05
   5  -1  -5    9.75    7.26
   5  -1  -5   17.40    3.80
  -5  -1  -5   20.76    3.90
   5   1  -5   14.01    7.21
   5  -1   5   13.04    7.32
   5  -1   5   14.88    3.82
  -5   1   5   16.89    4.01
   5   1   6  490.74   26.41
   5   1   6  495.64   28.16
  -5  -1   6  529.13   27.55
  -5   1  -6  534.11   17.27
   5  -1  -6  511.56   27.39
   5  -1  -6  517.73   27.32
  -5  -1  -6  513.49   27.37
   5   1  -6  479.45   28.24
   5   1  -6  500.86   27.92
   5  -1   6  475.70   27.58
   5  -1   6  554.91   27.34
  -5   1   6  540.62   17.34
   5   1   7  176.59   16.40
   5   1   7  206.46   16.95
  -5  -1   7  159.34   16.53
  -5   1  -7  180.25   17.34
   5  -1  -7  181.77   16.23
   5  -1  -7  185.47    9.08
  -5  -1  -7  157.41   18.55
   5   1  -7  203.56   17.33
   5  -1   7  191.69   17.00
   5  -1   7  188.16   16.27
  -5   1   7  197.02   17.60
   5   1  -7  195.63   15.96
   5   1   8   82.48    6.68
   5   1   8   98.77    6.82
  -5   1  -8   61.83   13.35
   5  -1  -8   91.13    6.72
   5  -1  -8   94.34    6.70
  -5  -1  -8   95.26    7.59
   5   1  -8   94.50    6.54
   5   1  -8   89.32    7.07
   5  -1   8   89.38    6.80
   5  -1   8  100.05   12.26
  -5   1   8  118.43   13.46
   5   1   9  128.80    8.11
   5   1   9  139.71   14.99
  -5  -1   9  152.53    9.25
  -5   1  -9  143.27    8.65
   5  -1  -9  141.39    8.09
   5  -1  -9  126.82   14.48
  -5  -1  -9  152.51    9.25
   5   1  -9  225.42   14.86
   5   1  -9  130.83   15.48
   5  -1   9  125.93   14.94
   5  -1   9  135.85    8.04
  -5   1   9  143.18    8.78
   5   1  10    0.72    5.29
   5   1  10    6.32    5.91
  -5  -1  10    5.62    3.20
  -5   1 -10    7.07    5.51
   5  -1 -10   -3.95    5.61
   5  -1 -10    9.51    5.28
  -5  -1 -10    1.73    3.14
   5   1 -10    0.83    5.18
   5   1 -10    4.97    5.97
   5  -1  10    1.77    5.26
   5  -1  10    6.82    5.76
  -5   1  10    1.35    5.73
   5   2   0  440.51   15.10
   5   2   0  445.23   15.46
  -5   2   0  424.13   25.46
   5  -2   0  426.70   14.96
  -5  -2   0  440.45   16.41
   5   2   1   76.34    6.50
   5   2   1   69.85    6.57
  -5  -2   1   80.03    6.96
  -5   2  -1   63.97   11.79
   5  -2  -1   78.26    6.41
  -5  -2  -1   76.34    6.99
   5   2  -1   81.68    6.57
   5  -2   1   73.44    6.56
  -5   2   1   65.16   11.67
   5   2  -1   75.74    6.53
   5   2   2  437.30   14.99
   5   2   2  412.20   15.15
  -5  -2   2  437.34   15.85
  -5   2  -2  421.43   25.11
   5  -2  -2  430.08   14.98
   5   2  -2  454.59   15.34
  -5  -2  -2  457.06   15.96
   5   2  -2  431.51   15.03
   5  -2   2  405.66   15.18
  -5   2   2  414.96   24.60
   5   2   3   44.82    5.21
   5   2   3   42.55    5.28
  -5  -2   3   56.54    5.60
  -5   2  -3   39.95    5.27
   5  -2  -3   37.85    9.44
  -5  -2  -3   51.37    5.65
   5   2  -3   41.59    5.26
   5   2  -3   44.18    5.30
   5  -2   3   35.81    5.25
  -5   2   3   41.50    9.53
  -5  -2   4  406.45   14.74
   5   2   4  394.54   22.80
   5   2   4  371.92   23.75
  -5   2  -4  382.32   13.88
   5  -2  -4  369.49   22.93
  -5  -2  -4  407.21   14.85
   5   2  -4  372.96   23.34
   5   2  -4  383.00   23.62
   5  -2   4  366.67   23.12
  -5   2   4  360.88   13.59
   5   2   5   78.56   11.96
   5   2   5   73.47   12.36
  -5  -2   5  105.87    7.17
  -5   2  -5   92.43    6.71
   5  -2  -5   56.63   12.92
  -5  -2  -5   95.78    7.16
   5   2  -5   81.24   12.35
   5   2  -5   73.56   12.03
   5  -2   5   59.32   12.01
  -5   2   5   90.87    6.61
   5   2   6   26.42    8.76
  -5  -2   6   23.23    4.74
  -5   2  -6   28.90    8.29
   5  -2  -6   27.76    8.57
  -5  -2  -6   27.08    4.70
   5   2  -6   28.47    8.84
   5  -2   6   20.38    8.62
  -5   2   6   27.80    4.39
   5   2   7   18.54    7.45
   5   2   7   22.58    7.08
  -5  -2   7    9.61    4.03
  -5   2  -7   13.21    6.94
   5  -2  -7   14.96    3.72
  -5  -2  -7    5.16    3.92
   5   2  -7   15.83    3.88
   5   2  -7   21.12    6.94
   5  -2   7   18.00    3.86
  -5   2   7   18.98    7.02
   5   2   8   94.74    7.35
   5   2   8   88.25    7.05
  -5   2  -8  107.24   13.06
   5  -2  -8   97.93    7.05
   5  -2  -8   94.06    6.66
   5   2  -8   95.23    7.38
   5   2  -8   94.48    6.96
   5  -2   8   96.19    7.16
   5  -2   8   99.12    6.63
  -5   2   8   75.01   13.20
   5   2   9   17.25    8.41
   5   2   9   20.75    4.26
  -5   2  -9   16.56    4.21
   5  -2  -9    7.68    7.78
   5  -2  -9   18.10    4.04
   5   2  -9   13.52    8.40
   5   2  -9   13.56    7.84
   5  -2   9   20.41    8.05
   5  -2   9   26.39    4.05
  -5   2   9   20.95    4.35
   5   3   0  170.77    8.81
   5   3   0  190.66   15.48
  -5  -3   0  172.09    8.25
  -5   3   0  175.16    8.38
   5  -3   0  176.74    8.70
   5   3   1   42.99    9.76
   5   3   1   58.70    5.41
  -5  -3   1   56.72    5.08
  -5   3  -1   53.40    4.98
   5  -3  -1   63.22    5.31
   5   3  -1   47.62    9.82
   5   3  -1   36.85    5.29
  -5  -3  -1   60.51    5.12
   5  -3   1   57.32    5.37
  -5   3   1   39.96    5.00
   5   3   2   42.09    9.33
   5   3   2   37.04    5.03
  -5  -3   2   54.32    4.86
  -5   3  -2   53.65    4.79
   5  -3  -2   33.10    5.09
  -5  -3  -2   51.11    4.92
   5   3  -2   43.49    9.36
   5   3  -2   37.59    5.03
   5  -3   2   32.08    5.14
  -5   3   2   48.88    4.67
   5   3   3  103.22   12.64
   5   3   3  101.29    6.80
  -5  -3   3  111.34    6.69
  -5   3  -3  101.12    6.61
   5  -3  -3  102.98   12.54
  -5  -3  -3   94.76    6.69
   5   3  -3  104.05   12.48
   5   3  -3   95.96    6.82
   5  -3   3  109.43   12.73
  -5   3   3   94.36    6.40
   5   3   4   57.34   10.48
   5   3   4   53.77   10.23
  -5   3  -4   52.56    9.95
   5  -3  -4   42.05   10.39
   5   3  -4   51.29   10.31
   5   3  -4   41.66   10.24
   5  -3   4   51.00   10.53
  -5   3   4   77.58    5.28
   5   3   5   61.24   10.07
   5   3   5   52.66    9.89
  -5   3  -5   57.16    9.54
   5   3  -5   54.20    9.90
   5   3  -5   59.93    9.92
   5  -3   5   42.64   10.08
  -5   3   5   59.15    9.55
   5   3   6   40.27    9.34
   5   3   6    2.70    9.27
   5  -3  -6   44.10    9.19
   5   3  -6   43.74    9.16
   5   3  -6   62.42    4.93
   5  -3   6   29.54    9.22
   5   3   7  148.77   14.72
   5   3   7  143.32    8.30
  -5   3  -7  146.66   13.79
   5  -3  -7  157.46    8.03
   5   3  -7  138.31    8.18
   5   3  -7  153.57    8.03
   5  -3   7  146.63   14.76
  -5   3   7  131.03   13.84
   5   3   8  221.15   10.31
   5   3   8  208.86   10.39
  -5   3  -8  220.90    9.49
   5  -3  -8  231.53   10.15
   5   3  -8  212.26   10.15
   5   3  -8  221.96   17.75
   5  -3   8  220.67   10.21
  -5   3   8  212.92    9.68
   5   4   5   23.22    6.61
   5   4   5   62.46    4.16
  -5  -4   5   61.32    4.03
  -5   4  -5   47.01    3.28
   5  -4  -5   44.09    7.11
  -5  -4  -5   49.51    3.78
   5   4  -5   13.82    6.38
   5   4  -5   65.11    3.96
   5  -4   5   49.31    7.23
  -5   4   5   13.34    6.10
   5   4   6    3.50    3.60
   5   4   6    1.94    2.23
  -5  -4   6   13.75    2.19
  -5   4  -6    6.88    1.67
   5  -4  -6    1.32    3.85
  -5  -4  -6    7.17    1.98
   5   4  -6    2.89    3.45
   5   4  -6   10.57    3.81
   5  -4   6   12.44    3.98
  -5   4   6    2.96    1.80
   6   0   0    0.29    2.07
  -6   0   0    2.73    2.15
   6   0   0    3.70    2.03
   6   0   1  150.99   12.67
   6   0   1  143.76    6.63
   6   0  -1  144.02   12.33
   6   0  -1  143.05    6.59
  -6   0  -1  137.13    6.77
  -6   0   1  140.08    6.90
   6   0  -2   31.63    7.72
  -6   0  -2   31.45    4.02
   6   0   2   34.23    7.93
   6   0   2   37.75    3.86
  -6   0   2   44.93    4.06
   6   0  -2   36.71    3.90
  -6   0  -3    2.03    2.10
   6   0   3    3.60    4.19
   6   0   3    2.74    3.71
  -6   0   3    2.44    2.06
   6   0  -3    1.38    4.10
   6   0  -3    1.84    3.79
   6   0   4   25.80    7.30
  -6   0  -4   27.93    3.72
   6   0   4   31.19    6.41
  -6   0   4   29.22    3.62
   6   0  -4   13.89    7.21
   6   0  -4   28.84    6.68
   6   0   5  116.27   11.88
   6   0   5  122.48   10.58
   6   0  -5  115.19   11.87
   6   0  -5  120.26   10.84
  -6   0   5  108.81   11.19
  -6   0  -5  113.14   11.39
  -6   0  -6    3.17    5.94
   6   0   6   24.23    6.37
   6   0   6   18.67    5.55
  -6   0   6    9.49    5.96
   6   0  -6   20.77    6.24
   6   0  -6   21.55    5.69
  -6   0  -7  191.21   13.52
   6   0   7  179.79    8.35
   6   0   7  172.12    7.20
  -6   0   7  170.10   13.44
   6   0  -7  196.36    8.13
   6   0  -7  180.30    7.42
   6   1   0    2.65    1.88
   6   1   0    3.06    3.94
  -6   1   0    1.74    1.98
   6  -1   0    1.04    1.96
   6  -1   0    3.17    3.60
  -6  -1   0    1.26    1.97
   6   1   1   -6.41    4.43
  -6  -1   1    2.85    2.06
   6   1   1    2.89    2.01
  -6   1  -1    3.98    2.07
   6  -1  -1    5.85    2.15
   6  -1  -1    4.37    3.91
  -6  -1  -1    2.30    2.02
   6   1  -1   -3.98    4.37
   6   1  -1    4.97    2.01
   6  -1   1    1.69    2.22
   6  -1   1    2.76    3.91
  -6   1   1    1.96    2.08
   6   1   2    7.69    5.64
  -6  -1   2   11.46    2.60
  -6   1  -2    8.51    2.66
   6  -1  -2   12.29    5.20
   6  -1  -2   11.27    4.90
   6   1   2    9.01    2.55
   6   1  -2    2.49    5.57
  -6  -1  -2    8.00    2.58
   6   1  -2    8.77    2.57
   6  -1   2   13.25    2.89
   6  -1   2    9.57    4.83
  -6   1   2   10.81    2.65
   6   1   3   19.24    2.94
   6   1   3   11.02    6.51
  -6  -1   3   16.32    3.00
  -6   1  -3   18.43    3.15
   6  -1  -3   13.36    6.09
   6  -1  -3   20.42    5.61
  -6  -1  -3   17.14    3.03
   6   1  -3    8.00    6.12
   6   1  -3   16.87    5.56
   6  -1   3   19.89    6.26
   6  -1   3   21.54    5.50
  -6   1   3   17.41    3.08
   6   1   4   18.78    7.14
   6   1   4   28.21    6.21
  -6  -1   4   40.78    3.46
  -6   1  -4   24.19    6.91
   6  -1  -4   22.81    7.11
   6  -1  -4   26.32    6.49
  -6  -1  -4   28.95    3.54
   6   1  -4   26.06    7.16
   6   1  -4   27.43    6.44
   6  -1   4   29.29    7.22
   6  -1   4   20.52    6.34
  -6   1   4   23.54    6.63
   6   1   5    8.46    4.31
  -6  -1   5   11.24    2.39
   6   1   5    2.47    4.86
  -6   1  -5   -0.15    4.83
   6  -1  -5   10.40    5.06
   6  -1  -5   16.70    4.48
  -6  -1  -5    8.63    4.47
   6   1  -5    7.22    4.89
   6   1  -5    8.77    4.48
   6  -1   5    2.92    5.10
   6  -1   5   -2.80    4.37
  -6   1   5   -3.11    4.68
   6   1   6   45.23    4.03
   6   1   6   39.86    6.79
  -6  -1   6   32.98    6.68
  -6   1  -6   38.09    7.15
   6  -1  -6   28.21    7.59
   6  -1  -6   40.80    3.58
  -6  -1  -6   21.92    6.68
   6   1  -6   29.81    4.00
   6   1  -6   32.84    6.96
   6  -1   6   32.65    7.80
   6  -1   6   35.39    6.50
  -6   1   6   27.11    6.98
   6   1   7    7.24    2.44
  -6  -1   7    1.55    4.67
  -6   1  -7    0.74    2.26
   6  -1  -7    5.94    2.38
   6  -1  -7    5.63    2.09
  -6  -1  -7    1.87    4.53
   6   1  -7    8.03    2.34
   6   1  -7    2.64    2.16
   6  -1   7    6.65    2.51
   6  -1   7    4.75    2.06
  -6   1   7   -2.02    4.18
  -6   2  -4    9.30    4.10
   6   2  -4   11.09    3.95
   6   2   5   38.64    6.28
   6   2   5   79.71    4.31
  -6  -2   5   63.71    3.82
  -6   2  -5   63.50    6.60
   6  -2  -5   70.20    7.22
   6  -2  -5   64.11    3.43
  -6  -2  -5   60.80    3.76
   6   2  -5   29.74    6.35
   6  -2   5   47.06    7.56
   6  -2   5   56.57    3.33
  -6   2   5   36.79    6.28
   6   2   6    3.75    2.39
   6   2   6    2.90    1.47
  -6  -2   6   -0.47    1.29
  -6   2  -6    0.74    1.23
   6  -2  -6    3.24    2.66
   6  -2  -6    1.04    1.14
  -6  -2  -6   -2.04    1.24
   6   2  -6   -3.28    2.37
   6   2  -6   -0.47    1.42
   6  -2   6    1.15    2.88
   6  -2   6    0.46    1.10
  -6   2   6    1.33    2.17
;
loop_
_symmetry_equiv_pos_site_id
_space_group_symop_operation_xyz
1 +X,+Y,+Z
2 1/2+X,1/2-Y,-Z
3 -X,1/2+Y,1/2-Z
4 1/2-X,-Y,1/2+Z
loop_
_atom_site_label
_atom_site_type_symbol
_atom_site_fract_x
_atom_site_fract_y
_atom_site_fract_z
_atom_site_U_iso_or_equiv
_atom_site_adp_type
_atom_site_occupancy
_atom_site_site_symmetry_multiplicity
_atom_site_calc_flag
_atom_site_refinement_flags
O1 O 0.2390(4) 0.0503(4) 0.1852(2) 0.0428(7) Uani 1 4 d .
O2 O 0.3718(4) -0.2284(5) 0.0843(2) 0.0439(7) Uani 1 4 d .
N3 N 0.8143(4) -0.1560(5) 0.1381(3) 0.0362(7) Uani 1 4 d .
C4 C 0.6443(5) 0.0235(6) 0.1614(3) 0.0322(7) Uani 1 4 d .
C5 C 0.3977(5) -0.0603(6) 0.1415(3) 0.0324(7) Uani 1 4 d .
C6 C 0.6973(6) 0.2238(7) 0.0915(3) 0.0439(9) Uani 1 4 d .
H3A H 0.7829 -0.27343 0.17923 0.0434 Uiso 1 4 calc R
H3B H 0.80513 -0.19383 0.06835 0.0434 Uiso 1 4 calc R
H3C H 0.95659 -0.10785 0.15261 0.0434 Uiso 1 4 calc R
H4 H 0.65875 0.06614 0.23791 0.0387 Uiso 1 4 calc R
H6A H 0.58747 0.33915 0.10668 0.0527 Uiso 1 4 calc R
H6B H 0.85061 0.27594 0.10715 0.0527 Uiso 1 4 calc R
H6C H 0.68723 0.18319 0.01626 0.0527 Uiso 1 4 calc R
loop_
_atom_site_aniso_label
_atom_site_aniso_U_11
_atom_site_aniso_U_22
_atom_site_aniso_U_33
_atom_site_aniso_U_12
_atom_site_aniso_U_13
_atom_site_aniso_U_23
O1 0.0241(11) 0.0588(16) 0.0454(15) 0.0015(12) 0.0046(10) -0.0082(12)
O2 0.0337(13) 0.0577(16) 0.0403(16) -0.0052(13) -0.0033(10) -0.0103(12)
N3 0.0223(13) 0.0488(16) 0.0374(17) -0.0007(12) 0.0006(11) -0.0024(13)
C4 0.0201(15) 0.0438(18) 0.0328(19) 0.0004(14) -0.0005(11) -0.0043(14)
C5 0.0243(15) 0.0484(19) 0.0244(18) -0.0037(15) -0.0000(12) 0.0007(14)
C6 0.0337(18) 0.049(2) 0.049(2) -0.0042(18) -0.0006(14) 0.0055(17)
loop_
_atom_type_symbol
_atom_type_description
_atom_type_scat_dispersion_real
_atom_type_scat_dispersion_imag
_atom_type_scat_source
C C 0.0033 0.0016
;
International Tables for Crystallography
(Vol. C, Tables 4.2.6.8 and 6.1.1.4)
;
H H 0.0000 0.0000
;
International Tables for Crystallography
(Vol. C, Table 6.1.1.4)
;
O O 0.0106 0.0060
;
International Tables for Crystallography
(Vol. C, Tables 4.2.6.8 and 6.1.1.4)
;
N N 0.0061 0.0033
;
International Tables for Crystallography
(Vol. C, Tables 4.2.6.8 and 6.1.1.4)
;
loop_
_geom_angle_atom_site_label_1
_geom_angle_atom_site_label_2
_geom_angle_atom_site_label_3
_geom_angle
_geom_angle_publ_flag
N3 C4 C5 110.0(3) yes
N3 C4 C6 109.6(3) yes
C5 C4 C6 111.1(3) yes
O1 C5 O2 126.0(3) yes
O1 C5 C4 115.8(3) yes
O2 C5 C4 118.2(3) yes
C4 N3 H3A 109.469 no
C4 N3 H3B 109.477 no
C4 N3 H3C 109.474 no
H3A N3 H3B 109.473 no
H3A N3 H3C 109.466 no
H3B N3 H3C 109.468 no
N3 C4 H4 108.671 no
C5 C4 H4 108.674 no
C6 C4 H4 108.673 no
C4 C6 H6A 109.466 no
C4 C6 H6B 109.471 no
C4 C6 H6C 109.473 no
H6A C6 H6B 109.471 no
H6A C6 H6C 109.471 no
H6B C6 H6C 109.475 no
loop_
_geom_bond_atom_site_label_1
_geom_bond_atom_site_label_2
_geom_bond_distance
_geom_bond_publ_flag
O1 C5 1.256(4) yes
O2 C5 1.244(4) yes
N3 C4 1.490(4) yes
C4 C5 1.532(4) yes
C4 C6 1.515(5) yes
N3 H3A 0.890 no
N3 H3B 0.890 no
N3 H3C 0.890 no
C4 H4 0.980 no
C6 H6A 0.960 no
C6 H6B 0.960 no
C6 H6C 0.960 no
loop_
_geom_contact_atom_site_label_1
_geom_contact_atom_site_label_2
_geom_contact_distance
_geom_contact_publ_flag
_geom_contact_site_symmetry_2
O1 N3 3.597(4) no .
O1 C6 3.073(4) no .
O2 N3 2.678(4) no .
O2 C6 3.314(5) no .
O1 N3 2.812(3) no 1_455
O1 N3 2.823(4) no 3_655
O1 C4 3.453(4) no 1_455
O1 C4 3.488(4) no 3_655
O1 C6 3.497(4) no 1_455
O1 C6 3.403(5) no 3_645
O2 O2 3.567(4) no 2_445
O2 O2 3.567(4) no 2_545
O2 N3 3.318(4) no 1_455
O2 N3 2.845(4) no 2_445
O2 C4 3.472(4) no 3_645
N3 O1 2.812(3) no 1_655
N3 O1 2.823(4) no 3_645
N3 O2 3.318(4) no 1_655
N3 O2 2.845(4) no 2_545
N3 C5 3.420(4) no 1_655
C4 O1 3.453(4) no 1_655
C4 O1 3.488(4) no 3_645
C4 O2 3.472(4) no 3_655
C4 C5 3.500(5) no 3_655
C5 N3 3.420(4) no 1_455
C5 C4 3.500(5) no 3_645
C5 C6 3.580(5) no 3_645
C6 O1 3.497(4) no 1_655
C6 O1 3.403(5) no 3_655
C6 C5 3.580(5) no 3_655
O1 H4 2.5129 no .
O1 H6A 2.8333 no .
O1 H6C 3.4183 no .
O2 H3A 2.6617 no .
O2 H3B 2.5203 no .
O2 H3C 3.5576 no .
O2 H4 3.0800 no .
O2 H6C 3.1916 no .
N3 H6A 3.2840 no .
N3 H6B 2.6409 no .
N3 H6C 2.6408 no .
C5 H3A 2.6119 no .
C5 H3B 2.6463 no .
C5 H3C 3.2451 no .
C5 H6A 2.6816 no .
C5 H6B 3.3379 no .
C5 H6C 2.7085 no .
C6 H3A 3.2259 no .
C6 H3B 2.6103 no .
C6 H3C 2.6103 no .
H3A H4 2.2872 no .
H3A H6B 3.4524 no .
H3A H6C 3.4524 no .
H3B H4 2.7452 no .
H3B H6A 3.4839 no .
H3B H6B 2.8853 no .
H3B H6C 2.4589 no .
H3C H4 2.2732 no .
H3C H6A 3.4839 no .
H3C H6B 2.4589 no .
H3C H6C 2.8852 no .
H4 H6A 2.3438 no .
H4 H6B 2.3290 no .
H4 H6C 2.8248 no .
O1 H3A 3.2806 no 1_455
O1 H3A 1.9833 no 3_655
O1 H3B 3.2443 no 1_455
O1 H3B 3.4146 no 3_655
O1 H3C 1.9322 no 1_455
O1 H3C 3.0851 no 3_655
O1 H4 3.4164 no 1_455
O1 H4 3.1258 no 3_645
O1 H4 3.3054 no 3_655
O1 H6A 3.0325 no 3_645
O1 H6B 2.7954 no 1_455
O1 H6B 3.0894 no 3_645
O1 H6C 2.9722 no 2_455
O2 H3A 3.2862 no 2_445
O2 H3B 3.2872 no 1_455
O2 H3B 1.9756 no 2_445
O2 H3C 2.6447 no 1_455
O2 H3C 3.1192 no 2_445
O2 H4 2.5226 no 3_645
O2 H6A 2.9037 no 1_545
O2 H6C 3.1929 no 2_445
N3 H4 3.5521 no 3_645
N3 H6A 3.3377 no 1_545
N3 H6B 3.4536 no 1_545
C4 H3A 3.3830 no 3_655
C4 H4 3.4945 no 3_645
C4 H6A 3.3447 no 3_645
C5 H3A 2.9931 no 3_655
C5 H3B 3.0276 no 2_445
C5 H3C 2.5689 no 1_455
C5 H4 2.7180 no 3_645
C5 H6A 3.1615 no 3_645
C5 H6B 3.5210 no 2_455
C5 H6B 3.5523 no 3_645
C5 H6C 3.2295 no 2_455
C6 H3A 3.2571 no 1_565
C6 H3B 3.5786 no 1_565
C6 H4 3.5933 no 3_655
C6 H6A 3.3446 no 2_555
C6 H6B 3.1619 no 2_455
C6 H6C 3.2805 no 2_455
C6 H6C 3.1769 no 2_555
H3A O1 3.2806 no 1_655
H3A O1 1.9833 no 3_645
H3A O2 3.2862 no 2_545
H3A C4 3.3830 no 3_645
H3A C5 2.9931 no 3_645
H3A C6 3.2571 no 1_545
H3A H3C 3.2595 no 3_745
H3A H4 2.9140 no 3_645
H3A H4 3.5197 no 3_745
H3A H6A 2.7447 no 1_545
H3A H6A 3.4635 no 3_645
H3A H6B 2.8858 no 1_545
H3A H6B 3.3908 no 3_745
H3B O1 3.2443 no 1_655
H3B O1 3.4146 no 3_645
H3B O2 3.2872 no 1_655
H3B O2 1.9756 no 2_545
H3B C5 3.0276 no 2_545
H3B C6 3.5786 no 1_545
H3B H3B 3.4121 no 2_445
H3B H3B 3.4121 no 2_545
H3B H3C 3.5909 no 2_445
H3B H6A 3.1206 no 1_545
H3B H6A 3.4476 no 2_555
H3B H6B 3.2440 no 1_545
H3C O1 1.9322 no 1_655
H3C O1 3.0851 no 3_645
H3C O2 2.6447 no 1_655
H3C O2 3.1192 no 2_545
H3C C5 2.5689 no 1_655
H3C H3A 3.2595 no 3_755
H3C H3B 3.5909 no 2_545
H3C H4 3.2597 no 3_745
H3C H6B 3.2387 no 3_745
H3C H6C 3.5585 no 2_555
H4 O1 3.4164 no 1_655
H4 O1 3.3054 no 3_645
H4 O1 3.1258 no 3_655
H4 O2 2.5226 no 3_655
H4 N3 3.5521 no 3_655
H4 C4 3.4945 no 3_655
H4 C5 2.7180 no 3_655
H4 C6 3.5933 no 3_645
H4 H3A 2.9140 no 3_655
H4 H3A 3.5197 no 3_755
H4 H3C 3.2597 no 3_755
H4 H4 3.5424 no 3_645
H4 H4 3.5424 no 3_655
H4 H6A 2.7501 no 3_645
H6A O1 3.0325 no 3_655
H6A O2 2.9037 no 1_565
H6A N3 3.3377 no 1_565
H6A C4 3.3447 no 3_655
H6A C5 3.1615 no 3_655
H6A C6 3.3446 no 2_455
H6A H3A 2.7447 no 1_565
H6A H3A 3.4635 no 3_655
H6A H3B 3.1206 no 1_565
H6A H3B 3.4476 no 2_455
H6A H4 2.7501 no 3_655
H6A H6B 3.0483 no 2_455
H6A H6C 2.7678 no 2_455
H6B O1 2.7954 no 1_655
H6B O1 3.0894 no 3_655
H6B N3 3.4536 no 1_565
H6B C5 3.5210 no 2_555
H6B C5 3.5523 no 3_655
H6B C6 3.1619 no 2_555
H6B H3A 2.8858 no 1_565
H6B H3A 3.3908 no 3_755
H6B H3B 3.2440 no 1_565
H6B H3C 3.2387 no 3_755
H6B H6A 3.0483 no 2_555
H6B H6C 2.4810 no 2_555
H6C O1 2.9722 no 2_555
H6C O2 3.1929 no 2_545
H6C C5 3.2295 no 2_555
H6C C6 3.1769 no 2_455
H6C C6 3.2805 no 2_555
H6C H3C 3.5585 no 2_455
H6C H6A 2.7678 no 2_555
H6C H6B 2.4810 no 2_455
H6C H6C 3.0263 no 2_455
H6C H6C 3.0263 no 2_555
loop_
_geom_hbond_atom_site_label_D
_geom_hbond_atom_site_label_H
_geom_hbond_atom_site_label_A
_geom_hbond_site_symmetry_A
_geom_hbond_distance_DA
_geom_hbond_distance_DH
_geom_hbond_distance_HA
_geom_hbond_angle_DHA
_geom_hbond_publ_flag
N3 H3A O1 3_645 2.823(4) 0.890 1.983 156.8 no
N3 H3B O2 . 2.678(4) 0.890 2.520 90.3 no
N3 H3B O2 2_545 2.845(4) 0.890 1.976 165.3 no
N3 H3C O1 1_655 2.812(3) 0.890 1.932 169.4 no
loop_
_geom_torsion_atom_site_label_1
_geom_torsion_atom_site_label_2
_geom_torsion_atom_site_label_3
_geom_torsion_atom_site_label_4
_geom_torsion
_geom_torsion_publ_flag
N3 C4 C5 O1 161.4(3) no
N3 C4 C5 O2 -18.8(4) no
C6 C4 C5 O1 -77.0(3) no
C6 C4 C5 O2 102.8(3) no
