#------------------------------------------------------------------------------
#$Date: 2016-02-05 03:26:01 +0200 (Fri, 05 Feb 2016) $
#$Revision: 176203 $
#$URL: svn://www.crystallography.net/cod/cif/7/22/34/7223426.cif $
#------------------------------------------------------------------------------
#
# This file is available in the Crystallography Open Database (COD),
# http://www.crystallography.net/
#
# All data on this site have been placed in the public domain by the
# contributors.
#
data_7223426
loop_
_publ_author_name
'Beckmann, Peter A.'
'Moore, Curtis E.'
'Rheingold, Arnold L.'
_publ_section_title
;
 Methyl and t-butyl group rotation in a molecular solid: (1)H NMR
 spin-lattice relaxation and X-ray diffraction.
;
_journal_issue                   3
_journal_name_full               'Physical chemistry chemical physics : PCCP'
_journal_page_first              1720
_journal_page_last               1726
_journal_paper_doi               10.1039/c5cp04994f
_journal_volume                  18
_journal_year                    2016
_chemical_absolute_configuration ad
_chemical_formula_moiety         'C16 H21 Br O Si'
_chemical_formula_sum            'C16 H21 Br O Si'
_chemical_formula_weight         337.33
_space_group_crystal_system      monoclinic
_space_group_IT_number           4
_space_group_name_Hall           'P 2yb'
_space_group_name_H-M_alt        'P 1 21 1'
_symmetry_space_group_name_Hall  'P 2yb'
_symmetry_space_group_name_H-M   'P 1 21 1'
_atom_sites_solution_hydrogens   geom
_atom_sites_solution_primary     direct
_audit_creation_date             2015-08-24
_audit_creation_method
;
Olex2 1.2
(compiled 2015.01.26 svn.r3150 for OlexSys, GUI svn.r4998)
;
_audit_update_record
;
2015-08-24 deposited with the CCDC.
2015-12-07 downloaded from the CCDC.
;
_cell_angle_alpha                90
_cell_angle_beta                 101.3670(10)
_cell_angle_gamma                90
_cell_formula_units_Z            2
_cell_length_a                   7.0513(3)
_cell_length_b                   7.6501(2)
_cell_length_c                   15.5178(7)
_cell_measurement_reflns_used    3641
_cell_measurement_temperature    100(2)
_cell_measurement_theta_max      25.42
_cell_measurement_theta_min      2.68
_cell_volume                     820.66(6)
_computing_molecular_graphics    'Olex2 (Dolomanov et al., 2009)'
_computing_publication_material  'Olex2 (Dolomanov et al., 2009)'
_computing_structure_refinement  'XL (Sheldrick, 2008)'
_computing_structure_solution    'ShelXS (Sheldrick, 2008)'
_diffrn_ambient_temperature      100.15
_diffrn_detector                 'Bruker APEX-II CCD'
_diffrn_detector_area_resol_mean 7.9
_diffrn_detector_type            'CCD Area Detector'
_diffrn_measured_fraction_theta_full 0.984
_diffrn_measured_fraction_theta_max 0.982
_diffrn_measurement_device       'Kappa Four-Circle Diffractometer'
_diffrn_measurement_device_type  'Bruker APEX-II CCD'
_diffrn_measurement_method       '\f and \w scans'
_diffrn_radiation_monochromator  graphite
_diffrn_radiation_probe          x-ray
_diffrn_radiation_type           MoK\a
_diffrn_radiation_wavelength     0.71073
_diffrn_reflns_av_R_equivalents  0.0176
_diffrn_reflns_av_unetI/netI     0.0445
_diffrn_reflns_laue_measured_fraction_full 0.984
_diffrn_reflns_laue_measured_fraction_max 0.982
_diffrn_reflns_limit_h_max       8
_diffrn_reflns_limit_h_min       -8
_diffrn_reflns_limit_k_max       8
_diffrn_reflns_limit_k_min       -9
_diffrn_reflns_limit_l_max       18
_diffrn_reflns_limit_l_min       -18
_diffrn_reflns_number            4924
_diffrn_reflns_point_group_measured_fraction_full 0.907
_diffrn_reflns_point_group_measured_fraction_max 0.901
_diffrn_reflns_theta_full        25.242
_diffrn_reflns_theta_max         25.442
_diffrn_reflns_theta_min         2.678
_diffrn_source_type              'Bruker TXS'
_diffrn_standards_number         0
_exptl_absorpt_coefficient_mu    2.569
_exptl_absorpt_correction_T_max  0.637
_exptl_absorpt_correction_T_min  0.566
_exptl_absorpt_correction_type   multi-scan
_exptl_crystal_colour            colourless
_exptl_crystal_colour_primary    colourless
_exptl_crystal_density_diffrn    1.365
_exptl_crystal_description       block
_exptl_crystal_F_000             348
_exptl_crystal_size_max          0.34
_exptl_crystal_size_mid          0.3
_exptl_crystal_size_min          0.1
_refine_diff_density_max         0.248
_refine_diff_density_min         -0.217
_refine_diff_density_rms         0.039
_refine_ls_abs_structure_details
;
 Flack x determined using 997 quotients [(I+)-(I-)]/[(I+)+(I-)]
 (Parsons, Flack and Wagner, Acta Cryst. B69 (2013) 249-259).
;
_refine_ls_abs_structure_Flack   0.029(6)
_refine_ls_extinction_method     none
_refine_ls_goodness_of_fit_ref   0.874
_refine_ls_hydrogen_treatment    constr
_refine_ls_matrix_type           full
_refine_ls_number_parameters     177
_refine_ls_number_reflns         2742
_refine_ls_number_restraints     1
_refine_ls_restrained_S_all      0.874
_refine_ls_R_factor_all          0.0206
_refine_ls_R_factor_gt           0.0186
_refine_ls_shift/su_max          0.000
_refine_ls_shift/su_mean         0.000
_refine_ls_structure_factor_coef Fsqd
_refine_ls_weighting_details     'w=1/[\s^2^(Fo^2^)] where P=(Fo^2^+2Fc^2^)/3'
_refine_ls_weighting_scheme      calc
_refine_ls_wR_factor_gt          0.0424
_refine_ls_wR_factor_ref         0.0430
_reflns_Friedel_coverage         0.699
_reflns_friedel_fraction_full    0.816
_reflns_friedel_fraction_max     0.806
_reflns_number_gt                2567
_reflns_number_total             2742
_reflns_threshold_expression     'I > 2\s(I)'
_cod_data_source_file            c5cp04994f1.cif
_cod_data_source_block           beck28
_cod_depositor_comments
;
The following automatic conversions were performed:

'_diffrn_radiation_probe' value 'X-ray' changed to 'x-ray' according
to
/usr/data/users/saulius/crontab/automatic-downloads/rss-feeds/RSC/lib/dictionaries/cif_core.dic
dictionary named 'cif_core.dic' version 2.4.2 from 2011-04-26.

Automatic conversion script
Id: cif_fix_values 4268 2015-11-12 08:31:59Z antanas 

 Adding full bibliography for 7223426.cif.
;
_cod_database_code               7223426
_shelx_space_group_comment
;
The symmetry employed for this shelxl refinement is uniquely defined
by the following loop, which should always be used as a source of
symmetry information in preference to the above space-group names.
They are only intended as comments.
;
_shelx_estimated_absorpt_t_max   0.783
_shelx_estimated_absorpt_t_min   0.475
_olex2_refinement_description
;
1. Fixed Uiso
 At 1.2 times of:
  All C(H) groups
 At 1.5 times of:
  All C(H,H,H) groups
2.a Aromatic/amide H refined with riding coordinates:
 C1(H1), C3(H3), C4(H4), C5(H5), C7(H7), C8(H8)
2.b Idealised Me refined as rotating group:
 C11(H11A,H11B,H11C), C12(H12A,H12B,H12C), C14(H14A,H14B,H14C), C15(H15A,H15B,
 H15C), C16(H16A,H16B,H16C)
;
_shelx_res_file
;
    beck28.res created by SHELXL-2014/7

TITL beck28 in P2(1)
CELL 0.71073 7.0513 7.6501 15.5178 90 101.367 90
ZERR 2 0.0003 0.0002 0.0007 0 0.001 0
LATT -1
SYMM -X,0.5+Y,-Z
SFAC C H Br O Si
UNIT 32 42 2 2 2

L.S. 4
PLAN  5
SIZE 0.1 0.3 0.34
TEMP -173
BOND
fmap 2
acta
REM <olex2.extras>
REM <HklSrc "%.\\beck28.hkl">
REM </olex2.extras>

WGHT    0.000000
FVAR       0.21288
BR1   3   -0.125176    0.250820    0.229588    11.00000    0.03422    0.02614 =
         0.02241   -0.00120   -0.00106    0.00549
SI1   5    0.704150    0.239498    0.797074    11.00000    0.02044    0.01576 =
         0.02544    0.00091    0.00298   -0.00075
O1    4    0.561328    0.358353    0.720857    11.00000    0.04165    0.02569 =
         0.01999   -0.00360   -0.00233    0.01039
C1    1    0.283541    0.369901    0.609669    11.00000    0.03071    0.01418 =
         0.02058    0.00004    0.01108    0.00156
AFIX  43
H1    2    0.217212    0.424914    0.649980    11.00000   -1.20000
AFIX   0
C2    1    0.468797    0.317470    0.637049    11.00000    0.03384    0.01657 =
         0.01995   -0.00036    0.00336    0.00154
C3    1    0.569466    0.231776    0.578598    11.00000    0.02682    0.02523 =
         0.02945   -0.00565    0.00133    0.00578
AFIX  43
H3    2    0.698799    0.193362    0.598523    11.00000   -1.20000
AFIX   0
C4    1    0.478907    0.204941    0.493420    11.00000    0.02622    0.02687 =
         0.02749   -0.00456    0.01005    0.00437
AFIX  43
H4    2    0.547469    0.148898    0.454265    11.00000   -1.20000
AFIX   0
C5    1    0.191163    0.232238    0.373492    11.00000    0.02756    0.01492 =
         0.02168    0.00209    0.01003    0.00128
AFIX  43
H5    2    0.255966    0.176631    0.332788    11.00000   -1.20000
AFIX   0
C6    1    0.007059    0.287531    0.347643    11.00000    0.02995    0.01601 =
         0.01865    0.00264    0.00456   -0.00115
C7    1   -0.095751    0.371500    0.404775    11.00000    0.02756    0.02079 =
         0.02982   -0.00057    0.00661    0.00588
AFIX  43
H7    2   -0.225139    0.409425    0.384476    11.00000   -1.20000
AFIX   0
C8    1   -0.004960    0.397440    0.490537    11.00000    0.02594    0.02347 =
         0.02988   -0.00406    0.01320    0.00403
AFIX  43
H8    2   -0.073232    0.452927    0.529971    11.00000   -1.20000
AFIX   0
C9    1    0.287813    0.257839    0.462333    11.00000    0.02455    0.01239 =
         0.02462    0.00278    0.01000   -0.00476
C10   1    0.186995    0.343510    0.521122    11.00000    0.02385    0.01209 =
         0.02245    0.00086    0.00997   -0.00169
C11   1    0.613079    0.012339    0.792021    11.00000    0.03976    0.02580 =
         0.05805   -0.00049    0.01191   -0.00781
AFIX 137
H11A  2    0.624864   -0.040176    0.735714    11.00000   -1.50000
H11B  2    0.476931    0.012468    0.797425    11.00000   -1.50000
H11C  2    0.689172   -0.055676    0.840248    11.00000   -1.50000
AFIX   0
C12   1    0.955802    0.244572    0.778407    11.00000    0.02679    0.02775 =
         0.05126   -0.00501    0.01241   -0.00016
AFIX 137
H12A  2    0.961681    0.184463    0.723226    11.00000   -1.50000
H12B  2    1.041514    0.185722    0.827176    11.00000   -1.50000
H12C  2    0.997240    0.366214    0.774951    11.00000   -1.50000
AFIX   0
C13   1    0.681921    0.354932    0.901729    11.00000    0.02694    0.03244 =
         0.01963    0.00068    0.00229   -0.00170
C14   1    0.475927    0.334959    0.917824    11.00000    0.04465    0.04234 =
         0.03898   -0.00451    0.02086   -0.00534
AFIX 137
H14A  2    0.464892    0.395344    0.972315    11.00000   -1.50000
H14B  2    0.446503    0.210639    0.922951    11.00000   -1.50000
H14C  2    0.384378    0.386093    0.868521    11.00000   -1.50000
AFIX   0
C15   1    0.723095    0.550670    0.893225    11.00000    0.04572    0.03368 =
         0.03235   -0.01525    0.01312   -0.01342
AFIX 137
H15A  2    0.716033    0.610003    0.948475    11.00000   -1.50000
H15B  2    0.626846    0.600961    0.845424    11.00000   -1.50000
H15C  2    0.852676    0.565937    0.880350    11.00000   -1.50000
AFIX   0
C16   1    0.825347    0.278530    0.979016    11.00000    0.06501    0.07380 =
         0.02576    0.00794   -0.00833    0.01428
AFIX 137
H16A  2    0.812241    0.339103    1.033182    11.00000   -1.50000
H16B  2    0.957309    0.293635    0.968995    11.00000   -1.50000
H16C  2    0.798680    0.153743    0.984546    11.00000   -1.50000
AFIX   0
HKLF 4

REM  beck28 in P2(1)
REM R1 =  0.0186 for    2567 Fo > 4sig(Fo)  and  0.0206 for all    2742 data
REM    177 parameters refined using      1 restraints

END

WGHT      0.0000      0.0000

REM Highest difference peak  0.248,  deepest hole -0.217,  1-sigma level  0.039
Q1    1  -0.0576  0.2708  0.1773  11.00000  0.05    0.25
Q2    1  -0.1633  0.2522  0.2806  11.00000  0.05    0.24
Q3    1   0.6745  0.2525  0.8582  11.00000  0.05    0.22
Q4    1   0.2253  0.2504  0.4979  11.00000  0.05    0.19
Q5    1   0.8379  0.2440  0.7784  11.00000  0.05    0.17
;
_shelx_res_checksum              45288
_shelx_hkl_file
;
   1   0   0   13.99    0.65
  -1   0   0   13.84    0.65
   1   0   0   12.36    0.65
  -2   0   0    0.81    0.14
  -2   0   0    0.75    0.13
   2   0   0    0.76    0.14
  -3   0   0   21.56    1.12
  -4   0   0    3.81    0.40
  -5   0   0   48.54    2.44
  -6   0   0    2.41    0.43
  -7   0   0   30.81    1.76
  -8   0   0    1.91    0.51
   0   1   0   -1.01    0.09
  -1  -1   0  147.40    6.67
  -1  -1   0  147.86    6.66
   1  -1   0  146.98    6.66
  -1   1   0  150.56    6.68
   1   1   0  141.79    6.67
  -1   1   0  145.33    6.66
   1   1   0  144.12    6.67
   2  -1   0  109.25    5.20
  -2  -1   0  106.61    5.21
  -2  -1   0  104.22    5.20
  -2   1   0  119.93    5.21
  -2   1   0  118.09    5.21
   2   1   0  119.17    5.22
   2   1   0  114.97    5.22
  -3  -1   0   99.91    4.64
  -3   1   0   99.05    4.64
  -4  -1   0   15.01    0.90
  -4   1   0   16.32    0.90
  -5  -1   0   19.23    1.10
  -5   1   0   17.70    1.07
  -6  -1   0   38.22    2.13
  -6   1   0   42.72    2.15
  -7  -1   0    6.27    0.68
  -7   1   0    6.05    0.67
  -8  -1   0    2.12    0.50
  -8   1   0    2.26    0.53
   0  -2   0 1000.00   54.18
  -1  -2   0   56.89    2.71
  -1  -2   0   56.80    2.72
  -1   2   0   61.58    2.70
   1   2   0   61.17    2.73
   1   2   0   60.13    3.29
   1   2   0   57.81    2.72
  -1   2   0   58.76    2.71
   2  -2   0   11.78    0.59
  -2  -2   0   11.47    0.61
  -2  -2   0   11.15    0.62
  -2   2   0   10.91    0.60
   2   2   0   10.87    0.62
   2   2   0   10.95    0.62
  -2   2   0   10.93    0.60
  -3  -2   0   46.38    2.29
  -3   2   0   47.05    2.27
  -3   2   0   48.47    2.27
  -4  -2   0   14.67    0.80
  -4   2   0   10.70    0.74
  -5  -2   0   42.84    2.18
  -5   2   0   42.37    2.17
  -6  -2   0    2.98    0.49
  -6   2   0    3.61    0.51
  -7  -2   0   18.84    1.26
  -7   2   0   20.08    1.27
  -8  -2   0    0.80    0.45
  -8   2   0    0.79    0.45
   0  -3   0   -0.07    0.15
   1  -3   0  132.42    7.24
  -1  -3   0  130.27    5.99
  -1   3   0  131.69    5.99
  -1   3   0  132.93    6.00
   1   3   0  130.90    6.03
   1   3   0  132.62    6.03
  -2  -3   0   60.25    2.77
   2  -3   0   61.39    2.73
  -2  -3   0   60.66    2.78
  -2   3   0   57.97    2.76
  -2   3   0   58.94    2.76
   2   3   0   56.27    2.79
   3  -3   0   20.63    1.10
  -3  -3   0   19.55    1.14
  -3   3   0   25.89    1.15
  -4  -3   0    7.51    0.56
  -4   3   0    7.78    0.56
  -5  -3   0   11.89    0.83
  -5   3   0   13.26    0.84
  -6  -3   0   38.20    2.01
  -6   3   0   36.16    1.99
  -7  -3   0    3.52    0.58
  -7   3   0    4.98    0.62
   0  -4   0  149.19    8.52
   0   4   0  159.80    7.04
   1  -4   0   36.54    2.09
  -1   4   0   33.42    1.62
   1   4   0   34.59    1.66
  -1   4   0   34.90    1.61
  -2  -4   0    7.84    0.49
   2  -4   0    9.23    0.71
  -2  -4   0    8.16    0.48
   2   4   0    8.55    0.54
  -2   4   0    8.56    0.48
  -2   4   0    8.49    0.48
  -3  -4   0    8.57    0.62
  -3   4   0   11.40    0.64
  -3   4   0   10.91    0.62
  -4  -4   0   26.21    1.40
  -4   4   0   26.61    1.39
  -5  -4   0   18.00    1.09
  -5   4   0   18.04    1.08
  -6  -4   0    0.02    0.33
  -6   4   0    0.09    0.30
  -7  -4   0   11.44    0.93
  -7   4   0   10.75    0.93
   0  -5   0   -0.12    0.23
   0   5   0    0.10    0.10
   1  -5   0   48.92    2.75
  -1   5   0   45.73    2.13
   1   5   0   45.44    2.17
  -1   5   0   44.35    2.14
   2  -5   0   42.24    2.73
  -2   5   0   47.28    2.18
   2   5   0   47.33    2.24
  -2   5   0   47.71    2.18
   3  -5   0   16.64    1.10
  -3  -5   0   15.41    0.82
  -3   5   0   13.60    0.81
  -3   5   0   13.29    0.81
  -4  -5   0    0.90    0.27
  -4   5   0    0.57    0.24
  -5  -5   0    6.59    0.63
  -5   5   0    7.93    0.64
  -6  -5   0   16.99    1.14
  -6   5   0   17.42    1.13
  -7  -5   0    1.50    0.48
  -7   5   0    1.44    0.47
   0  -6   0   90.92    5.12
   0   6   0   87.45    4.11
   1  -6   0   42.67    2.73
  -1   6   0   43.92    2.09
   1   6   0   45.92    2.13
  -1   6   0   45.68    2.08
   2  -6   0    8.29    0.79
  -2   6   0    9.01    0.52
   3  -6   0    0.22    0.36
  -3   6   0    0.84    0.22
   4  -6   0   10.67    0.97
  -4   6   0   11.56    0.74
   5  -6   0   16.06    1.21
  -5   6   0   13.73    0.94
  -6   6   0   -0.12    0.32
   0   7   0    0.13    0.15
   1  -7   0   30.33    2.01
  -1   7   0   29.37    1.43
   2  -7   0   18.16    1.44
  -2   7   0   20.75    1.00
   3  -7   0   12.76    1.09
  -3   7   0   11.71    0.72
   4  -7   0    1.52    0.52
  -4   7   0    1.37    0.32
   5  -7   0    1.40    0.54
  -5   7   0    2.45    0.42
   2  -8   0    5.65    0.78
   3  -8   0    3.55    0.73
   4  -8   0   10.02    1.07
  -8   0   1    3.44    0.62
  -7   0   1   16.36    1.12
  -6   0   1   15.42    0.99
  -5   0   1   10.66    0.73
   4   0  -1    0.58    0.24
  -4   0   1    0.72    0.21
  -3   0   1   41.87    2.02
   3   0  -1   41.30    2.01
   2   0  -1  551.61   24.48
  -2   0   1  534.13   24.51
  -2   0   1  523.43   24.41
   2   0  -1  535.88   24.39
  -1   0   1    0.64    0.11
   1   0  -1    0.84    0.10
   1   0  -1    0.55    0.09
  -1   0   1    0.68    0.10
   1   0   1    7.70    0.41
  -1   0  -1    7.86    0.41
   2   0   1  174.65    8.06
  -2   0  -1  177.75    8.07
  -3   0  -1   63.52    3.02
  -4   0  -1   30.96    1.60
  -5   0  -1   53.64    2.68
  -6   0  -1   15.68    1.05
  -7   0  -1   15.15    1.08
  -8   0  -1    3.06    0.59
  -8  -1   1   22.80    1.52
  -8   1   1   26.52    1.58
  -7  -1   1    5.68    0.66
  -7   1   1    6.21    0.66
  -6  -1   1    1.13    0.33
  -6   1   1    1.25    0.36
  -5  -1   1    6.82    0.56
  -5   1   1    5.59    0.51
  -4  -1   1   78.55    3.94
   4   1  -1   84.80    3.96
  -4   1   1   86.47    3.96
  -3  -1   1  184.32    8.37
   3  -1  -1  178.46    8.35
  -3   1   1  185.26    8.36
   3   1  -1  179.36    8.36
   2  -1  -1    4.43    0.31
  -2  -1   1    4.07    0.31
  -2  -1   1    4.16    0.31
   2  -1  -1    4.52    0.31
  -2   1   1    4.50    0.31
  -2   1   1    4.78    0.32
   2   1  -1    4.53    0.32
   2   1  -1    4.74    0.33
   1  -1  -1  758.59   34.01
  -1  -1   1  755.12   34.00
  -1  -1   1  753.65   33.98
   1  -1  -1  716.19   33.99
   1   1  -1  753.08   34.00
  -1   1   1  737.85   34.00
   1   1  -1  762.59   34.01
   0   1   1    8.12    0.42
   0   1   1    8.38    0.41
   1  -1   1   48.72    2.17
  -1  -1  -1   48.91    2.19
   1   1   1   45.53    2.59
   1   1   1   45.89    2.19
  -1   1  -1   45.85    2.17
  -2  -1  -1   19.43    0.96
  -2  -1  -1   19.02    0.95
   2  -1   1   18.58    0.93
  -2   1  -1   18.34    0.94
   2   1   1   18.27    0.95
  -3   1  -1   33.52    1.66
  -4  -1  -1  100.90    4.95
  -4   1  -1  109.44    4.96
  -5  -1  -1    2.09    0.36
  -5   1  -1    0.21    0.25
  -6  -1  -1    1.43    0.38
  -6   1  -1    1.36    0.38
  -7  -1  -1    1.59    0.44
  -7   1  -1    0.60    0.39
  -8  -1  -1   15.09    1.15
  -8   1  -1   14.65    1.14
  -8  -2   1    1.61    0.50
  -8   2   1    2.57    0.54
  -7  -2   1   20.70    1.27
  -7   2   1   17.90    1.24
  -6  -2   1   12.96    0.93
  -6   2   1   13.99    0.93
  -5  -2   1   22.15    1.24
  -5   2   1   20.97    1.22
  -4  -2   1    5.06    0.45
   4   2  -1    5.20    0.45
  -4   2   1    5.74    0.48
  -3  -2   1   69.34    3.29
   3   2  -1   69.91    3.30
  -3   2   1   69.45    3.28
  -2  -2   1  111.21    5.19
  -2  -2   1  106.59    5.19
   2  -2  -1  114.15    5.18
  -2   2   1  117.04    5.19
   2   2  -1  110.15    5.20
  -2   2   1  115.04    5.19
   2   2  -1  115.38    5.20
   1  -2  -1   63.73    3.33
  -1  -2   1   64.99    3.34
   1  -2  -1   63.57    3.34
   1   2  -1   79.14    3.36
  -1   2   1   83.09    3.35
   1   2  -1   83.91    3.36
   0  -2  -1   39.87    1.82
   0  -2  -1   41.01    1.82
   0   2  -1   37.62    2.23
   0   2   1   39.31    1.84
  -1  -2  -1   86.09    3.72
  -1  -2  -1   82.02    4.47
  -1  -2  -1   84.69    3.74
   1  -2   1   83.48    4.45
  -1   2  -1   77.11    3.70
   1   2   1   76.59    4.46
   1   2   1   76.49    3.73
  -2  -2  -1   94.62    4.59
   2  -2   1   96.28    4.57
  -2  -2  -1   96.62    4.61
   2   2   1   97.99    5.47
  -2   2  -1  107.70    4.59
   2   2   1  103.28    4.61
  -3  -2  -1   85.18    3.86
  -3   2  -1   78.28    3.83
  -4  -2  -1   22.68    1.25
  -4   2  -1   22.74    1.23
  -5  -2  -1   38.85    2.05
  -5   2  -1   39.89    2.04
  -6  -2  -1    9.29    0.76
  -6   2  -1    9.24    0.75
  -7  -2  -1   15.81    1.14
  -7   2  -1   16.84    1.14
  -8  -2  -1    1.10    0.47
  -8   2  -1    0.87    0.47
  -7  -3   1    3.70    0.58
  -7   3   1    4.62    0.61
  -6  -3   1    0.67    0.34
  -6   3   1    0.54    0.32
  -5   3   1    4.76    0.49
  -4  -3   1   42.01    2.10
   4   3  -1   40.78    2.13
  -4   3   1   43.73    2.10
  -3  -3   1   74.10    3.45
   3   3  -1   71.65    3.46
  -3   3   1   75.05    3.44
  -3   3   1   71.58    3.44
   2  -3  -1   21.14    0.99
  -2  -3   1   20.55    1.00
  -2  -3   1   20.38    1.01
   2   3  -1   19.37    1.02
  -2   3   1   19.42    1.00
   2   3  -1   19.94    1.02
  -2   3   1   19.92    1.00
  -1   3   1  251.95   11.91
   1   3  -1  264.49   11.91
  -1   3   1  270.91   11.91
   1   3  -1  260.92   11.91
   0  -3   1   79.99    4.22
   0  -3  -1   80.15    4.23
   0   3   1   66.75    3.47
  -1  -3  -1   14.61    0.75
   1  -3   1   15.06    0.96
  -1  -3  -1   15.24    0.74
  -1  -3  -1   14.70    0.97
   2  -3   1    0.93    0.23
  -2  -3  -1    0.86    0.18
  -2   3  -1    0.95    0.15
   2   3   1    1.09    0.19
   3  -3   1   74.34    3.24
  -3  -3  -1   70.33    3.30
  -3   3  -1   65.36    3.26
  -3   3  -1   67.14    3.26
  -4  -3  -1   79.06    3.74
  -4   3  -1   76.68    3.70
  -5  -3  -1    1.24    0.33
  -5   3  -1    0.96    0.29
  -6  -3  -1    2.74    0.48
  -6   3  -1    3.07    0.50
  -7  -3  -1    2.09    0.49
  -7   3  -1    0.99    0.43
  -7  -4   1   10.25    0.87
  -7   4   1   10.72    0.88
  -6  -4   1    8.56    0.74
  -6   4   1   10.28    0.77
  -5  -4   1   17.32    1.03
  -5   4   1   15.65    1.01
  -4  -4   1    4.21    0.44
  -4   4   1    4.60    0.42
  -3  -4   1   47.13    2.25
   3  -4  -1   46.29    2.19
   3   4  -1   46.07    2.28
  -3   4   1   46.73    2.24
  -3   4   1   46.74    2.24
  -2  -4   1   83.82    3.88
  -2  -4   1   84.02    3.87
   2   4  -1   83.70    3.92
   2   4  -1   84.61    3.92
  -2   4   1   83.65    3.90
  -2   4   1   84.73    3.89
   1  -4  -1    8.39    0.77
   1   4  -1   11.05    0.56
  -1   4   1   10.70    0.57
   1   4  -1   10.74    0.56
  -1   4   1   11.40    0.55
   0  -4   1   11.29    0.85
   0  -4  -1   11.52    0.86
   0   4   1   12.67    0.63
  -1  -4  -1   23.04    1.42
   1  -4   1   21.95    1.38
   1   4   1   21.02    1.09
  -2  -4  -1   60.34    2.96
  -2  -4  -1   59.91    2.93
   2  -4   1   62.41    3.58
  -2   4  -1   66.44    2.93
  -2   4  -1   65.57    2.93
   2   4   1   62.55    2.98
  -3  -4  -1   41.57    2.04
   3  -4   1   42.23    2.43
  -3   4  -1   41.78    2.00
  -3   4  -1   39.55    2.00
  -4  -4  -1   14.07    0.87
   4  -4   1   13.97    0.77
  -4   4  -1   14.38    0.85
  -5  -4  -1   23.03    1.33
  -5   4  -1   23.05    1.30
  -6  -4  -1   12.09    0.88
  -6   4  -1   10.72    0.84
  -7  -4  -1    4.79    0.65
  -7   4  -1    4.68    0.64
  -7  -5   1    0.90    0.44
  -7   5   1    2.38    0.50
  -6  -5   1    0.04    0.30
  -6   5   1    0.48    0.35
  -5  -5   1    3.82    0.49
  -5   5   1    4.01    0.49
  -4  -5   1   18.78    1.06
  -4   5   1   19.70    1.08
  -3  -5   1   48.80    2.18
  -3   5   1   45.10    2.20
  -3   5   1   42.42    2.19
   2  -5  -1    8.16    0.75
  -2   5   1    8.01    0.48
   2   5  -1    7.71    0.52
  -2   5   1    8.07    0.48
   2   5  -1    7.59    0.52
   1  -5  -1   21.55    1.43
   1   5  -1   21.16    1.05
  -1   5   1   22.23    1.04
  -1   5   1   21.17    1.06
   1   5  -1   20.48    1.05
   0  -5  -1   62.92    3.79
   0   5   1   67.90    3.06
   1  -5   1   10.99    0.87
  -1  -5  -1   11.08    0.87
   1   5   1   10.43    0.62
   2  -5   1    0.68    0.31
  -2  -5  -1    0.73    0.13
  -2  -5  -1    0.62    0.14
  -2   5  -1    1.07    0.16
  -2   5  -1    1.04    0.16
  -3  -5  -1   57.53    2.75
   3  -5   1   60.11    3.35
  -3   5  -1   55.19    2.72
  -3   5  -1   56.58    2.72
   4  -5   1   33.60    2.07
  -4  -5  -1   33.16    1.74
  -4   5  -1   33.74    1.71
  -5  -5  -1    2.56    0.42
   5  -5   1    2.56    0.52
  -5   5  -1    2.78    0.44
  -6  -5  -1    1.81    0.46
  -6   5  -1    2.23    0.46
   6  -6  -1    3.79    0.68
  -6   6   1    4.19    0.58
   5  -6  -1    8.52    0.89
  -5   6   1    8.90    0.70
   4  -6  -1    0.96    0.43
  -4   6   1    1.04    0.29
   3  -6  -1   45.20    2.81
  -3   6   1   46.16    2.22
   2  -6  -1   53.58    3.04
  -2   6   1   46.84    2.36
  -1   6   1    4.51    0.33
   1   6  -1    3.79    0.33
  -1   6   1    4.15    0.34
   0  -6  -1    1.86    0.46
   0   6   1    2.62    0.28
   0   6   1    3.15    0.32
   1   6   1   12.04    0.70
   2  -6   1   28.25    1.82
  -2   6  -1   27.19    1.34
   3  -6   1   17.96    1.24
  -3   6  -1   15.62    0.90
   4  -6   1    5.63    0.73
  -4   6  -1    7.12    0.55
   5  -6   1   20.59    1.45
  -5   6  -1   20.03    1.20
  -6   6  -1    4.02    0.58
   5  -7  -1    2.03    0.58
  -5   7   1    2.39    0.43
   4  -7  -1   12.24    1.07
  -4   7   1    9.88    0.73
   3  -7  -1   55.78    3.27
  -3   7   1   50.38    2.54
   2  -7  -1    2.89    0.63
  -2   7   1    3.62    0.34
   1  -7  -1   26.61    1.77
  -1   7   1   23.52    1.24
   0   7   1   21.72    1.12
   2  -7   1    2.50    0.54
  -2   7  -1    2.52    0.28
   3  -7   1   16.57    1.31
  -3   7  -1   16.79    0.92
   4  -7   1   35.80    2.25
  -4   7  -1   32.71    1.75
   5  -7   1    1.92    0.58
  -5   7  -1    3.35    0.52
   4  -8  -1    1.47    0.58
   3  -8  -1   11.22    1.12
   2  -8  -1   20.98    1.63
   1  -8  -1    2.09    0.58
   1   8   1    1.66    0.32
   4  -8   1    0.54    0.50
  -8   0   2    1.86    0.49
  -7   0   2    8.69    0.77
  -6   0   2    0.16    0.28
  -5   0   2   36.78    1.91
   5   0  -2   37.05    1.91
   4   0  -2  210.79    9.80
  -4   0   2  214.50    9.80
   3   0  -2   13.22    0.77
  -3   0   2   14.40    0.77
   2   0  -2   28.41    1.33
  -2   0   2   26.32    1.32
  -2   0   2   26.10    1.32
  -1   0   2    2.35    0.19
  -1   0   2    2.49    0.20
   1   0  -2    2.26    0.20
   0   0  -2   94.69    4.37
   0   0   2   95.79    4.37
  -1   0  -2  157.54    7.04
   1   0   2  152.63    7.03
  -1   0  -2  151.90    8.30
  -2   0  -2   10.39    0.60
   2   0   2   11.10    0.61
  -3   0  -2   34.62    1.73
  -4   0  -2   14.20    0.86
  -5   0  -2   18.84    1.13
  -6   0  -2    2.94    0.46
  -7   0  -2   17.92    1.21
  -8   0  -2    6.35    0.78
  -8  -1   2   -0.02    0.37
  -8   1   2    0.07    0.38
  -7  -1   2    2.24    0.46
  -7   1   2    1.70    0.41
  -6  -1   2   29.43    1.69
  -6   1   2   32.45    1.71
  -5  -1   2    5.15    0.51
   5   1  -2    5.35    0.50
  -5   1   2    5.48    0.51
  -4  -1   2   31.55    1.61
   4  -1  -2   31.55    1.60
   4   1  -2   31.09    1.60
  -4   1   2   30.92    1.60
   3  -1  -2   96.62    4.55
  -3  -1   2   96.30    4.56
   3   1  -2   99.18    4.57
  -3   1   2   99.54    4.57
   2  -1  -2   36.71    1.75
  -2  -1   2   35.32    1.75
  -2  -1   2   35.10    1.75
   2  -1  -2   36.14    1.75
   2   1  -2   37.10    1.76
  -2   1   2   38.10    1.76
  -2   1   2   36.68    1.76
   2   1  -2   37.46    1.76
   1  -1  -2  309.90   14.56
  -1  -1   2  318.48   14.53
   1  -1  -2  325.07   14.56
  -1  -1   2  302.26   14.54
  -1   1   2  338.32   14.61
   1   1  -2  311.61   14.55
   1   1  -2  322.33   14.53
  -1   1   2  326.37   14.60
   0  -1  -2   21.71    1.01
   0  -1  -2   21.28    1.01
   0  -1   2   21.08    0.98
   0  -1   2   21.86    0.98
   0   1   2   20.15    1.01
   0   1   2   20.64    1.02
   0   1  -2   19.62    0.98
   0   1  -2   19.74    0.99
  -1  -1  -2  133.92    7.22
   1  -1   2  138.33    6.07
   1  -1   2  137.85    6.07
  -1  -1  -2  134.51    6.09
   1   1   2  126.65    6.09
  -1   1  -2  125.53    6.07
  -2  -1  -2   74.68    3.65
   2  -1   2   78.83    3.63
  -2   1  -2   78.91    3.64
   2   1   2   78.42    3.66
   2   1   2   80.59    4.29
  -3   1  -2    0.88    0.20
   3   1   2    0.94    0.18
  -4  -1  -2    2.76    0.38
  -4   1  -2    3.88    0.40
  -5  -1  -2    9.93    0.68
  -5   1  -2    6.85    0.64
  -6  -1  -2   65.32    3.39
  -6   1  -2   70.15    3.40
  -7  -1  -2    0.78    0.40
  -7   1  -2    0.45    0.37
  -8  -1  -2    4.26    0.69
  -8   1  -2    5.28    0.72
  -8  -2   2    2.98    0.54
  -8   2   2    3.71    0.64
  -7  -2   2    7.34    0.72
  -7   2   2    6.83    0.71
  -6  -2   2    0.68    0.31
  -6   2   2    1.06    0.34
  -5  -2   2   41.37    2.11
   5   2  -2   40.09    2.11
  -5   2   2   42.38    2.11
   4  -2  -2   65.55    3.21
  -4  -2   2   62.05    3.22
   4   2  -2   72.77    3.26
  -4   2   2   69.24    3.24
  -3  -2   2    0.21    0.16
   3  -2  -2    0.45    0.16
   3   2  -2    1.01    0.21
  -3   2   2    1.25    0.21
   2  -2  -2    5.57    0.38
   2  -2  -2    5.01    0.35
  -2  -2   2    5.19    0.36
  -2  -2   2    5.33    0.36
  -2   2   2    6.14    0.39
   2   2  -2    5.53    0.37
   2   2  -2    5.87    0.39
  -2   2   2    5.92    0.38
   1  -2  -2  388.10   17.64
   1  -2  -2  411.44   17.65
  -1  -2   2  401.81   17.62
  -1  -2   2  404.19   17.63
   1   2  -2  371.38   17.61
  -1   2   2  393.78   17.66
  -1   2   2  361.77   17.68
   1   2  -2  369.31   17.62
   0  -2  -2  124.08    5.19
   0   2   2  107.88    5.19
   0   2   2  112.72    5.20
   0   2  -2  111.00    6.20
   0   2  -2  112.77    5.14
   0   2  -2  110.88    5.14
   1  -2   2   77.13    4.20
  -1  -2  -2   78.61    3.55
  -1  -2  -2   78.51    4.23
   1   2   2   74.58    3.55
  -1   2  -2   75.18    3.50
  -1   2  -2   73.94    3.51
   2  -2   2   21.70    0.96
  -2  -2  -2   20.26    1.01
   2  -2   2   20.13    1.13
   2  -2   2   19.87    0.96
   2   2   2   17.71    1.16
   2   2   2   17.09    1.00
  -2   2  -2   18.11    0.97
  -3   2  -2   21.25    1.12
   3   2   2   21.83    1.31
  -4  -2  -2   12.77    0.75
  -4   2  -2    9.45    0.69
  -5  -2  -2   24.97    1.41
  -5   2  -2   25.09    1.40
  -6  -2  -2    2.45    0.46
  -6   2  -2    2.07    0.43
  -7  -2  -2   22.47    1.45
  -7   2  -2   24.15    1.47
  -8  -3   2   -0.21    0.39
  -8   3   2   -0.02    0.41
  -7  -3   2    0.47    0.36
  -7   3   2    1.54    0.42
  -6  -3   2   25.65    1.43
  -6   3   2   23.61    1.42
  -5  -3   2    9.19    0.67
  -5   3   2    9.23    0.67
   5   3  -2    8.02    0.69
  -4  -3   2   88.36    4.03
  -4   3   2   85.82    4.03
   4   3  -2   80.21    4.04
  -3  -3   2   56.07    2.87
   3   3  -2   62.38    2.91
  -3   3   2   63.97    2.90
   2  -3  -2   15.03    0.77
  -2  -3   2   14.72    0.79
  -2  -3   2   14.47    0.79
   2  -3  -2   15.03    0.80
  -2   3   2   15.81    0.81
   2   3  -2   16.22    0.83
  -2   3   2   16.41    0.82
   2   3  -2   17.12    0.83
   1   3  -2  107.30    4.84
  -1   3   2  102.26    4.87
  -1   3   2  109.27    4.86
   1   3  -2  104.36    4.85
   0  -3  -2    9.25    0.48
   0   3   2    9.65    0.52
   0   3   2    9.64    0.54
  -1  -3  -2  101.48    4.83
  -1  -3  -2  101.50    5.79
   1  -3   2  102.87    5.77
  -1  -3  -2  104.77    4.81
   1   3   2  107.25    4.85
  -1   3  -2  107.79    4.78
  -1   3  -2  106.82    4.77
  -2  -3  -2  169.70    7.57
   2  -3   2  168.71    8.97
  -2   3  -2  154.71    7.51
   3  -3   2    0.56    0.16
  -3  -3  -2    0.62    0.21
   3  -3   2    0.64    0.21
  -3   3  -2    0.17    0.16
  -4  -3  -2    0.11    0.23
  -4   3  -2    0.70    0.23
  -5  -3  -2   10.66    0.79
  -5   3  -2   10.41    0.77
  -6  -3  -2   42.90    2.29
  -6   3  -2   42.37    2.25
  -7  -3  -2    4.59    0.66
  -7   3  -2    4.13    0.63
  -7  -4   2    4.36    0.59
  -7   4   2    3.79    0.59
  -6  -4   2    0.01    0.31
  -6   4   2    0.06    0.32
  -5  -4   2   28.72    1.54
  -5   4   2   28.26    1.55
  -4  -4   2   33.56    1.66
  -4   4   2   31.18    1.67
   4   4  -2   32.87    1.71
   3  -4  -2    0.53    0.16
  -3  -4   2    0.49    0.18
  -3   4   2    0.00    0.16
  -3   4   2    0.21    0.16
   3   4  -2    0.14    0.20
  -2  -4   2   22.72    1.18
  -2  -4   2   22.31    1.18
  -2   4   2   25.86    1.25
   2   4  -2   26.11    1.25
  -2   4   2   27.37    1.24
   2   4  -2   25.50    1.25
   1   4  -2  147.40    6.69
  -1   4   2  148.36    6.71
   1   4  -2  146.68    6.69
  -1   4   2  143.44    6.73
   0  -4  -2  155.69    8.65
   0   4   2  158.02    7.20
   0   4   2  156.39    7.18
  -1  -4  -2   29.19    1.40
  -1  -4  -2   29.14    1.82
   1  -4   2   29.86    1.79
  -1  -4  -2   28.53    1.41
   1   4   2   31.12    1.47
  -2  -4  -2   34.40    1.69
   2  -4   2   35.32    2.04
  -2   4  -2   33.20    1.63
   3  -4   2   10.46    0.79
  -3  -4  -2   10.05    0.68
  -3   4  -2   11.22    0.66
  -3   4  -2   11.18    0.65
   4  -4   2   22.32    1.40
  -4  -4  -2   21.78    1.24
   4  -4   2   21.61    1.12
  -4   4  -2   22.38    1.21
   5  -4   2   11.27    0.82
   5  -4   2   11.02    0.70
  -5  -4  -2   10.37    0.79
  -5   4  -2    9.58    0.74
  -6  -4  -2    3.83    0.57
  -6   4  -2    3.64    0.56
  -7  -4  -2   11.11    0.94
  -7   4  -2   10.67    0.94
  -7   5   2    2.75    0.52
  -6  -5   2   17.09    1.09
  -6   5   2   16.45    1.10
  -5  -5   2    4.94    0.50
  -5   5   2    3.86    0.50
  -4  -5   2   51.28    2.42
  -4   5   2   48.16    2.44
   4   5  -2   48.94    2.48
  -3  -5   2   16.23    0.89
   3   5  -2   17.19    0.98
  -3   5   2   17.05    0.94
  -3   5   2   18.92    0.97
   2   5  -2   22.69    1.17
  -2   5   2   22.63    1.17
  -2   5   2   23.50    1.17
   2   5  -2   23.26    1.18
   1  -5  -2   35.85    2.22
  -1   5   2   35.46    1.75
   1   5  -2   35.83    1.70
  -1   5   2   35.41    1.73
   1   5  -2   37.03    1.70
   0  -5  -2    1.00    0.34
   0   5   2    1.96    0.25
   0   5   2    2.05    0.27
  -1  -5  -2   74.43    4.22
   1   5   2   71.68    3.44
  -2  -5  -2   49.55    2.45
   2  -5   2   51.01    3.03
  -2   5  -2   54.41    2.42
   3  -5   2    1.85    0.39
  -3  -5  -2    1.52    0.28
  -4  -5  -2    2.73    0.41
   4  -5   2    2.17    0.46
  -4   5  -2    2.09    0.38
  -5  -5  -2   13.98    0.96
   5  -5   2   13.05    1.01
  -5   5  -2   14.54    0.91
  -6  -5  -2   28.17    1.60
  -6   5  -2   25.80    1.55
  -6   6   2    0.75    0.38
  -5   6   2   24.07    1.36
  -4   6   2   34.53    1.78
   3  -6  -2    3.91    0.66
  -3   6   2    5.22    0.44
   2  -6  -2    2.42    0.53
   2   6  -2    2.60    0.34
  -2   6   2    3.09    0.33
   1  -6  -2   40.77    2.80
   1   6  -2   46.25    2.17
  -1   6   2   45.92    2.22
  -1   6   2   50.86    2.23
   1   6  -2   46.18    2.17
   0  -6  -2   51.86    3.23
   0   6   2   54.12    2.57
   0   6   2   55.48    2.59
   1   6   2   14.84    0.85
   2  -6   2   14.73    1.11
  -2   6  -2   14.30    0.75
   3  -6   2   25.07    1.63
  -3   6  -2   23.42    1.23
   4  -6   2    7.77    0.87
  -4   6  -2   12.37    0.72
   5  -6   2    9.13    0.84
  -5   6  -2    7.91    0.69
  -6   6  -2    1.65    0.43
   5  -7  -2    6.88    0.89
  -5   7   2    6.56    0.64
   4  -7  -2   17.54    1.45
  -4   7   2   19.20    1.09
   3  -7  -2    8.99    0.99
  -3   7   2   10.69    0.67
   2  -7  -2    7.12    0.87
  -2   7   2    8.41    0.54
   1  -7  -2   21.44    1.55
  -1   7   2   21.00    1.12
   0  -7  -2    0.61    0.41
   0   7   2    0.67    0.23
   1   7   2   32.61    1.65
  -3   7  -2    0.47    0.22
   4  -7   2    0.33    0.44
  -4   7  -2    0.27    0.27
  -5   7  -2    4.94    0.56
   4  -8  -2   23.70    1.80
   3  -8  -2    2.59    0.67
   2  -8  -2    1.29    0.56
   1  -8  -2    3.51    0.73
   1   8   2    4.49    0.50
  -8   0   3    0.47    0.40
  -7   0   3   24.62    1.48
   6   0  -3   19.16    1.17
  -6   0   3   18.80    1.16
  -5   0   3    2.95    0.41
   5   0  -3    3.04    0.40
  -4   0   3    1.68    0.29
   4   0  -3    1.87    0.29
   3   0  -3    1.13    0.22
  -3   0   3    1.28    0.25
  -2   0   3  197.89    8.91
   2   0  -3  194.59    8.91
  -2   0   3  194.20    8.91
   2   0  -3  191.99    8.91
   1   0  -3   30.37    1.45
  -1   0   3   29.43    1.45
   1   0  -3   31.47    1.46
   0   0   3   98.89    4.57
   0   0  -3   97.95    4.57
   0   0  -3   98.40    4.57
   0   0   3  101.46    4.57
   1   0   3   68.69    3.15
  -1   0  -3   66.25    3.15
   1   0   3   68.14    3.15
  -2   0  -3   79.39    3.71
   3   0   3   25.66    1.40
  -3   0  -3   25.16    1.32
  -4   0  -3    7.22    0.57
   4   0   3    7.27    0.46
   5   0   3   95.22    5.26
  -5   0  -3   97.86    4.64
  -6   0  -3    8.86    0.76
  -7   0  -3    0.52    0.39
  -8  -1   3   15.36    1.13
  -8   1   3   15.35    1.14
  -7  -1   3    1.29    0.41
  -7   1   3    2.21    0.44
  -6  -1   3    5.84    0.57
   6   1  -3    5.64    0.61
  -6   1   3    5.63    0.56
   5  -1  -3   16.83    1.01
  -5  -1   3   15.76    1.00
   5   1  -3   18.58    1.05
  -5   1   3   16.90    1.01
   4  -1  -3   29.39    1.37
  -4  -1   3   28.28    1.37
  -4   1   3   22.91    1.34
   4   1  -3   22.64    1.34
  -3  -1   3   68.10    3.24
   3  -1  -3   69.32    3.23
   3   1  -3   70.38    3.25
  -3   1   3   65.91    3.23
   2  -1  -3   21.24    1.00
  -2  -1   3   21.70    1.00
   2  -1  -3   23.06    1.01
  -2  -1   3   21.26    1.00
  -2   1   3   18.35    0.99
   2   1  -3   16.01    0.98
  -2   1   3   17.44    0.99
   2   1  -3   17.59    0.99
   1  -1  -3   69.95    2.94
  -1  -1   3   70.36    2.93
  -1  -1   3   71.51    2.93
  -1   1   3   55.59    2.94
  -1   1   3   56.84    2.93
   1   1  -3   54.50    2.92
   0  -1   3   89.85    4.67
   0  -1   3   94.30    4.67
   0  -1  -3   93.87    4.70
   0  -1  -3   95.67    4.70
   0   1  -3  107.99    4.69
   0   1   3  112.73    4.72
   0   1  -3  109.57    4.69
   0   1   3  113.56    4.72
  -1   1  -3    4.27    0.30
  -1   1  -3    4.45    0.29
   1   1   3    4.36    0.32
  -2  -1  -3    8.50    0.55
   2  -1   3    9.24    0.52
  -3  -1  -3  100.49    4.59
   3   1   3   93.55    5.32
  -3   1  -3   98.70    4.57
  -4  -1  -3  118.39    5.48
   4   1   3  114.59    6.34
  -4   1  -3  115.34    5.46
  -5  -1  -3    6.05    0.59
  -5   1  -3    6.36    0.59
   5   1   3    6.23    0.49
  -6  -1  -3    9.22    0.80
  -6   1  -3   10.82    0.83
  -7  -1  -3    4.23    0.62
  -7   1  -3    3.61    0.60
  -8  -2   3    0.18    0.39
  -8   2   3    0.04    0.40
  -7  -2   3   24.68    1.49
  -7   2   3   25.71    1.51
  -6  -2   3    8.22    0.66
  -6   2   3    6.36    0.64
   6   2  -3    6.60    0.66
   5  -2  -3    9.40    0.70
  -5  -2   3    9.74    0.73
  -5   2   3   12.93    0.77
   4  -2  -3    7.55    0.57
  -4  -2   3    7.14    0.58
   4   2  -3   10.38    0.64
  -4   2   3   10.67    0.64
  -3  -2   3   66.95    2.97
   3  -2  -3   65.72    2.96
  -3   2   3   59.40    2.97
   3   2  -3   57.89    2.97
   2  -2  -3  161.94    7.13
   2  -2  -3  148.75    7.10
  -2  -2   3  147.42    7.10
  -2  -2   3  149.66    7.10
   2   2  -3  159.02    7.12
  -2   2   3  165.47    7.13
   2   2  -3  153.00    7.11
  -2   2   3  155.01    7.12
  -1  -2   3  128.35    5.49
   1  -2  -3  124.87    5.53
   1  -2  -3  124.97    5.52
  -1  -2   3  126.89    5.50
   1   2  -3  113.29    5.50
   1   2  -3  113.96    5.51
  -1   2   3  112.76    5.54
  -1   2   3  116.62    5.52
   0  -2  -3   26.41    1.16
   0   2  -3   22.44    1.11
   0   2  -3   23.08    1.12
   0   2   3   23.52    1.17
   0   2   3   22.49    1.16
   1  -2   3   54.88    2.70
  -1  -2  -3   56.10    3.27
  -1  -2  -3   57.27    2.76
   1  -2   3   58.24    2.69
   1   2   3   62.82    2.77
  -1   2  -3   59.49    3.23
  -1   2  -3   59.94    2.71
  -1   2  -3   58.88    2.72
  -2  -2  -3   41.40    2.03
   2  -2   3   43.51    1.98
  -2  -2  -3   41.50    2.37
   2  -2   3   43.86    1.97
  -2   2  -3   37.92    1.98
   3  -2   3   39.34    2.20
  -3  -2  -3   40.63    1.99
  -3   2  -3   39.22    1.95
   4  -2   3   20.13    1.18
  -4  -2  -3   21.56    1.19
  -4   2  -3   20.29    1.14
  -5  -2  -3   94.83    4.67
   5  -2   3   97.54    5.27
  -5   2  -3   97.73    4.65
  -6  -2  -3   12.92    0.90
  -6   2  -3   10.61    0.87
  -7  -2  -3    1.29    0.47
  -7   2  -3    1.53    0.46
  -8  -3   3   14.60    1.09
  -8   3   3   13.64    1.09
  -7  -3   3    3.15    0.53
  -7   3   3    2.47    0.50
  -6  -3   3   14.59    0.92
  -6   3   3   11.90    0.90
   6   3  -3   12.40    0.94
  -5  -3   3    9.46    0.72
  -5   3   3   11.34    0.76
   5   3  -3   11.22    0.79
  -4  -3   3   54.51    2.53
   4  -3  -3   56.63    2.51
  -4   3   3   47.71    2.52
   4   3  -3   47.58    2.53
   3  -3  -3   45.62    2.12
  -3  -3   3   44.54    2.14
   3   3  -3   44.42    2.16
  -3   3   3   42.20    2.15
  -2  -3   3   54.53    2.50
   2  -3  -3   55.15    2.53
  -2  -3   3   55.49    2.50
   2  -3  -3   56.80    2.50
  -2   3   3   51.96    2.53
   2   3  -3   52.39    2.52
  -2   3   3   51.09    2.53
   2   3  -3   49.38    2.52
   1  -3  -3  115.91    5.14
   1  -3  -3  119.53    5.14
   1   3  -3  108.07    5.13
  -1   3   3  112.51    5.17
   1   3  -3  109.44    5.14
  -1   3   3  107.20    5.18
   0  -3  -3   60.65    2.95
   0   3  -3   65.15    2.92
   0   3   3   64.88    2.98
   0   3  -3   62.34    2.91
   0   3   3   65.13    3.00
   1   3   3    2.66    0.29
  -1   3  -3    2.65    0.22
  -1   3  -3    2.48    0.20
  -1   3  -3    2.78    0.32
  -2  -3  -3    1.27    0.23
   2  -3   3    1.09    0.15
  -2  -3  -3    0.97    0.26
   2  -3   3    1.10    0.17
  -2   3  -3    0.76    0.16
   3  -3   3   86.72    4.68
  -3  -3  -3   82.43    4.02
   3  -3   3   81.72    3.94
  -3   3  -3   88.08    3.98
   4  -3   3   80.62    3.70
   4  -3   3   77.39    4.33
  -4  -3  -3   77.69    3.79
  -4   3  -3   77.44    3.74
   5  -3   3    3.12    0.36
  -5  -3  -3    2.58    0.47
  -5   3  -3    4.69    0.49
  -6  -3  -3    2.76    0.51
  -6   3  -3    4.12    0.56
  -7  -3  -3    4.14    0.65
  -7   3  -3    4.02    0.63
  -7  -4   3   21.06    1.33
  -7   4   3   20.24    1.32
  -6  -4   3    9.30    0.73
  -6   4   3    8.28    0.75
  -5  -4   3    9.09    0.69
  -5   4   3    9.07    0.69
   5   4  -3    8.58    0.72
  -4  -4   3   20.34    1.20
   4   4  -3   22.88    1.26
  -4   4   3   25.07    1.25
  -3  -4   3   38.26    1.74
  -3   4   3   34.10    1.77
   3   4  -3   34.17    1.77
   2  -4  -3  118.18    5.61
  -2  -4   3  108.94    5.60
   2  -4  -3  117.57    5.61
   2   4  -3  130.06    5.67
  -2   4   3  126.76    5.70
  -2   4   3  131.69    5.68
   2   4  -3  127.48    5.67
  -1   4   3   78.07    3.58
   1   4  -3   76.35    3.54
   1   4  -3   76.31    3.54
  -1   4   3   76.59    3.61
   0  -4  -3   48.44    2.20
   0   4   3   47.42    2.27
   0   4   3   46.88    2.29
  -1  -4  -3   26.14    1.33
  -1  -4  -3   24.03    1.69
  -1  -4  -3   25.52    1.35
  -1   4  -3   29.39    1.30
   1   4   3   29.37    1.40
  -1   4  -3   29.38    1.29
  -2  -4  -3   58.49    3.30
  -2  -4  -3   61.05    2.73
  -2   4  -3   51.20    2.65
   3  -4   3   38.89    2.24
  -3  -4  -3   38.98    1.94
  -3   4  -3   37.08    1.88
  -4  -4  -3   24.70    1.33
   4  -4   3   22.44    1.18
   4  -4   3   23.12    1.43
  -4   4  -3   22.06    1.24
   5  -4   3   44.38    2.16
   5  -4   3   41.71    2.51
  -5  -4  -3   44.80    2.28
  -5   4  -3   43.39    2.24
  -6  -4  -3   26.23    1.63
  -6   4  -3   29.22    1.61
  -7  -4  -3    1.56    0.50
  -7   4  -3    1.62    0.48
  -7   5   3    1.81    0.49
  -6  -5   3    5.94    0.63
  -6   5   3    6.12    0.66
  -5  -5   3    5.35    0.49
  -5   5   3    3.61    0.51
   5   5  -3    3.36    0.55
  -4  -5   3   51.54    2.54
   4   5  -3   52.51    2.62
  -4   5   3   53.58    2.59
  -3  -5   3   21.79    1.07
  -3  -5   3   21.16    1.07
  -3   5   3   21.26    1.15
   3   5  -3   21.52    1.16
   2   5  -3   41.20    2.04
  -2   5   3   42.20    2.06
  -2   5   3   44.55    2.05
   2   5  -3   41.23    2.03
  -1   5   3   84.67    3.87
   1   5  -3   81.97    3.81
  -1   5   3   80.20    3.88
   1   5  -3   83.58    3.81
   0   5   3   15.70    0.90
   0   5   3   16.83    0.89
  -1  -5  -3    3.87    0.27
  -1  -5  -3    3.68    0.27
  -1  -5  -3    4.36    0.54
  -2  -5  -3    1.87    0.29
  -2   5  -3    1.26    0.22
   3  -5   3   61.80    3.63
  -3  -5  -3   59.97    3.06
  -3   5  -3   67.93    3.02
   4  -5   3   48.07    2.80
  -4  -5  -3   48.45    2.42
  -4   5  -3   46.79    2.36
   5  -5   3    1.00    0.35
  -5  -5  -3    0.68    0.36
  -5   5  -3    2.00    0.38
  -6  -5  -3    0.19    0.39
  -6   5  -3    0.09    0.35
  -6   6   3    7.25    0.69
  -5   6   3    2.10    0.40
   4   6  -3   15.21    0.98
  -4   6   3   15.69    0.95
   3   6  -3   16.74    0.98
  -3   6   3   16.94    0.96
   2  -6  -3   29.03    2.04
   2   6  -3   32.24    1.57
  -2   6   3   32.66    1.59
   1  -6  -3   11.95    1.06
   1   6  -3   13.78    0.71
  -1   6   3   15.00    0.82
   1   6  -3   13.95    0.72
  -1   6   3   12.85    0.80
   0  -6  -3   27.50    1.77
   0   6   3   25.30    1.35
   0   6   3   25.84    1.37
  -1  -6  -3   24.49    1.74
   1   6   3   27.05    1.36
  -2   6  -3   22.96    1.13
  -3   6  -3   26.62    1.36
  -4   6  -3    7.49    0.59
  -5   6  -3   27.88    1.54
  -5   7   3    3.51    0.54
   4  -7  -3   12.93    1.24
  -4   7   3   15.02    0.91
   3  -7  -3   11.90    1.12
  -3   7   3   11.57    0.76
   2  -7  -3    5.24    0.76
  -2   7   3    5.03    0.46
   2   7  -3    5.22    0.45
   1  -7  -3   33.24    2.28
   1   7  -3   35.56    1.67
  -1   7   3   35.36    1.77
   0  -7  -3    7.17    0.84
   0   7   3    6.70    0.55
  -1  -7  -3    0.72    0.43
   1   7   3    2.86    0.41
  -4   7  -3   24.25    1.32
  -5   7  -3    1.38    0.39
   4  -8  -3    1.56    0.64
   3  -8  -3    3.53    0.77
   2  -8  -3   18.08    1.46
   1  -8  -3    0.70    0.47
   0   8   3   10.56    0.75
   1   8   3    6.07    0.59
   2   8   3   12.93    0.90
   1  -9  -3   15.77    1.45
  -8   0   4    1.28    0.45
  -7   0   4    0.44    0.35
   6   0  -4    0.31    0.31
  -6   0   4    0.31    0.29
  -5   0   4   32.73    1.71
   5   0  -4   31.81    1.71
  -4   0   4   74.62    3.59
   4   0  -4   75.85    3.60
  -3   0   4    5.49    0.42
   3   0  -4    5.63    0.41
  -2   0   4  217.17    9.88
  -2   0   4  214.10    9.88
   2   0  -4  215.51    9.88
   2   0  -4  216.67    9.89
   1   0  -4  118.28    5.61
  -1   0   4  123.77    5.62
  -1   0   4  123.23    5.61
   0   0  -4  148.73    6.78
   0   0   4  148.63    6.78
   0   0  -4  148.72    6.78
   0   0   4  143.95    6.77
  -1   0  -4   38.54    1.87
   1   0   4   38.43    1.87
   1   0   4   39.17    1.86
  -2   0  -4   50.51    2.42
  -3   0  -4   90.99    4.30
  -4   0  -4   18.93    1.10
  -5   0  -4   -0.08    0.26
  -6   0  -4    1.10    0.38
  -7   0  -4   16.69    1.16
  -8  -1   4    1.74    0.47
  -8   1   4    1.47    0.47
  -7  -1   4    1.15    0.38
  -7   1   4    0.52    0.36
   7   1  -4    0.49    0.36
  -6  -1   4   16.35    1.07
   6  -1  -4   16.70    1.05
  -6   1   4   16.56    1.06
   6   1  -4   18.17    1.11
  -5  -1   4    4.15    0.45
   5  -1  -4    4.98    0.48
   5   1  -4    3.22    0.46
  -5   1   4    2.41    0.41
   4  -1  -4   20.44    1.09
  -4  -1   4   20.35    1.09
  -4   1   4   18.83    1.08
   4   1  -4   18.60    1.09
  -3  -1   4  174.18    8.16
   3  -1  -4  182.12    8.17
  -3   1   4  179.71    8.18
   3   1  -4  173.35    8.17
  -2  -1   4   53.28    2.37
   2  -1  -4   54.46    2.39
  -2  -1   4   51.13    2.36
   2   1  -4   47.85    2.36
  -2   1   4   47.97    2.37
   2   1  -4   45.04    2.36
  -2   1   4   48.15    2.37
   1  -1  -4  103.06    4.90
  -1  -1   4  105.91    4.89
  -1  -1   4  100.71    4.88
   1  -1  -4  110.34    4.92
   1   1  -4  106.81    4.89
  -1   1   4  107.84    4.93
   1   1  -4  106.53    4.90
  -1   1   4  107.69    4.90
   0  -1  -4   49.38    2.66
   0  -1  -4   52.55    2.66
   0  -1   4   49.72    2.64
   0  -1   4   51.97    2.63
   0   1   4   63.53    2.68
   0   1   4   60.23    2.68
   0   1  -4   62.92    2.67
   0   1  -4   62.65    2.66
   1  -1   4  182.42    8.11
  -1  -1  -4  182.64    8.13
   1  -1   4  189.66    8.09
  -1   1  -4  169.84    8.10
   1   1   4  167.52    8.11
  -1   1  -4  173.54    8.10
   1   1   4  172.14    8.12
  -2  -1  -4  147.55    6.81
  -2  -1  -4  148.04    7.99
   2  -1   4  144.87    6.78
  -2   1  -4  148.18    6.79
  -3  -1  -4    3.18    0.36
  -3   1  -4    4.62    0.40
  -4  -1  -4   25.53    1.45
  -4   1  -4   28.06    1.46
  -5  -1  -4   18.30    1.11
  -5   1  -4   16.38    1.07
  -6  -1  -4   17.88    1.21
  -6   1  -4   19.75    1.22
  -7  -1  -4    3.65    0.62
  -7   1  -4    1.99    0.50
  -8  -2   4    0.63    0.42
  -8   2   4   -0.17    0.37
  -7  -2   4    0.05    0.33
  -7   2   4    0.40    0.36
   7   2  -4   -0.01    0.38
  -6  -2   4    0.22    0.28
   6  -2  -4    0.28    0.29
   6   2  -4    0.65    0.35
  -6   2   4    0.97    0.34
   5  -2  -4  113.39    5.13
  -5  -2   4  113.76    5.15
   5   2  -4  101.88    5.14
  -5   2   4  104.67    5.14
   4  -2  -4   66.15    3.15
  -4  -2   4   68.14    3.17
   4   2  -4   65.81    3.18
  -4   2   4   63.34    3.17
  -3  -2   4    0.83    0.19
   3  -2  -4    0.71    0.19
  -3   2   4    0.29    0.17
   3   2  -4    0.36    0.16
  -2  -2   4   21.70    1.12
   2  -2  -4   22.15    1.13
  -2  -2   4   22.19    1.12
   2   2  -4   21.96    1.13
   2   2  -4   22.99    1.14
  -2   2   4   24.30    1.15
  -2   2   4   21.57    1.15
  -1  -2   4   63.70    3.47
   1  -2  -4   69.15    3.52
  -1  -2   4   65.31    3.48
   1  -2  -4   67.88    3.50
   1   2  -4   85.33    3.50
   1   2  -4   82.43    3.51
  -1   2   4   86.32    3.54
  -1   2   4   84.11    3.56
   0  -2   4  148.60    6.57
   0  -2  -4  150.64    6.62
   0  -2  -4  141.20    6.63
   0  -2   4  143.18    6.56
   0   2  -4  140.99    6.59
   0   2   4  144.74    6.63
   0   2  -4  138.64    6.59
   0   2   4  144.48    6.64
   1  -2   4   46.82    2.21
   1  -2   4   47.07    2.19
  -1  -2  -4   46.46    2.27
   1   2   4   47.41    2.27
  -1   2  -4   46.45    2.21
   1   2   4   47.15    2.26
  -1   2  -4   46.72    2.22
  -1   2  -4   47.47    2.62
  -2  -2  -4  106.18    4.90
   2  -2   4  103.35    4.85
   2  -2   4  105.05    4.83
  -2  -2  -4  102.73    5.76
  -2   2  -4  105.87    4.86
  -3  -2  -4   95.49    4.54
   3  -2   4   92.78    4.48
  -3   2  -4   99.28    4.51
  -4  -2  -4    7.23    0.61
  -4   2  -4    7.88    0.59
  -5  -2  -4   10.09    0.75
  -5   2  -4    7.31    0.67
  -6  -2  -4    0.45    0.36
  -6   2  -4    0.41    0.34
  -7  -2  -4   20.19    1.34
  -7   2  -4   20.42    1.35
  -8  -3   4    6.52    0.74
  -8   3   4    6.12    0.75
  -7  -3   4    1.18    0.41
  -7   3   4    1.09    0.41
  -6  -3   4    7.53    0.68
   6   3  -4    9.22    0.77
  -6   3   4    8.92    0.73
   5  -3  -4   28.10    1.43
  -5  -3   4   27.30    1.45
  -5   3   4   25.65    1.46
   5   3  -4   25.60    1.48
   4  -3  -4   22.34    1.13
  -4  -3   4   22.06    1.14
   4   3  -4   19.42    1.16
  -4   3   4   19.58    1.15
   3  -3  -4  103.98    4.96
  -3  -3   4  103.37    4.96
   3   3  -4  109.58    5.00
  -3   3   4  110.61    5.01
  -2  -3   4  160.96    7.26
  -2  -3   4  163.33    7.26
   2  -3  -4  162.91    7.27
   2   3  -4  155.67    7.28
  -2   3   4  160.57    7.30
  -2   3   4  153.77    7.32
   2   3  -4  152.76    7.29
   1  -3  -4   14.13    0.83
   1  -3  -4   15.04    0.84
  -1   3   4   16.93    0.90
   1   3  -4   17.12    0.84
   1   3  -4   17.36    0.83
  -1   3   4   17.33    0.88
   0   3   4    8.57    0.52
   0   3  -4    8.00    0.45
   0   3   4    8.45    0.55
   0   3  -4    7.94    0.45
  -1  -3  -4  118.33    6.05
  -1  -3  -4  107.13    5.06
  -1   3  -4  108.53    4.99
  -1   3  -4  107.79    5.00
   1   3   4  101.55    5.04
  -2  -3  -4   93.87    5.29
  -2  -3  -4   98.15    4.47
   2  -3   4   95.89    4.35
   2  -3   4   93.28    4.37
  -2   3  -4   92.94    4.40
  -3  -3  -4    1.25    0.28
   3  -3   4    1.27    0.23
  -3   3  -4    2.61    0.32
  -4  -3  -4   12.36    0.84
   4  -3   4   11.87    0.77
  -4   3  -4   12.88    0.80
  -5  -3  -4   23.31    1.39
   5  -3   4   23.20    1.30
  -5   3  -4   23.64    1.35
   6  -3   4    9.01    0.77
  -6  -3  -4    8.73    0.82
  -6   3  -4   11.44    0.84
  -7  -3  -4    1.91    0.52
  -7   3  -4    1.32    0.46
  -7  -4   4    0.45    0.37
  -7   4   4    0.23    0.37
  -6  -4   4    2.03    0.43
  -6   4   4    3.67    0.51
   6   4  -4    3.19    0.55
  -5  -4   4   94.18    4.28
   5   4  -4   82.87    4.30
  -5   4   4   90.88    4.31
  -4  -4   4   61.13    3.06
   4  -4  -4   64.63    3.04
  -4   4   4   66.34    3.11
   4   4  -4   63.69    3.11
   3  -4  -4    2.21    0.28
  -3  -4   4    2.04    0.28
   3   4  -4    3.02    0.35
  -3   4   4    3.15    0.36
   2  -4  -4   31.10    1.39
   2  -4  -4   30.63    1.37
  -2  -4   4   30.18    1.34
   2   4  -4   26.01    1.40
   2   4  -4   26.77    1.40
  -2   4   4   26.51    1.42
  -2   4   4   26.29    1.44
  -1   4   4   17.59    0.89
   1   4  -4   15.23    0.82
   1   4  -4   16.06    0.82
  -1   4   4   15.65    0.90
   0  -4  -4   95.37    4.31
   0   4   4   91.32    4.37
   0   4  -4   92.89    4.27
   0   4  -4   92.00    4.28
   0   4   4   94.72    4.37
  -1  -4  -4   46.64    2.26
  -1  -4  -4   47.55    2.77
   1   4   4   46.01    2.27
  -1   4  -4   47.20    2.20
  -1   4  -4   46.73    2.19
  -2  -4  -4   76.60    4.38
  -2  -4  -4   73.51    3.66
  -2   4  -4   80.55    3.59
  -3  -4  -4   23.44    1.34
  -3   4  -4   25.84    1.29
  -4  -4  -4   12.19    0.84
   4  -4   4   11.84    0.70
  -5  -4  -4   14.16    0.96
  -5   4  -4   12.13    0.88
  -6  -4  -4    0.46    0.38
  -6   4  -4    0.15    0.33
  -7   5   4    0.91    0.42
  -6  -5   4    5.10    0.59
   6   5  -4    7.25    0.72
  -6   5   4    6.25    0.66
  -5  -5   4   17.25    1.01
  -5   5   4   17.11    1.06
   5   5  -4   16.85    1.10
  -4  -5   4   18.80    0.97
   4   5  -4   16.00    1.02
  -4   5   4   17.08    1.02
   3  -5  -4   39.45    1.85
  -3  -5   4   37.80    1.85
  -3  -5   4   37.26    1.85
  -3   5   4   41.29    1.97
   3   5  -4   40.51    1.96
  -2   5   4   78.03    3.65
  -2   5   4   75.17    3.66
   2   5  -4   79.53    3.62
   2   5  -4   76.05    3.62
   1   5  -4    6.81    0.43
  -1   5   4    7.05    0.54
  -1   5   4    7.59    0.52
   1   5  -4    6.91    0.43
   0   5  -4    5.34    0.32
   0   5   4    6.17    0.50
   0   5   4    5.32    0.45
   0   5  -4    5.40    0.34
  -1  -5  -4  129.37    7.10
  -1  -5  -4  130.94    5.82
  -1   5  -4  122.94    5.78
  -1   5  -4  125.26    5.78
   1   5   4  123.54    5.89
  -2  -5  -4   45.70    2.18
  -2  -5  -4   42.78    2.69
  -2   5  -4   44.24    2.11
  -3  -5  -4    2.64    0.41
  -3   5  -4    4.57    0.40
  -4  -5  -4    3.62    0.52
  -4   5  -4    4.75    0.49
  -5  -5  -4   10.82    0.89
  -5   5  -4   12.57    0.86
  -6  -5  -4    3.63    0.66
  -6   5  -4    5.38    0.61
  -6   6   4    2.75    0.49
   5   6  -4   39.77    2.09
  -5   6   4   38.02    2.04
  -4   6   4   22.07    1.23
   4   6  -4   21.38    1.25
  -3   6   4    3.47    0.42
   3   6  -4    3.31    0.40
  -2   6   4   24.84    1.30
   2   6  -4   23.49    1.24
   1   6  -4    8.47    0.51
  -1   6   4    8.12    0.62
   1   6  -4    8.51    0.50
  -1   6   4    9.34    0.64
   0  -6  -4   37.94    2.43
   0   6   4   38.52    1.93
  -1  -6  -4   21.96    1.59
   1   6   4   22.51    1.24
  -1   6  -4   22.84    1.08
  -2   6  -4   18.99    0.97
  -3   6  -4   19.16    1.03
  -4   6  -4    3.76    0.46
  -5   6  -4    5.08    0.59
  -5   7   4    5.89    0.61
   4   7  -4    7.81    0.69
  -4   7   4    7.63    0.65
   3  -7  -4   17.36    1.43
  -3   7   4   18.39    1.06
   3   7  -4   18.60    1.07
   2  -7  -4   20.39    1.70
  -2   7   4   25.86    1.33
   2   7  -4   25.73    1.27
   1  -7  -4    2.35    0.56
   1   7  -4    1.92    0.27
  -1   7   4    2.01    0.36
   0  -7  -4    0.96    0.47
   0   7   4    1.39    0.33
  -1  -7  -4   41.07    2.71
   1   7   4   43.55    2.16
   2   7   4   20.90    1.24
   4  -8  -4   11.41    1.21
   3  -8  -4    1.02    0.59
   2  -8  -4    9.72    1.05
  -2   8   4   10.53    0.73
   1  -8  -4    3.47    0.75
  -1   8   4    4.44    0.52
   0  -8  -4   19.43    1.58
   0   8   4   20.74    1.20
   1   8   4    4.79    0.59
   2   8   4    7.02    0.70
   3   8   4    9.84    0.84
   1  -9  -4    0.73    0.62
   0  -9  -4    1.26    0.63
  -8   0   5    0.97    0.44
   7   0  -5   21.25    1.31
  -7   0   5   19.09    1.25
  -6   0   5    0.67    0.33
   6   0  -5    0.73    0.34
   5   0  -5    0.97    0.28
  -5   0   5    1.00    0.29
   4   0  -5   28.91    1.51
  -3   0   5   23.33    1.22
   3   0  -5   22.96    1.21
   2   0  -5  270.89   12.56
  -2   0   5  278.68   12.56
  -1   0   5   13.14    0.74
   1   0  -5   12.81    0.73
   1   0  -5   13.95    0.74
  -1   0   5   13.03    0.73
   0   0  -5  110.11    5.15
   0   0   5  115.38    5.15
   0   0  -5  105.82    5.14
   0   0   5  112.32    5.16
   1   0   5  119.12    5.64
  -1   0  -5  119.53    5.65
  -1   0  -5  126.87    5.65
   2   0   5   44.76    2.19
  -2   0  -5   44.25    2.44
  -2   0  -5   45.62    2.20
  -3   0  -5    2.21    0.35
  -4   0  -5   32.80    1.75
  -5   0  -5   72.55    3.59
  -6   0  -5   12.34    0.94
  -7   0  -5   -0.15    0.34
  -8  -1   5   14.24    1.05
  -7  -1   5    2.03    0.43
   7  -1  -5    2.01    0.46
  -7   1   5    2.17    0.44
   7   1  -5    1.84    0.47
   6  -1  -5   28.84    1.58
  -6  -1   5   29.74    1.60
  -6   1   5   26.89    1.58
   6   1  -5   27.57    1.60
   5  -1  -5   53.27    2.70
  -5  -1   5   53.62    2.71
  -5   1   5   55.86    2.73
   5   1  -5   55.61    2.73
   4  -1  -5   17.22    1.04
  -4  -1   5   17.87    1.05
   4   1  -5   19.75    1.08
  -4   1   5   20.70    1.08
  -3  -1   5    2.92    0.32
   3  -1  -5    2.69    0.32
   3   1  -5    2.73    0.34
  -3   1   5    2.14    0.31
   2  -1  -5   34.10    1.88
  -2  -1   5   33.06    1.87
   2   1  -5   42.89    1.90
  -2   1   5   43.40    1.93
   2   1  -5   41.98    1.91
   1  -1  -5  222.77    9.92
  -1  -1   5  224.87    9.91
   1  -1  -5  228.49    9.95
  -1  -1   5  223.59    9.91
  -1   1   5  209.28    9.92
   1   1  -5  209.14    9.90
  -1   1   5  205.85    9.94
   1   1  -5  208.14    9.91
   0  -1   5   15.62    0.78
   0  -1  -5   14.64    0.81
   0  -1   5   14.09    0.78
   0  -1  -5   15.63    0.81
   0   1  -5   13.98    0.79
   0   1   5   14.28    0.81
   0   1   5   13.70    0.80
   0   1  -5   14.53    0.79
   1  -1   5   46.37    2.30
   1  -1   5   47.81    2.28
  -1  -1  -5   46.60    2.33
  -1   1  -5   48.82    2.30
  -1   1  -5   48.35    2.31
   1   1   5   50.38    2.33
  -2  -1  -5   81.33    4.56
   2  -1   5   77.51    3.90
  -2  -1  -5   80.68    3.94
   2   1   5   88.89    3.94
  -2   1  -5   88.17    3.92
   3  -1   5   47.89    2.33
  -3  -1  -5   48.76    2.37
  -3   1  -5   45.79    2.34
  -4  -1  -5   56.32    2.73
  -4   1  -5   52.55    2.70
  -5  -1  -5   14.23    0.97
  -5   1  -5   13.60    0.94
  -6  -1  -5   16.99    1.14
  -6   1  -5   15.34    1.09
  -7  -1  -5    6.12    0.75
  -7   1  -5    6.59    0.74
  -8  -2   5    0.35    0.40
  -8   2   5    1.65    0.49
  -7  -2   5   34.64    1.89
  -7   2   5   32.37    1.89
   7   2  -5   34.19    1.93
  -6  -2   5   11.02    0.76
   6  -2  -5   10.84    0.74
  -6   2   5    7.77    0.72
   6   2  -5    7.00    0.70
   5  -2  -5    3.92    0.47
  -5  -2   5    3.78    0.44
   5   2  -5    3.20    0.43
  -5   2   5    3.41    0.46
  -4  -2   5    3.11    0.37
   4  -2  -5    3.18    0.38
   4   2  -5    4.70    0.45
  -3  -2   5   24.87    1.31
   3  -2  -5   25.15    1.32
  -3   2   5   26.02    1.35
   3   2  -5   27.12    1.35
  -2  -2   5  190.54    8.93
   2  -2  -5  187.78    8.95
   2   2  -5  206.21    8.96
   2   2  -5  189.27    8.95
  -2   2   5  201.77    8.99
  -1  -2   5   17.31    0.86
  -1  -2   5   16.78    0.88
   1  -2  -5   18.10    0.91
   1   2  -5   16.67    0.89
   1   2  -5   16.33    0.88
  -1   2   5   16.51    0.91
  -1   2   5   16.44    0.93
   0  -2   5  136.30    6.26
   0  -2  -5  140.54    6.33
   0  -2   5  143.52    6.26
   0   2   5  138.20    6.33
   0   2  -5  132.43    6.29
   0   2   5  133.22    6.33
   0   2  -5  132.03    6.28
  -1  -2  -5  123.51    5.87
   1  -2   5  128.57    5.80
   1  -2   5  121.05    5.82
   1   2   5  130.47    5.87
  -1   2  -5  129.55    5.84
  -1   2  -5  124.50    5.82
   2  -2   5   23.53    1.24
  -2  -2  -5   25.50    1.46
  -2  -2  -5   23.46    1.29
  -2   2  -5   24.46    1.25
  -3  -2  -5    8.99    0.64
   3  -2   5    9.44    0.61
  -3   2  -5    8.28    0.60
   4  -2   5   12.78    0.80
  -4  -2  -5   12.39    0.83
  -4   2  -5   11.03    0.79
   5  -2   5   60.03    3.12
  -5  -2  -5   62.74    3.20
  -5   2  -5   68.06    3.19
  -6  -2  -5    5.08    0.62
   6  -2   5    5.31    0.63
  -6   2  -5    6.30    0.67
  -7  -2  -5    1.18    0.48
   7  -2   5    0.90    0.47
  -7   2  -5    1.88    0.49
  -8  -3   5   14.29    1.09
  -8   3   5   14.58    1.12
  -7  -3   5    6.03    0.67
   7   3  -5    5.51    0.71
  -7   3   5    5.62    0.66
  -6  -3   5   29.81    1.60
   6  -3  -5   29.82    1.57
  -6   3   5   26.47    1.60
   6   3  -5   27.67    1.63
  -5  -3   5   31.72    1.80
   5  -3  -5   32.66    1.79
  -5   3   5   37.65    1.86
   5   3  -5   37.34    1.86
   4  -3  -5    8.75    0.64
  -4  -3   5    9.45    0.66
  -4   3   5   11.32    0.71
   4   3  -5   10.97    0.71
  -3  -3   5    6.42    0.45
   3  -3  -5    6.10    0.46
   3   3  -5    6.07    0.49
  -3   3   5    6.33    0.51
   2  -3  -5    4.01    0.34
  -2  -3   5    3.98    0.32
  -2  -3   5    4.03    0.31
  -1  -3   5  104.69    4.88
  -1  -3   5  105.42    4.87
   1  -3  -5  104.02    4.93
  -1   3   5  113.41    4.99
   1   3  -5  106.35    4.94
   1   3  -5  106.17    4.92
  -1   3   5  106.45    5.00
   0  -3  -5   35.56    1.62
   0   3  -5   32.37    1.58
   0   3   5   31.01    1.63
   0   3  -5   30.96    1.56
   1  -3   5   24.23    1.16
  -1  -3  -5   25.48    1.31
   1   3   5   25.22    1.30
  -1   3  -5   24.94    1.25
  -1   3  -5   24.63    1.23
   2  -3   5   19.18    0.95
  -2  -3  -5   19.88    1.08
   2  -3   5   18.41    0.98
  -2  -3  -5   18.82    1.23
  -3  -3  -5   44.03    2.18
   3  -3   5   42.37    2.09
  -3   3  -5   42.42    2.12
   4  -3   5   56.99    2.67
  -4  -3  -5   53.90    2.75
  -4   3  -5   52.96    2.70
  -5  -3  -5   10.16    0.82
   5  -3   5   10.85    0.76
  -5   3  -5    9.81    0.77
   6  -3   5   22.41    1.27
  -6  -3  -5   19.68    1.32
  -6   3  -5   17.73    1.25
  -7  -3  -5    2.86    0.61
  -7   3  -5    3.80    0.67
  -7  -4   5   21.29    1.31
   7   4  -5   21.31    1.38
  -7   4   5   19.32    1.32
  -6  -4   5   17.36    1.09
  -6   4   5   18.22    1.14
   6   4  -5   16.83    1.15
  -5  -4   5    3.61    0.46
   5  -4  -5    3.53    0.42
  -5   4   5    4.14    0.49
   5   4  -5    4.14    0.51
  -4  -4   5    4.53    0.44
   4  -4  -5    4.82    0.43
   4   4  -5    6.16    0.54
  -4   4   5    6.19    0.51
  -3  -4   5   22.58    1.14
   3  -4  -5   21.49    1.14
   3   4  -5   22.53    1.20
  -3   4   5   22.57    1.22
  -2  -4   5   50.30    2.29
  -2  -4   5   51.02    2.30
   2  -4  -5   50.33    2.34
   2   4  -5   48.25    2.37
  -2   4   5   46.69    2.41
   2   4  -5   49.05    2.37
   1  -4  -5    4.58    0.33
   1   4  -5    4.13    0.32
   1   4  -5    4.00    0.33
  -1   4   5    3.68    0.42
   0  -4  -5  128.42    5.86
   0   4   5  130.01    5.91
   0   4  -5  121.23    5.83
   0   4  -5  127.57    5.82
  -1  -4  -5   24.18    1.33
  -1  -4  -5   24.45    1.64
  -1   4  -5   26.43    1.28
  -1   4  -5   26.46    1.27
   1   4   5   26.98    1.36
  -2  -4  -5   31.19    1.74
  -2  -4  -5   32.24    2.07
  -2   4  -5   37.95    1.68
  -3  -4  -5    6.47    0.60
   3  -4   5    7.24    0.41
   3  -4   5    6.74    0.42
  -3   4  -5    6.37    0.51
  -4  -4  -5   11.62    0.85
   4  -4   5   12.03    0.72
  -4   4  -5   12.51    0.81
  -5  -4  -5   19.63    1.24
  -5   4  -5   18.86    1.17
  -6  -4  -5    3.77    0.66
  -6   4  -5    3.08    0.55
  -7   5   5    1.97    0.49
  -6   5   5   18.56    1.18
   6   5  -5   17.69    1.20
  -5  -5   5    9.73    0.72
  -5   5   5   11.79    0.82
   5   5  -5   10.86    0.81
  -4   5   5    2.19    0.37
   4   5  -5    2.16    0.38
   3  -5  -5    8.11    0.50
  -3  -5   5    7.72    0.47
   3   5  -5    8.35    0.60
  -3   5   5    9.65    0.63
  -2   5   5    2.57    0.39
   2   5  -5    2.42    0.32
   2   5  -5    2.64    0.32
   1  -5  -5  105.88    4.74
   1   5  -5  103.05    4.77
   1   5  -5  103.95    4.76
  -1   5   5   99.55    4.87
   0  -5  -5   24.57    1.20
   0   5  -5   23.84    1.20
   0   5  -5   24.32    1.19
   0   5   5   24.98    1.31
  -1  -5  -5   15.18    0.85
  -1  -5  -5   15.76    1.16
  -1   5  -5   15.81    0.81
   1   5   5   16.26    0.93
  -1   5  -5   15.48    0.82
  -2   5  -5    3.59    0.34
   2   5   5    3.36    0.44
  -3  -5  -5   21.57    1.24
  -3   5  -5   21.73    1.17
  -4  -5  -5   42.20    2.23
  -4   5  -5   43.06    2.17
  -5  -5  -5    5.18    0.65
  -5   5  -5    4.01    0.55
  -6  -5  -5   18.43    1.27
  -6   5  -5   17.30    1.20
   6   6  -5    9.34    0.84
  -6   6   5    8.68    0.80
   5   6  -5    0.22    0.33
  -5   6   5    0.06    0.30
   4   6  -5    1.05    0.34
  -4   6   5    0.98    0.32
   3   6  -5   33.23    1.71
  -3   6   5   33.27    1.73
   2   6  -5   37.02    1.86
  -2   6   5   38.85    1.94
  -1   6   5    1.25    0.32
   1   6  -5    1.20    0.20
   0  -6  -5   46.48    2.84
   0   6  -5   44.83    2.15
   0   6   5   45.52    2.29
  -1  -6  -5   18.49    1.31
   1   6   5   15.86    0.99
  -1   6  -5   15.50    0.83
  -2  -6  -5    5.96    0.80
  -2   6  -5    8.03    0.50
   2   6   5    8.11    0.67
  -3   6  -5    1.25    0.27
  -4   6  -5    6.30    0.57
  -5   6  -5   20.82    1.26
   5   7  -5   10.90    0.87
  -5   7   5   10.09    0.81
   4   7  -5    1.02    0.38
  -4   7   5    0.95    0.34
   3   7  -5    0.01    0.27
  -3   7   5    0.75    0.30
   2  -7  -5    3.23    0.69
  -2   7   5    1.85    0.36
   2   7  -5    1.61    0.29
   1  -7  -5   36.59    2.39
   1   7  -5   35.44    1.72
  -1   7   5   35.33    1.87
   0  -7  -5   13.72    1.22
   0   7   5   15.42    0.95
  -1  -7  -5    0.60    0.45
   1   7   5    0.29    0.32
   2   7   5    7.05    0.68
   3   7   5   12.02    0.90
   4  -8  -5    1.31    0.65
   3  -8  -5    9.61    1.16
  -3   8   5   11.98    0.80
   2  -8  -5   27.33    1.96
  -2   8   5   25.66    1.46
   1  -8  -5   -0.06    0.48
  -1   8   5    0.22    0.30
   0  -8  -5   25.23    1.88
   0   8   5   25.30    1.45
  -1  -8  -5   11.03    1.07
   1   8   5    8.35    0.77
   2   8   5    5.66    0.66
   3   8   5    2.17    0.52
   8   0  -6    0.36    0.43
  -8   0   6   -0.13    0.37
  -7   0   6    1.30    0.41
   7   0  -6    0.87    0.41
   6   0  -6   58.23    2.94
  -6   0   6   57.92    2.94
  -5   0   6   37.20    1.90
   5   0  -6   34.78    1.89
  -4   0   6   62.06    3.03
   4   0  -6   62.54    3.03
  -3   0   6    2.97    0.35
   3   0  -6    3.44    0.37
  -2   0   6   15.90    0.87
   2   0  -6   15.39    0.87
  -1   0   6   24.22    1.25
   1   0  -6   23.52    1.24
   0   0  -6   68.00    3.23
   0   0   6   67.85    3.23
  -1   0  -6    3.75    0.37
   1   0   6    4.10    0.38
   2   0   6   21.02    1.12
  -2   0  -6   19.88    1.12
   3   0   6   91.14    4.33
  -3   0  -6   90.79    4.34
   4   0   6   29.80    1.58
  -4   0  -6   27.58    1.57
  -5   0  -6    8.51    0.74
  -6   0  -6    6.35    0.70
  -7   0  -6   18.69    1.31
  -8  -1   6    7.10    0.77
   8   1  -6    6.84    0.81
  -8   1   6    6.89    0.77
  -7  -1   6    0.81    0.37
   7  -1  -6    0.95    0.40
  -7   1   6    0.96    0.39
   7   1  -6    0.99    0.42
   6  -1  -6   10.02    0.76
  -6  -1   6    9.76    0.76
   6   1  -6    8.42    0.75
  -6   1   6    8.71    0.71
  -5  -1   6   13.56    0.88
   5  -1  -6   13.45    0.88
  -5   1   6   13.43    0.89
   5   1  -6   13.35    0.90
   4  -1  -6   45.91    2.37
  -4  -1   6   44.38    2.36
   4   1  -6   52.34    2.41
  -4   1   6   49.81    2.40
  -3  -1   6  229.06   10.74
   3  -1  -6  228.77   10.74
  -3   1   6  243.46   10.77
   2  -1  -6   12.49    0.79
  -2  -1   6   14.06    0.80
   2   1  -6   15.82    0.83
  -2   1   6   15.75    0.85
   1  -1  -6   13.73    0.80
  -1  -1   6   13.61    0.77
   1   1  -6   14.41    0.79
   1   1  -6   13.44    0.79
  -1   1   6   14.20    0.82
   0  -1   6   17.48    0.94
   0  -1  -6   18.26    0.99
   0  -1   6   17.59    0.95
  -1  -1  -6  168.54    7.77
   1  -1   6  167.35    7.75
   1   1   6  164.74    7.76
  -1   1  -6  170.71    7.74
   2  -1   6   72.49    3.40
  -2  -1  -6   73.25    3.43
   2   1   6   68.35    3.41
  -2   1  -6   70.70    3.39
  -3  -1  -6    0.43    0.23
   3  -1   6    0.42    0.22
  -3   1  -6    0.32    0.22
   3   1   6    0.38    0.23
  -4  -1  -6   59.95    2.92
   4  -1   6   55.43    2.86
  -4   1  -6   58.57    2.89
   5  -1   6    1.21    0.36
  -5  -1  -6    0.88    0.34
  -5   1  -6    1.14    0.37
   6  -1   6   10.92    0.92
  -6  -1  -6   11.30    0.92
  -6   1  -6   11.61    0.90
   7  -1   6    1.75    0.51
  -7  -1  -6    1.31    0.49
  -7   1  -6    1.34    0.47
  -8  -2   6    0.18    0.40
   8   2  -6    0.27    0.45
  -8   2   6    0.24    0.37
  -7  -2   6    2.41    0.49
   7  -2  -6    2.50    0.48
   7   2  -6    2.22    0.51
  -7   2   6    2.25    0.49
  -6  -2   6   17.63    1.16
   6  -2  -6   16.89    1.14
   6   2  -6   19.89    1.20
  -6   2   6   22.37    1.24
  -5  -2   6   23.62    1.44
   5  -2  -6   24.99    1.44
  -5   2   6   30.34    1.51
   5   2  -6   28.19    1.51
   4  -2  -6   63.43    3.03
  -4  -2   6   61.21    3.02
   4   2  -6   62.39    3.05
  -4   2   6   62.79    3.06
  -3  -2   6    8.38    0.56
   3  -2  -6    8.60    0.58
   3   2  -6    8.40    0.58
  -3   2   6    7.98    0.59
   2  -2  -6   38.55    1.79
  -2  -2   6   39.26    1.76
   2   2  -6   32.05    1.77
  -2   2   6   33.98    1.80
   1  -2  -6   20.80    1.08
  -1  -2   6   20.55    1.03
  -1  -2   6   20.60    1.04
  -1   2   6   19.39    1.10
   1   2  -6   19.01    1.06
   1   2  -6   20.56    1.05
   0  -2   6   31.66    1.56
   0  -2   6   31.17    1.57
   0  -2  -6   29.79    1.62
   0   2  -6   33.75    1.61
   0   2  -6   33.64    1.61
   0   2   6   33.07    1.64
   1  -2   6   38.11    1.87
  -1  -2  -6   39.11    1.93
   1   2   6   38.16    1.92
  -1   2  -6   38.08    1.88
  -1   2  -6   37.59    1.87
  -2   2  -6   10.01    0.64
   2   2   6   11.09    0.70
  -2   2  -6    9.92    0.65
  -3  -2  -6   98.40    4.74
   3  -2   6   97.72    4.68
  -3   2  -6  101.85    4.71
   4  -2   6   13.80    0.90
  -4  -2  -6   14.76    0.97
  -4   2  -6   15.22    0.94
  -5  -2  -6   10.31    0.85
   5  -2   6   10.65    0.79
  -5   2  -6   10.75    0.81
  -6  -2  -6    2.44    0.52
   6  -2   6    2.41    0.48
  -6   2  -6    3.35    0.55
  -7  -2  -6   20.34    1.36
   7  -2   6   17.99    1.28
  -7   2  -6   16.94    1.28
  -7  -3   6    2.90    0.51
  -7   3   6    2.96    0.53
   7   3  -6    3.87    0.63
  -6  -3   6    9.46    0.77
   6  -3  -6    9.36    0.75
  -6   3   6    9.98    0.80
   6   3  -6    9.18    0.79
  -5  -3   6    4.41    0.50
   5  -3  -6    4.33    0.49
  -5   3   6    4.89    0.53
   5   3  -6    4.78    0.50
   4  -3  -6   20.09    1.14
  -4  -3   6   21.16    1.14
  -4   3   6   20.36    1.18
   4   3  -6   20.89    1.17
   3  -3  -6   93.85    4.52
  -3  -3   6   95.00    4.50
   3   3  -6   98.89    4.55
  -3   3   6   97.83    4.57
  -2  -3   6   11.09    0.63
   2  -3  -6   10.72    0.67
  -2   3   6   11.24    0.73
   2   3  -6   12.65    0.70
  -1  -3   6    2.80    0.25
   1  -3  -6    2.49    0.30
  -1  -3   6    2.33    0.23
   1   3  -6    2.31    0.29
   1   3  -6    2.64    0.29
  -1   3   6    2.21    0.35
   0  -3  -6    5.22    0.45
   0  -3   6    5.16    0.33
   0  -3   6    5.30    0.33
   0   3  -6    6.31    0.43
   0   3   6    6.90    0.50
   0   3  -6    6.29    0.43
   1  -3   6   90.27    4.26
  -1  -3  -6   92.30    4.40
   1  -3   6   91.46    4.28
  -1   3  -6   96.50    4.33
   1   3   6   92.48    4.39
  -1   3  -6   93.98    4.34
   2  -3   6   40.22    2.03
  -2  -3  -6   41.77    2.13
  -2  -3  -6   40.92    2.47
  -2   3  -6   43.71    2.07
   2   3   6   43.96    2.14
  -3  -3  -6    1.91    0.35
   3  -3   6    1.77    0.28
  -3   3  -6    1.57    0.30
   4  -3   6   26.88    1.41
  -4  -3  -6   25.39    1.49
  -4   3  -6   25.61    1.44
   5  -3   6    1.38    0.36
  -5  -3  -6    1.38    0.42
  -5   3  -6    2.37    0.43
   6  -3   6    8.25    0.73
  -6  -3  -6    7.62    0.78
  -6   3  -6    6.35    0.74
  -7  -4   6    0.97    0.41
   7   4  -6    0.15    0.42
  -7   4   6    0.35    0.38
  -6  -4   6    4.96    0.57
   6  -4  -6    3.99    0.53
  -6   4   6    5.76    0.63
   6   4  -6    5.81    0.65
  -5  -4   6    9.05    0.69
   5  -4  -6    9.45    0.69
  -5   4   6   10.00    0.75
   5   4  -6    9.18    0.74
   4  -4  -6   38.69    1.84
  -4  -4   6   37.83    1.83
  -4   4   6   36.08    1.90
   4   4  -6   32.94    1.87
   3  -4  -6    0.39    0.18
  -3  -4   6    0.23    0.16
   3   4  -6    0.30    0.23
  -3   4   6    0.60    0.26
   2  -4  -6   53.53    2.52
  -2  -4   6   51.88    2.47
  -2  -4   6   54.48    2.46
   2   4  -6   51.27    2.54
  -2   4   6   51.53    2.60
   2   4  -6   53.89    2.54
   1  -4  -6   17.49    0.94
   1   4  -6   18.48    0.96
   1   4  -6   17.77    0.94
  -1   4   6   17.75    1.05
   0  -4  -6   13.80    0.85
   0   4  -6   15.85    0.83
   0   4  -6   15.84    0.84
   0   4   6   15.40    0.91
  -1  -4  -6   33.98    1.72
  -1   4  -6   34.16    1.65
  -1   4  -6   32.60    1.66
   1   4   6   33.22    1.73
  -2  -4  -6   35.67    1.80
  -2  -4  -6   37.35    2.13
  -2   4  -6   32.39    1.69
   2   4   6   31.42    1.77
   3  -4   6   43.58    2.08
  -3  -4  -6   44.23    2.26
  -3   4  -6   43.55    2.18
  -4  -4  -6    6.58    0.67
  -4   4  -6    6.31    0.55
  -5  -4  -6    9.29    0.84
  -5   4  -6    9.76    0.76
  -6  -4  -6    1.72    0.51
  -6   4  -6    3.24    0.55
  -7   5   6    2.20    0.52
   7   5  -6    2.16    0.56
  -6   5   6    4.42    0.60
   6   5  -6    4.61    0.66
  -5  -5   6    1.85    0.34
   5   5  -6    1.94    0.41
  -5   5   6    1.99    0.42
   4  -5  -6   13.26    0.76
  -4  -5   6   12.43    0.74
  -4   5   6   12.21    0.86
   4   5  -6   12.78    0.86
   3  -5  -6   84.58    3.78
  -3  -5   6   85.76    3.73
  -3   5   6   76.94    3.88
   3   5  -6   74.85    3.84
   2  -5  -6    4.37    0.36
  -2   5   6    4.54    0.49
   2   5  -6    4.39    0.41
   2   5  -6    5.16    0.43
   1  -5  -6    5.88    0.42
  -1   5   6    6.44    0.56
   1   5  -6    5.97    0.44
   1   5  -6    6.23    0.45
   0   5   6    1.79    0.34
   0   5  -6    1.78    0.26
   0   5  -6    2.21    0.29
  -1  -5  -6   35.54    1.83
  -1  -5  -6   35.80    2.28
  -1   5  -6   36.76    1.78
   1   5   6   37.94    1.90
  -1   5  -6   36.50    1.79
  -2  -5  -6   38.53    2.42
  -2  -5  -6   40.50    2.00
   2   5   6   38.28    2.02
  -2   5  -6   38.30    1.91
  -3  -5  -6    3.14    0.49
   3   5   6    3.21    0.52
  -3   5  -6    3.79    0.43
  -4  -5  -6   19.55    1.20
  -4   5  -6   18.81    1.12
  -5  -5  -6    2.63    0.51
  -5   5  -6    2.75    0.50
   6   6  -6    1.85    0.50
  -6   6   6    2.02    0.47
  -5   6   6   13.08    0.91
   5   6  -6   12.97    0.95
  -4   6   6   26.01    1.42
   4   6  -6   23.68    1.40
  -3   6   6    0.94    0.32
   3   6  -6    1.16    0.30
   2   6  -6   17.68    0.99
  -2   6   6   17.81    1.07
  -1   6   6   17.35    1.05
   1   6  -6   16.84    0.91
   0   6  -6   12.50    0.71
   0   6   6   12.72    0.85
  -1  -6  -6    2.59    0.57
   1   6   6    3.15    0.48
  -1   6  -6    2.50    0.31
  -2  -6  -6   15.49    0.92
  -2  -6  -6   15.72    1.28
  -2   6  -6   15.74    0.88
   2   6   6   16.38    1.05
   3   6   6   38.13    2.04
  -3   6  -6   36.95    1.89
   4   6   6    6.29    0.72
  -4   6  -6    5.73    0.58
  -5   6  -6    1.73    0.43
   5   7  -6    5.45    0.68
  -5   7   6    5.89    0.65
  -4   7   6   10.62    0.83
   4   7  -6   11.04    0.82
  -3   7   6   50.26    2.54
   3   7  -6   49.80    2.48
  -2   7   6    2.35    0.42
   2   7  -6    2.76    0.38
   1  -7  -6    1.93    0.59
  -1   7   6    1.64    0.40
   1   7  -6    1.88    0.29
   0  -7  -6    3.88    0.72
   0   7   6    2.68    0.48
  -1  -7  -6   15.54    1.32
   1   7   6   14.81    1.01
  -2  -7  -6   24.71    1.84
   2   7   6   25.84    1.49
   3   7   6    2.74    0.51
   4   7   6   12.52    1.04
   3  -8  -6    3.64    0.81
  -3   8   6    3.43    0.53
   2  -8  -6   14.09    1.31
  -2   8   6   12.72    0.93
   1  -8  -6    6.22    0.90
  -1   8   6    8.09    0.71
   0  -8  -6   14.51    1.32
   0   8   6   13.31    0.98
  -1  -8  -6    2.68    0.69
   1   8   6    2.63    0.49
   2   8   6    7.90    0.79
   8   0  -7    2.78    0.58
  -8   0   7    2.70    0.55
  -7   0   7   20.85    1.33
   7   0  -7   21.84    1.37
   6   0  -7   72.42    3.52
  -6   0   7   68.87    3.50
   5   0  -7    7.18    0.62
  -5   0   7    7.03    0.61
   4   0  -7   10.25    0.72
  -4   0   7   10.76    0.72
  -3   0   7   23.92    1.28
   3   0  -7   23.58    1.28
  -2   0   7   23.08    1.25
   2   0  -7   24.23    1.26
   1   0  -7    0.01    0.15
  -1   0   7    0.14    0.16
   0   0  -7  271.01   12.45
   0   0   7  270.93   12.44
  -1   0  -7  139.49    6.44
   1   0   7  136.42    6.42
   2   0   7   23.15    1.29
  -2   0  -7   24.43    1.30
  -3   0  -7    0.94    0.28
   3   0   7    0.81    0.28
   4   0   7    0.65    0.31
  -4   0  -7    0.33    0.29
   5   0   7   37.56    2.02
  -5   0  -7   36.84    2.03
   6   0   7    3.77    0.63
  -6   0  -7    4.02    0.57
  -7   0  -7   -0.10    0.41
   7   0   7   -0.09    0.46
  -8  -1   7    7.61    0.81
   8  -1  -7    8.36    0.84
  -8   1   7    7.88    0.82
   8   1  -7    8.09    0.81
   7  -1  -7    2.80    0.51
  -7  -1   7    2.69    0.50
   7   1  -7    2.34    0.48
  -7   1   7    3.02    0.51
  -6  -1   7   13.77    0.94
   6  -1  -7   14.13    0.94
   6   1  -7   12.56    0.92
  -6   1   7   13.56    0.95
  -5  -1   7   36.11    1.91
   5  -1  -7   36.99    1.93
  -5   1   7   35.80    1.93
   5   1  -7   37.35    1.94
   4  -1  -7    0.41    0.24
  -4  -1   7    0.70    0.25
  -4   1   7    0.96    0.26
   4   1  -7    0.73    0.25
   3  -1  -7   42.79    2.11
  -3  -1   7   41.37    2.09
   3   1  -7   41.91    2.11
  -3   1   7   42.21    2.11
  -2  -1   7   15.89    0.98
   2  -1  -7   15.74    0.99
   2   1  -7   19.89    1.01
  -2   1   7   21.46    1.06
  -1  -1   7  150.14    7.04
   1  -1  -7  153.41    7.07
  -1   1   7  153.04    7.08
   1   1  -7  152.10    7.06
   0  -1  -7   37.27    1.71
   0  -1   7   34.01    1.67
   0   1   7   31.70    1.68
   0   1  -7   28.85    1.65
   1  -1   7   12.82    0.76
  -1  -1  -7   12.43    0.77
   1   1   7   11.50    0.77
  -1   1  -7   12.14    0.75
   2  -1   7   66.13    3.27
  -2  -1  -7   68.58    3.30
   2   1   7   69.05    3.30
  -2   1  -7   68.10    3.28
   3  -1   7   35.62    1.85
  -3  -1  -7   34.71    1.87
   3   1   7   36.39    1.88
  -3   1  -7   36.07    1.86
  -4  -1  -7  107.68    5.18
   4  -1   7  106.43    5.14
   4   1   7  106.73    5.16
  -4   1  -7  110.80    5.17
   5  -1   7    3.66    0.55
  -5  -1  -7    3.76    0.58
  -5   1  -7    4.14    0.56
   5   1   7    3.76    0.54
  -6  -1  -7   13.98    1.07
   6  -1   7   14.49    1.05
  -6   1  -7   14.32    1.06
   6   1   7   13.67    1.07
   7  -1   7   10.45    0.96
  -7  -1  -7   10.49    0.96
   7   1   7    7.88    0.91
  -7   1  -7    7.66    0.84
  -8  -2   7   -0.35    0.35
   8  -2  -7   -0.07    0.42
  -8   2   7    0.04    0.40
   8   2  -7    0.54    0.46
   7  -2  -7   13.69    1.01
  -7  -2   7   13.01    1.00
   7   2  -7   15.76    1.09
  -7   2   7   13.83    1.04
  -6  -2   7   49.40    2.61
   6  -2  -7   48.39    2.59
   6   2  -7   52.73    2.66
  -6   2   7   54.03    2.66
  -5  -2   7   14.24    0.92
   5  -2  -7   14.41    0.92
   5   2  -7   14.16    0.95
  -5   2   7   14.40    0.95
  -4  -2   7   16.40    0.93
   4  -2  -7   16.24    0.94
   4   2  -7   14.58    0.95
  -4   2   7   15.02    0.96
   3  -2  -7   20.00    1.06
  -3  -2   7   19.42    1.04
   3   2  -7   18.47    1.06
  -3   2   7   17.51    1.06
   2  -2  -7   20.77    1.12
  -2  -2   7   20.40    1.09
   2   2  -7   20.56    1.12
  -2   2   7   20.92    1.16
  -1  -2   7    2.23    0.28
   1  -2  -7    2.14    0.32
   1   2  -7    2.64    0.34
  -1   2   7    2.76    0.37
   0  -2  -7  139.80    6.61
   0  -2   7  141.74    6.54
   0   2  -7  145.02    6.58
   0   2   7  136.26    6.61
   0   2  -7  145.06    6.57
   1  -2   7  131.63    6.40
  -1  -2  -7  131.94    6.46
  -1   2  -7  145.14    6.43
   1   2   7  144.34    6.47
  -2  -2  -7   11.51    0.84
   2  -2   7   12.65    0.81
  -2   2  -7   14.57    0.84
   2   2   7   14.43    0.86
  -2   2  -7   14.45    0.83
  -3  -2  -7    2.78    0.36
  -3  -2  -7    2.33    0.42
   3  -2   7    2.88    0.38
   3   2   7    2.89    0.46
  -3   2  -7    2.31    0.39
   4  -2   7    6.25    0.61
  -4  -2  -7    6.65    0.62
  -5  -2  -7   46.82    2.45
   5  -2   7   48.85    2.40
  -5   2  -7   41.81    2.39
   6  -2   7    8.69    0.80
  -6  -2  -7    7.49    0.76
  -6   2  -7    6.98    0.76
   7  -3  -7    2.16    0.47
  -7  -3   7    2.92    0.51
  -7   3   7    3.14    0.56
   7   3  -7    2.96    0.57
  -6  -3   7   12.13    0.87
   6  -3  -7   12.90    0.87
  -6   3   7   12.21    0.92
   6   3  -7   11.56    0.92
  -5  -3   7   17.66    1.06
   5  -3  -7   17.79    1.07
  -5   3   7   18.40    1.12
   5   3  -7   17.18    1.10
  -4  -3   7    0.10    0.20
   4  -3  -7    0.15    0.22
   4   3  -7    0.41    0.26
  -4   3   7    0.24    0.26
  -3  -3   7    3.59    0.36
   3  -3  -7    3.83    0.40
   3   3  -7    3.11    0.42
  -3   3   7    3.34    0.43
  -2  -3   7   15.32    0.83
   2  -3  -7   16.29    0.88
  -2   3   7   14.63    0.93
   2   3  -7   15.09    0.89
   1  -3  -7   89.62    4.27
  -1  -3   7   89.44    4.20
  -1  -3   7   88.63    4.18
   1   3  -7   90.24    4.26
   1   3  -7   91.58    4.24
  -1   3   7   93.60    4.33
   0  -3   7   34.06    1.60
   0  -3  -7   33.03    1.70
   0  -3   7   33.52    1.59
   0   3  -7   33.50    1.68
   0   3   7   33.77    1.73
   0   3  -7   31.86    1.66
   1  -3   7   11.78    0.66
  -1  -3  -7   11.91    0.77
   1  -3   7   11.58    0.62
  -1   3  -7   11.34    0.72
   1   3   7   11.22    0.77
  -1   3  -7   10.90    0.69
  -2  -3  -7   43.13    2.57
   2  -3   7   43.06    2.13
  -2  -3  -7   44.35    2.22
   2   3   7   43.15    2.22
  -2   3  -7   42.87    2.16
  -2   3  -7   45.07    2.49
   3  -3   7   24.18    1.33
  -3  -3  -7   22.97    1.56
  -3  -3  -7   24.97    1.43
  -3   3  -7   26.62    1.37
   3   3   7   26.80    1.44
  -4  -3  -7   39.94    2.20
   4  -3   7   40.98    2.11
   4   3   7   42.79    2.22
  -4   3  -7   42.34    2.16
   5  -3   7    1.29    0.37
  -5  -3  -7    1.30    0.43
  -5   3  -7    1.32    0.41
  -6  -3  -7   25.83    1.61
  -6   3  -7   24.52    1.54
  -7  -4   7    5.37    0.66
   7   4  -7    5.34    0.72
  -7   4   7    5.06    0.67
   6  -4  -7    8.45    0.69
  -6  -4   7    8.20    0.70
   6   4  -7    7.04    0.73
  -6   4   7    7.15    0.71
  -5  -4   7    2.13    0.36
   5  -4  -7    1.23    0.32
   5   4  -7    1.65    0.40
  -5   4   7    1.30    0.37
   4  -4  -7   21.73    1.17
  -4  -4   7   22.53    1.17
   4   4  -7   19.88    1.20
  -4   4   7   20.52    1.24
  -3  -4   7   12.74    0.79
   3  -4  -7   12.87    0.82
   3   4  -7   16.11    0.88
  -3   4   7   17.00    0.94
  -2  -4   7   14.28    0.74
  -2  -4   7   15.29    0.76
   2  -4  -7   14.69    0.82
   2   4  -7   13.23    0.83
  -2   4   7   12.94    0.88
   1  -4  -7    2.18    0.31
  -1   4   7    2.77    0.41
   1   4  -7    2.79    0.34
   1   4  -7    2.72    0.35
   0  -4  -7   91.48    4.34
   0   4  -7   92.64    4.31
   0   4   7   91.94    4.39
   0   4  -7   91.19    4.31
  -1  -4  -7   64.23    3.00
  -1   4  -7   61.40    2.93
   1   4   7   60.08    3.01
  -1   4  -7   58.84    2.92
  -2  -4  -7    5.21    0.64
  -2  -4  -7    5.45    0.58
   2   4   7    7.56    0.62
  -2   4  -7    7.49    0.52
  -3  -4  -7    0.77    0.34
  -3  -4  -7    0.81    0.32
   3  -4   7    1.06    0.22
  -3   4  -7    0.69    0.26
   3   4   7    0.56    0.33
  -4  -4  -7    8.04    0.76
  -4   4  -7    9.47    0.72
   4   4   7    9.31    0.80
  -5  -4  -7   35.08    1.98
  -5   4  -7   34.78    1.93
  -6  -4  -7    8.56    0.86
  -6   4  -7    8.31    0.84
  -6   5   7   13.91    1.02
   6   5  -7   13.51    1.04
   5   5  -7   14.87    1.02
  -5   5   7   16.16    1.06
   4  -5  -7    0.51    0.23
   4   5  -7    1.07    0.33
  -4   5   7    1.07    0.34
   3  -5  -7    3.12    0.36
  -3   5   7    3.59    0.49
   3   5  -7    2.64    0.43
   2  -5  -7    3.21    0.35
   2   5  -7    4.38    0.42
  -2   5   7    4.21    0.48
   1  -5  -7   52.41    2.49
   1   5  -7   52.91    2.50
   1   5  -7   50.83    2.51
  -1   5   7   51.49    2.62
   0  -5  -7   37.30    1.87
   0   5  -7   37.68    1.86
   0   5   7   38.03    1.96
   0   5  -7   36.79    1.85
  -1  -5  -7   20.14    1.42
  -1  -5  -7   19.71    1.12
  -1   5  -7   19.02    1.07
   1   5   7   20.98    1.20
  -1   5  -7   19.57    1.06
  -2  -5  -7   25.58    1.75
  -2  -5  -7   26.15    1.45
  -2   5  -7   26.69    1.37
   2   5   7   26.03    1.48
  -3  -5  -7   17.99    1.17
  -3   5  -7   19.46    1.10
   3   5   7   18.99    1.22
  -4  -5  -7    9.99    0.80
   4   5   7    8.72    0.83
  -4   5  -7   10.12    0.75
  -5  -5  -7    2.55    0.54
  -5   5  -7    1.86    0.45
   5   5   7    1.69    0.52
  -6   6   7   10.13    0.87
   6   6  -7    9.52    0.86
   5   6  -7    0.84    0.37
  -5   6   7    0.39    0.37
   4   6  -7    9.77    0.76
  -4   6   7   10.21    0.79
   3   6  -7    1.87    0.35
  -3   6   7    2.19    0.41
   2   6  -7   16.32    0.94
  -2   6   7   16.05    1.04
  -1   6   7    0.24    0.30
   1   6  -7    0.18    0.21
   0  -6  -7   30.30    1.99
   0   6   7   28.41    1.58
   0   6  -7   27.08    1.44
  -1  -6  -7   65.30    3.09
  -1  -6  -7   62.85    3.87
   1   6   7   64.14    3.21
  -1   6  -7   64.94    3.06
  -2  -6  -7    3.24    0.69
  -2  -6  -7    3.87    0.48
   2   6   7    5.96    0.62
  -2   6  -7    6.13    0.49
   3   6   7   -0.26    0.37
  -3   6  -7   -0.03    0.24
   4   6   7    4.14    0.66
  -4   6  -7    3.82    0.53
   5   7  -7    6.20    0.70
  -5   7   7    6.24    0.69
  -4   7   7    5.15    0.61
   4   7  -7    5.31    0.60
  -3   7   7    4.41    0.59
   3   7  -7    3.99    0.49
   2   7  -7    9.37    0.65
  -2   7   7    8.55    0.76
   1  -7  -7   31.31    2.09
  -1   7   7   28.08    1.63
   1   7  -7   28.41    1.47
   0  -7  -7    7.80    0.91
   0   7   7    7.81    0.73
  -1  -7  -7    4.87    0.79
   1   7   7    5.55    0.65
  -2  -7  -7    7.44    0.93
   2   7   7    6.45    0.74
   3   7   7   12.85    1.00
   3  -8  -7    2.07    0.73
   2  -8  -7   14.52    1.34
  -2   8   7   13.81    1.00
   1  -8  -7    0.03    0.48
  -1   8   7    0.17    0.37
   0  -8  -7   12.53    1.25
   0   8   7   12.24    0.95
  -1  -8  -7   32.61    2.41
   1   8   7   35.83    1.94
   2   8   7    5.00    0.71
  -8   0   8    0.26    0.40
   8   0  -8    0.50    0.45
  -7   0   8    1.52    0.44
   7   0  -8    1.43    0.45
   6   0  -8    0.48    0.35
  -6   0   8    0.42    0.32
   5   0  -8   11.43    0.80
  -5   0   8   11.28    0.80
   4   0  -8   94.98    4.49
  -4   0   8   92.16    4.47
  -3   0   8    5.26    0.51
   3   0  -8    6.24    0.52
  -2   0   8   93.40    4.42
   2   0  -8   92.65    4.41
   1   0  -8   48.28    2.45
  -1   0   8   50.80    2.45
   0   0  -8   60.40    3.03
   0   0   8   64.12    3.04
  -1   0  -8   10.97    0.73
   1   0   8   10.61    0.73
  -2   0  -8   43.99    2.24
   2   0   8   44.68    2.25
   3   0   8  139.77    6.69
  -3   0  -8  144.68    6.72
  -4   0  -8   13.52    0.95
   4   0   8   13.78    0.95
   5   0   8    6.90    0.71
  -5   0  -8    5.77    0.67
  -6   0  -8    9.92    0.91
   6   0   8    9.93    0.91
   8  -1  -8   12.49    1.03
  -8  -1   8   11.40    1.00
  -8   1   8   12.79    1.04
   8   1  -8   12.72    1.06
   7  -1  -8   28.33    1.67
  -7  -1   8   27.11    1.66
  -7   1   8   27.56    1.67
   7   1  -8   31.08    1.70
  -6  -1   8    0.27    0.31
   6  -1  -8   -0.01    0.30
  -6   1   8    0.04    0.28
   6   1  -8    0.05    0.32
  -5  -1   8    4.74    0.53
   5  -1  -8    4.91    0.53
   5   1  -8    4.41    0.53
  -5   1   8    4.78    0.51
  -4  -1   8   24.91    1.40
   4  -1  -8   25.75    1.42
   4   1  -8   25.12    1.41
  -4   1   8   26.94    1.43
   3  -1  -8   78.24    3.65
  -3  -1   8   76.60    3.63
  -3   1   8   70.98    3.64
   3   1  -8   76.78    3.65
  -2  -1   8   22.82    1.18
   2  -1  -8   23.43    1.20
  -2   1   8   19.49    1.19
   2   1  -8   20.42    1.18
   1  -1  -8   30.70    1.63
  -1  -1   8   33.12    1.62
  -1   1   8   30.28    1.65
   1   1  -8   31.45    1.63
   0  -1   8   61.96    3.02
   0  -1  -8   62.87    3.05
   0   1   8   62.58    3.05
   0   1  -8   62.19    3.04
   1  -1   8   24.96    1.33
  -1  -1  -8   26.24    1.36
   1   1   8   23.57    1.33
  -1   1  -8   23.27    1.32
  -2  -1  -8   55.09    2.71
   2  -1   8   52.77    2.67
  -2   1  -8   54.07    2.68
   2   1   8   54.52    2.70
  -3  -1  -8    3.38    0.33
   3  -1   8    4.22    0.48
  -3  -1  -8    3.51    0.48
  -3   1  -8    3.27    0.45
   3   1   8    2.42    0.43
  -4  -1  -8   23.47    1.38
   4  -1   8   21.85    1.32
  -4   1  -8   21.47    1.32
   4   1   8   23.35    1.36
  -5  -1  -8   13.45    0.99
   5  -1   8   14.02    0.99
   5   1   8   11.60    0.96
  -5   1  -8   12.19    0.96
  -6  -1  -8    1.36    0.47
   6  -1   8    0.96    0.45
  -6   1  -8    1.69    0.49
   6   1   8    1.67    0.50
  -8  -2   8    0.36    0.41
   8  -2  -8    0.24    0.42
   8   2  -8    0.37    0.47
  -8   2   8    0.27    0.41
   7  -2  -8   16.01    1.08
  -7  -2   8   15.13    1.06
   7   2  -8   14.13    1.09
  -7   2   8   14.49    1.07
  -6  -2   8    3.19    0.48
   6  -2  -8    2.67    0.47
  -6   2   8    1.81    0.43
   6   2  -8    1.74    0.44
   5  -2  -8   15.21    0.89
  -5  -2   8   14.04    0.88
   5   2  -8   10.25    0.85
  -5   2   8   11.51    0.88
  -4  -2   8   63.30    3.19
   4  -2  -8   63.41    3.20
   4   2  -8   69.86    3.25
  -4   2   8   66.83    3.25
  -3  -2   8    4.35    0.42
   3  -2  -8    4.10    0.45
   3   2  -8    5.75    0.50
  -3   2   8    5.25    0.51
   2  -2  -8   87.24    4.09
  -2  -2   8   83.73    4.04
  -2   2   8   85.75    4.12
   2   2  -8   86.27    4.09
   1  -2  -8   57.71    2.84
  -1  -2   8   56.45    2.78
   1   2  -8   58.17    2.83
  -1   2   8   60.12    2.87
   0  -2   8   19.89    1.19
   0  -2  -8   20.65    1.25
   0   2   8   25.80    1.30
   0   2  -8   25.54    1.26
   1  -2   8    0.59    0.22
  -1  -2  -8    0.48    0.25
   1   2   8    0.12    0.22
  -1   2  -8    0.21    0.20
   2  -2   8   26.79    1.45
  -2  -2  -8   27.07    1.51
  -2   2  -8   27.47    1.58
  -2   2  -8   28.13    1.48
   2   2   8   27.88    1.51
   3  -2   8  124.66    5.81
  -3  -2  -8  126.35    6.79
  -3  -2  -8  121.10    5.86
  -3   2  -8  122.86    5.83
   3   2   8  120.54    5.86
   4   2   8    4.45    0.59
  -4   2  -8    4.05    0.53
  -5  -2  -8    9.65    0.85
   5  -2   8    9.08    0.78
   5   2   8    8.56    0.83
  -5   2  -8    9.17    0.80
  -6  -2  -8    8.31    0.86
   6  -2   8    8.73    0.84
   6   2   8    8.58    0.83
  -6   2  -8    8.37    0.83
  -7  -3   8    9.22    0.84
   7  -3  -8    9.86    0.85
   7   3  -8   11.45    0.94
  -7   3   8   11.78    0.94
  -6  -3   8    1.98    0.40
   6  -3  -8    2.43    0.43
  -6   3   8    1.38    0.41
   6   3  -8    1.34    0.43
  -5  -3   8    0.23    0.28
   5  -3  -8    0.27    0.29
   5   3  -8    0.77    0.33
  -5   3   8    0.08    0.30
  -4  -3   8   38.98    1.93
   4  -3  -8   38.76    1.94
  -4   3   8   36.65    1.99
   4   3  -8   36.34    1.97
  -3  -3   8   69.26    3.25
   3  -3  -8   70.97    3.28
  -3   3   8   65.04    3.33
   3   3  -8   66.49    3.30
   2  -3  -8   13.87    0.85
  -2  -3   8   14.08    0.80
   2   3  -8   14.37    0.87
  -2   3   8   15.40    0.93
   1  -3  -8   19.46    1.10
  -1  -3   8   19.35    1.01
   1   3  -8   19.80    1.10
  -1   3   8   19.55    1.15
   0  -3   8   43.21    2.06
   0  -3  -8   43.05    2.17
   0   3  -8   44.09    2.15
   0   3   8   41.72    2.20
   1  -3   8   42.43    2.18
  -1  -3  -8   44.30    2.29
   1   3   8   46.01    2.30
  -1   3  -8   47.80    2.25
  -2  -3  -8   28.43    1.77
   2  -3   8   27.42    1.45
  -2  -3  -8   29.50    1.57
  -2   3  -8   27.74    1.66
  -2   3  -8   28.80    1.50
   2   3   8   26.81    1.55
  -3  -3  -8   11.02    0.80
   3  -3   8   10.07    0.69
  -3  -3  -8   10.41    0.82
   3   3   8    8.96    0.78
  -3   3  -8    9.00    0.71
   4  -3   8   34.50    1.72
  -4  -3  -8   33.50    1.82
  -4   3  -8   31.28    1.75
   4   3   8   28.25    1.76
   5  -3   8   13.61    0.96
  -5  -3  -8   13.12    1.02
  -5   3  -8   13.27    0.97
   5   3   8   11.99    1.00
  -6  -3  -8    1.75    0.53
   6   3   8    1.68    0.54
  -6   3  -8    1.37    0.46
  -7  -4   8   13.80    1.01
   7  -4  -8   15.97    1.04
  -7   4   8   13.43    1.08
   7   4  -8   13.77    1.10
  -6  -4   8    6.14    0.63
   6  -4  -8    5.56    0.62
  -6   4   8    6.85    0.69
   6   4  -8    6.17    0.70
  -5  -4   8   16.79    1.01
   5  -4  -8   16.47    1.01
   5   4  -8   16.56    1.09
  -5   4   8   15.52    1.07
   4  -4  -8   14.50    0.92
  -4  -4   8   14.77    0.90
   4   4  -8   15.79    0.98
  -4   4   8   16.60    1.02
   3  -4  -8    2.42    0.36
  -3  -4   8    1.95    0.30
  -3   4   8    2.79    0.45
   3   4  -8    2.77    0.42
  -2  -4   8   71.74    3.37
   2  -4  -8   72.92    3.45
  -2   4   8   70.86    3.54
   2   4  -8   73.58    3.48
  -1  -4   8   30.04    1.42
  -1  -4   8   30.48    1.42
   1  -4  -8   29.91    1.56
   1   4  -8   29.23    1.56
  -1   4   8   30.97    1.66
   0   4   8    1.94    0.37
   0   4  -8    2.20    0.34
  -1  -4  -8    1.45    0.33
   1   4   8    1.89    0.38
  -1   4  -8    1.62    0.29
  -2  -4  -8   33.36    1.83
  -2  -4  -8   32.03    2.12
   2  -4   8   32.19    1.63
  -2   4  -8   36.39    1.77
   2   4   8   36.69    1.86
  -3  -4  -8   68.31    3.95
  -3  -4  -8   66.89    3.39
  -3   4  -8   68.57    3.33
   3   4   8   68.08    3.41
  -4  -4  -8    7.79    0.76
   4   4   8    7.08    0.75
  -4   4  -8    6.29    0.65
  -5  -4  -8   10.92    0.91
  -5   4  -8   10.04    0.85
   5   4   8    8.30    0.84
   6   5  -8    3.23    0.58
  -6   5   8    2.59    0.53
   5   5  -8    0.68    0.39
  -5   5   8    0.32    0.36
   4  -5  -8   11.41    0.76
  -4   5   8   12.62    0.89
   4   5  -8   12.68    0.86
   3  -5  -8   53.07    2.41
  -3   5   8   48.31    2.53
   3   5  -8   46.12    2.45
   2  -5  -8   14.75    0.87
   2   5  -8   15.60    0.93
  -2   5   8   16.23    1.02
   1  -5  -8   15.27    0.87
   1   5  -8   14.60    0.87
  -1   5   8   14.99    1.01
   1   5  -8   14.70    0.88
   0  -5  -8   30.41    1.58
   0   5   8   30.48    1.68
   0   5  -8   30.01    1.56
  -1  -5  -8   25.81    1.89
  -1  -5  -8   24.72    1.51
   1   5   8   32.27    1.62
  -1   5  -8   31.18    1.50
  -2  -5  -8   15.83    1.23
  -2  -5  -8   15.43    1.00
  -2   5  -8   15.77    0.94
   2   5   8   15.09    1.04
  -3  -5  -8    4.48    0.64
  -3  -5  -8    4.66    0.61
  -3   5  -8    3.97    0.51
   3   5   8    4.13    0.60
  -4  -5  -8   19.17    1.29
   4   5   8   20.04    1.33
  -4   5  -8   20.21    1.22
  -5  -5  -8   10.48    0.95
  -5   5  -8   10.50    0.88
   5   5   8   10.40    0.97
  -5   6   8    7.41    0.74
   5   6  -8    7.35    0.73
   4   6  -8   10.86    0.83
  -4   6   8   11.72    0.89
   3   6  -8    1.32    0.35
  -3   6   8    1.38    0.40
   2   6  -8   29.05    1.50
  -2   6   8   27.79    1.60
  -1   6   8   24.14    1.44
   1   6  -8   24.12    1.29
   0   6  -8    2.26    0.38
   0   6   8    1.75    0.42
  -1  -6  -8    5.28    0.78
  -1  -6  -8    5.00    0.50
  -1   6  -8    6.18    0.51
   1   6   8    6.15    0.64
  -2  -6  -8   10.26    0.79
  -2  -6  -8   11.32    1.07
   2   6   8   11.29    0.89
  -2   6  -8   11.42    0.74
  -3   6  -8   27.23    1.45
   3   6   8   25.00    1.57
   4   6   8    8.62    0.87
  -4   6  -8    7.87    0.74
  -4   7   8    3.82    0.59
   4   7  -8    3.76    0.57
   3   7  -8   28.64    1.58
  -3   7   8   30.54    1.69
   2   7  -8    4.36    0.47
  -2   7   8    4.64    0.60
  -1   7   8    1.68    0.45
   1   7  -8    1.82    0.32
   0  -7  -8   13.80    1.29
   0   7   8   14.64    1.04
  -1  -7  -8   11.26    1.14
  -2  -7  -8   10.40    1.05
   2   7   8    9.26    0.90
   3   7   8    0.93    0.50
   2  -8  -8   11.23    1.23
  -2   8   8   10.44    0.91
   1  -8  -8    7.45    1.03
  -1   8   8    7.62    0.78
   0  -8  -8    0.12    0.55
   0   8   8    0.35    0.42
  -1  -8  -8    4.56    0.83
   1   8   8    3.95    0.68
   8   0  -9    0.24    0.44
  -8   0   9    0.38    0.42
   7   0  -9    9.72    0.82
  -7   0   9    9.32    0.84
   6   0  -9    6.76    0.69
  -6   0   9    6.76    0.69
  -5   0   9    8.91    0.70
   5   0  -9    8.48    0.73
  -4   0   9   40.62    2.11
   4   0  -9   40.52    2.11
   3   0  -9    4.26    0.47
  -3   0   9    4.60    0.48
  -2   0   9    3.85    0.46
   2   0  -9    4.41    0.46
   1   0  -9    3.47    0.42
  -1   0   9    3.31    0.43
   0   0  -9   60.25    3.04
   0   0   9   63.31    3.04
   1   0   9  115.11    5.44
  -1   0  -9  114.49    5.44
   2   0   9    7.71    0.65
  -2   0  -9    7.92    0.63
  -3   0  -9   -0.02    0.27
   3   0   9    0.29    0.28
  -4   0  -9   17.70    1.19
   4   0   9   19.23    1.20
  -5   0  -9   22.56    1.43
   5   0   9   23.05    1.43
  -6   0  -9    5.99    0.71
   6   0   9    6.22    0.77
  -8  -1   9    0.83    0.46
   8  -1  -9    0.31    0.45
  -8   1   9    1.41    0.49
   8   1  -9    1.09    0.51
   7  -1  -9    6.33    0.72
  -7  -1   9    7.74    0.75
   7   1  -9    7.77    0.78
  -7   1   9    7.06    0.71
  -6  -1   9   10.09    0.80
   6  -1  -9   10.31    0.84
  -6   1   9   11.06    0.87
  -5  -1   9   40.90    2.16
   5  -1  -9   40.37    2.16
  -5   1   9   42.97    2.20
   5   1  -9   41.66    2.20
  -4  -1   9    7.92    0.59
   4  -1  -9    8.53    0.63
   4   1  -9    6.36    0.61
  -4   1   9    5.76    0.58
  -3  -1   9   26.93    1.41
   3  -1  -9   26.91    1.42
   3   1  -9   24.97    1.40
  -3   1   9   24.21    1.42
  -2  -1   9   32.16    1.72
   2  -1  -9   32.53    1.74
   2   1  -9   34.89    1.77
  -2   1   9   34.26    1.78
   1  -1  -9   63.68    3.27
  -1  -1   9   64.26    3.26
  -1   1   9   72.76    3.33
   1   1  -9   69.28    3.29
   0  -1  -9   67.95    3.29
   0  -1   9   68.09    3.26
   0   1  -9   67.25    3.28
   0   1   9   64.98    3.29
   1  -1   9   49.46    2.48
  -1  -1  -9   49.97    2.51
   1   1   9   49.37    2.49
  -1   1  -9   48.92    2.47
   2  -1   9   64.62    3.12
  -2  -1  -9   63.41    3.15
   2   1   9   61.16    3.13
  -2   1  -9   64.31    3.13
  -3  -1  -9   14.46    0.99
   3  -1   9   14.48    0.96
  -3  -1  -9   14.61    0.90
  -4  -1  -9    1.83    0.44
   4  -1   9    1.36    0.42
   4   1   9    1.98    0.43
  -4   1  -9    1.94    0.43
   5  -1   9    0.03    0.39
  -5  -1  -9    0.15    0.37
   5   1   9    0.57    0.41
  -5   1  -9    0.29    0.37
  -6  -1  -9   14.71    1.16
   6  -1   9   14.89    1.14
  -6   1  -9   15.16    1.15
   6   1   9   14.78    1.16
   7  -2  -9   19.87    1.22
  -7  -2   9   19.20    1.21
  -7   2   9   16.18    1.20
   7   2  -9   14.78    1.19
   6  -2  -9   11.57    0.89
  -6  -2   9   11.85    0.89
  -6   2   9   12.12    0.94
   6   2  -9   12.91    0.95
   5  -2  -9    8.12    0.67
  -5  -2   9    7.89    0.66
   5   2  -9    7.68    0.71
  -5   2   9    8.08    0.72
  -4  -2   9   36.22    1.91
   4  -2  -9   36.39    1.92
   4   2  -9   36.53    1.94
  -4   2   9   37.46    1.97
  -3  -2   9    9.68    0.64
   3  -2  -9    9.03    0.65
  -3   2   9    8.25    0.68
   3   2  -9    8.92    0.67
  -2  -2   9    2.29    0.36
   2  -2  -9    2.76    0.38
   2   2  -9    2.18    0.38
  -2   2   9    1.58    0.33
   1  -2  -9   16.09    0.97
  -1  -2   9   16.53    0.91
   1   2  -9   14.82    0.94
  -1   2   9   15.19    0.97
   0  -2  -9   84.51    3.78
   0  -2   9   77.88    3.69
   0   2  -9   71.30    3.72
   0   2   9   75.98    3.77
  -1  -2  -9   89.90    4.46
   1  -2   9   91.26    4.41
   1   2   9   95.75    4.48
  -1   2  -9   94.25    4.43
   2  -2   9    0.85    0.29
  -2  -2  -9    0.84    0.31
  -2   2  -9    0.23    0.24
   2   2   9   -0.06    0.27
  -3  -2  -9    0.18    0.28
  -3  -2  -9    0.25    0.22
   3  -2   9    0.21    0.28
   3   2   9    0.77    0.32
  -3   2  -9    0.65    0.30
   4  -2   9    9.33    0.81
  -4  -2  -9    8.63    0.80
  -4   2  -9   12.09    0.85
   4   2   9   12.22    0.90
   5  -2   9   15.95    1.11
  -5  -2  -9   15.98    1.16
   5   2   9   15.74    1.16
  -5   2  -9   15.65    1.13
  -6  -2  -9    9.14    0.88
   6  -2   9    9.48    0.91
   6   2   9    8.72    0.91
  -6   2  -9    8.19    0.87
  -7  -3   9    1.32    0.43
   7  -3  -9    1.08    0.42
  -7   3   9    1.41    0.48
   7   3  -9    1.91    0.51
   6  -3  -9   13.99    0.96
  -6  -3   9   14.09    0.99
  -6   3   9   13.98    1.02
   6   3  -9   13.21    1.02
   5  -3  -9   24.83    1.45
  -5  -3   9   24.39    1.44
  -5   3   9   28.28    1.54
   5   3  -9   26.81    1.52
  -4  -3   9    3.34    0.42
   4  -3  -9    3.01    0.42
   4   3  -9    2.54    0.45
  -4   3   9    2.19    0.43
   3  -3  -9   17.34    1.05
  -3  -3   9   17.77    1.01
   3   3  -9   17.64    1.07
  -3   3   9   18.16    1.11
   2  -3  -9   20.19    1.20
  -2  -3   9   20.26    1.14
  -2   3   9   23.46    1.29
   2   3  -9   22.90    1.23
   1  -3  -9   64.30    3.09
  -1  -3   9   62.24    2.99
  -1   3   9   63.84    3.14
   1   3  -9   61.21    3.07
   0  -3   9   47.62    2.32
   0  -3  -9   48.81    2.44
   0   3   9   47.99    2.47
   0   3  -9   48.39    2.41
   1  -3   9   23.29    1.24
  -1  -3  -9   23.71    1.36
  -1   3  -9   24.02    1.30
   1   3   9   23.20    1.37
   2  -3   9   65.66    3.12
  -2  -3  -9   63.76    3.23
  -2   3  -9   64.55    3.16
   2   3   9   63.97    3.23
   3  -3   9   28.95    1.47
  -3  -3  -9   30.24    1.71
  -3  -3  -9   30.68    1.59
   3   3   9   21.74    1.52
  -3   3  -9   22.61    1.47
  -4  -3  -9    1.19    0.43
   4  -3   9    1.78    0.41
  -4   3  -9    1.77    0.42
   4   3   9    1.41    0.45
  -5  -3  -9    1.43    0.47
  -5   3  -9    2.09    0.49
   5   3   9    1.60    0.52
  -7  -4   9   24.55    1.47
   7  -4  -9   23.87    1.45
  -7   4   9   24.05    1.54
   7   4  -9   22.48    1.52
   6  -4  -9    5.72    0.62
  -6  -4   9    5.29    0.58
  -6   4   9    5.65    0.67
   6   4  -9    4.85    0.67
   5  -4  -9    6.43    0.61
  -5  -4   9    7.10    0.60
   5   4  -9    5.57    0.63
  -5   4   9    5.73    0.65
   4  -4  -9   29.01    1.47
  -4  -4   9   29.86    1.44
   4   4  -9   23.57    1.49
  -4   4   9   23.88    1.51
   3  -4  -9   13.23    0.79
  -3  -4   9   13.03    0.74
  -3   4   9   11.30    0.88
   3   4  -9   11.15    0.83
  -2  -4   9    1.00    0.19
   2  -4  -9    0.98    0.26
   2   4  -9    0.58    0.27
  -2   4   9    0.49    0.31
   1  -4  -9    3.50    0.44
  -1  -4   9    3.05    0.28
   1   4  -9    3.53    0.43
  -1   4   9    4.63    0.53
   0  -4  -9  105.61    5.20
   0  -4   9  107.22    5.02
   0  -4   9  104.75    5.02
   0   4  -9  113.01    5.18
   0   4   9  118.26    5.28
   1  -4   9   45.92    2.19
  -1  -4  -9   47.31    2.40
  -1   4  -9   45.37    2.33
   1   4   9   48.48    2.44
  -2  -4  -9    1.01    0.36
  -2  -4  -9    1.26    0.42
  -2   4  -9    1.76    0.34
   2   4   9    1.99    0.44
  -3  -4  -9    0.65    0.38
  -3  -4  -9    0.59    0.36
   3   4   9    0.25    0.36
  -3   4  -9    0.19    0.29
  -4  -4  -9    3.25    0.58
   4   4   9    3.75    0.59
  -4   4  -9    4.40    0.58
  -5  -4  -9   11.58    1.00
  -5   4  -9   10.43    0.89
   5   4   9   10.09    0.97
  -6   5   9    4.98    0.69
   6   5  -9    4.60    0.66
   5   5  -9   12.62    0.95
  -5   5   9   13.26    0.98
   4  -5  -9    3.63    0.45
  -4   5   9    3.89    0.60
   4   5  -9    3.45    0.50
   3  -5  -9   18.02    1.05
   3   5  -9   18.84    1.12
  -3   5   9   18.17    1.19
   2  -5  -9   11.55    0.79
  -2   5   9   13.03    0.94
   2   5  -9   13.80    0.85
   1  -5  -9   27.16    1.47
  -1   5   9   28.24    1.60
   1   5  -9   27.97    1.50
   0  -5  -9   39.03    1.95
   0   5  -9   36.69    1.93
   0   5   9   37.43    2.04
  -1  -5  -9   10.12    0.74
   1   5   9    8.97    0.77
  -1   5  -9    8.50    0.66
  -2  -5  -9   37.82    2.47
  -2  -5  -9   38.93    2.08
   2   5   9   40.42    2.14
  -2   5  -9   38.45    2.00
  -3  -5  -9   26.03    1.79
  -3  -5  -9   26.67    1.55
  -3   5  -9   26.42    1.47
   3   5   9   24.84    1.57
  -4  -5  -9    0.19    0.38
  -4   5  -9    0.48    0.34
   4   5   9    0.63    0.45
   5   6  -9    6.53    0.73
  -5   6   9    6.65    0.75
  -4   6   9   15.04    1.08
   4   6  -9   15.26    1.01
  -3   6   9   14.24    1.04
   3   6  -9   14.77    0.95
   2   6  -9    2.02    0.37
  -2   6   9    1.83    0.45
  -1   6   9    5.07    0.62
   1   6  -9    5.24    0.51
   0   6   9   38.11    2.12
   0   6  -9   39.34    1.98
  -1  -6  -9   16.95    1.38
  -1  -6  -9   17.95    1.05
   1   6   9   16.41    1.16
  -1   6  -9   15.84    1.01
  -2  -6  -9    3.87    0.69
   2   6   9    5.50    0.72
  -2   6  -9    6.18    0.57
   3   6   9    1.94    0.54
  -3   6  -9    1.50    0.38
  -4   6  -9    2.52    0.48
   4   6   9    1.94    0.57
  -4   7   9    0.93    0.43
   4   7  -9    0.87    0.39
  -3   7   9    4.92    0.67
   3   7  -9    5.06    0.58
   2   7  -9    4.83    0.54
  -2   7   9    4.88    0.66
  -1   7   9   16.21    1.17
   1   7  -9   17.68    1.03
   0  -7  -9   17.90    1.49
   0   7   9   17.41    1.23
  -1  -7  -9   11.69    1.16
   1   7   9    9.80    0.89
  -2  -7  -9   21.81    1.69
   2   7   9   20.10    1.38
   2  -8  -9    0.18    0.58
   1  -8  -9    0.48    0.61
  -1   8   9    1.12    0.50
   0  -8  -9    8.48    1.14
   0   8   9   10.57    0.94
  -7   0  10   11.95    0.98
   7   0 -10   12.31    0.96
  -6   0  10   15.57    1.06
   6   0 -10   13.30    1.03
  -5   0  10    3.51    0.52
   5   0 -10    3.31    0.48
  -4   0  10    6.06    0.60
   4   0 -10    6.28    0.61
   3   0 -10    1.53    0.34
  -3   0  10    1.09    0.32
   2   0 -10   85.46    4.12
  -2   0  10   84.96    4.12
   1   0 -10   49.29    2.54
  -1   0  10   51.19    2.54
   0   0 -10   17.28    1.08
   0   0  10   18.14    1.07
   1   0  10    0.80    0.31
  -1   0 -10    0.56    0.28
   2   0  10   16.13    1.06
  -2   0 -10   17.18    1.08
   3   0  10   54.35    2.80
  -3   0 -10   54.92    2.81
   4   0  10    5.33    0.66
  -4   0 -10    4.63    0.62
   5   0  10   22.61    1.44
  -5   0 -10   21.82    1.43
   6   0  10   11.12    1.00
  -6   0 -10   10.75    1.01
   7  -1 -10    8.55    0.82
  -7  -1  10    8.30    0.81
   7   1 -10    8.21    0.83
  -7   1  10    8.28    0.82
  -6  -1  10    1.27    0.40
   6  -1 -10    1.15    0.40
   6   1 -10    1.12    0.41
  -6   1  10    0.91    0.40
   5  -1 -10    6.35    0.65
  -5  -1  10    6.53    0.65
   5   1 -10    6.42    0.63
  -5   1  10    7.44    0.69
  -4  -1  10    6.91    0.61
   4  -1 -10    6.33    0.61
   4   1 -10    6.80    0.64
  -4   1  10    5.93    0.59
  -3  -1  10   63.09    3.09
   3  -1 -10   62.32    3.10
  -3   1  10   60.86    3.10
   3   1 -10   63.78    3.11
   2  -1 -10    6.50    0.56
  -2  -1  10    7.12    0.57
   2   1 -10    5.86    0.57
  -2   1  10    5.76    0.59
  -1  -1  10   35.67    1.86
   1  -1 -10   36.01    1.87
  -1   1  10   37.36    1.91
   1   1 -10   33.46    1.87
   0  -1  10   44.22    2.39
   0  -1 -10   46.20    2.43
   0   1  10   50.00    2.45
   0   1 -10   50.03    2.43
  -1   1 -10    3.21    0.45
   1   1  10    3.42    0.50
  -2  -1 -10   19.17    1.18
   2  -1  10   19.07    1.15
  -2   1 -10   18.46    1.15
   2   1  10   18.62    1.16
   3  -1  10    8.03    0.73
  -3  -1 -10    8.16    0.74
  -3  -1 -10    8.80    0.63
   3   1  10   10.13    0.80
  -3   1 -10    9.75    0.77
   4  -1  10   51.77    2.68
  -4  -1 -10   49.91    2.71
  -4   1 -10   51.31    2.71
   4   1  10   53.75    2.74
  -5  -1 -10   19.82    1.35
   5  -1  10   18.53    1.30
  -5   1 -10   20.16    1.33
   5   1  10   20.55    1.36
  -6  -1 -10    0.08    0.43
   6  -1  10    0.04    0.48
  -6   1 -10   -0.04    0.41
   6   1  10   -0.11    0.45
  -7  -2  10    5.98    0.70
   7  -2 -10    6.50    0.71
   7   2 -10    6.34    0.76
  -7   2  10    7.16    0.78
   6  -2 -10   13.39    0.98
  -6  -2  10   13.82    0.98
  -6   2  10   14.37    1.03
   6   2 -10   12.88    0.99
   5  -2 -10    6.69    0.63
  -5  -2  10    6.38    0.61
  -5   2  10    5.58    0.61
   5   2 -10    5.59    0.64
   4  -2 -10    4.87    0.53
  -4  -2  10    5.07    0.52
  -4   2  10    4.18    0.55
   4   2 -10    4.71    0.56
   3  -2 -10    2.29    0.42
  -3  -2  10    2.99    0.43
  -3   2  10    3.01    0.45
   3   2 -10    3.29    0.46
   2  -2 -10   68.61    3.36
  -2  -2  10   69.62    3.31
  -2   2  10   66.97    3.39
   2   2 -10   68.40    3.36
   1  -2 -10   61.82    2.96
  -1  -2  10   57.98    2.88
   1   2 -10   58.91    2.93
  -1   2  10   57.69    2.97
   0  -2 -10    3.23    0.46
   0  -2  10    3.49    0.42
   0   2 -10    2.07    0.37
   0   2  10    1.83    0.39
   1  -2  10    3.57    0.43
  -1  -2 -10    3.37    0.51
   1   2  10    4.29    0.53
  -1   2 -10    4.06    0.47
  -2  -2 -10   23.75    1.34
   2  -2  10   23.10    1.27
  -2   2 -10   20.53    1.26
   2   2  10   19.29    1.29
   3  -2  10   21.81    1.32
  -3  -2 -10   21.45    1.39
  -3  -2 -10   22.32    1.42
   3   2  10   23.63    1.42
  -3   2 -10   25.11    1.38
  -4  -2 -10    3.61    0.59
   4  -2  10    3.66    0.59
   4   2  10    2.74    0.54
  -4   2 -10    3.07    0.55
   5  -2  10   18.27    1.20
  -5  -2 -10   17.22    1.24
   5   2  10   16.56    1.24
  -5   2 -10   16.69    1.20
  -7  -3  10    7.29    0.73
   7  -3 -10    6.67    0.72
  -7   3  10    6.51    0.74
   7   3 -10    6.43    0.79
   6  -3 -10    0.59    0.36
  -6  -3  10    0.70    0.35
   6   3 -10    0.82    0.41
  -6   3  10    0.43    0.38
   5  -3 -10    1.33    0.35
  -5  -3  10    1.12    0.34
   5   3 -10    1.76    0.44
  -5   3  10    1.49    0.43
  -4  -3  10    8.59    0.63
   4  -3 -10    9.16    0.71
   4   3 -10    6.74    0.68
  -4   3  10    7.37    0.72
  -3  -3  10   51.98    2.54
   3  -3 -10   52.22    2.59
  -3   3  10   49.30    2.65
   3   3 -10   52.00    2.61
   2  -3 -10    4.26    0.49
  -2  -3  10    4.48    0.44
   2   3 -10    4.37    0.50
  -2   3  10    3.88    0.54
   1  -3 -10   49.72    2.46
  -1  -3  10   49.42    2.37
  -1   3  10   48.16    2.50
   1   3 -10   46.64    2.45
   0  -3 -10   14.18    0.93
   0  -3  10   13.39    0.82
  -1  -3 -10   17.11    1.01
   1  -3  10   16.78    0.89
   1   3  10   12.22    0.94
  -1   3 -10   11.60    0.88
  -2  -3 -10   18.81    1.20
   2  -3  10   17.74    1.06
  -2   3 -10   18.33    1.12
   2   3  10   19.06    1.21
  -3  -3 -10    5.95    0.64
   3  -3  10    6.57    0.61
  -3  -3 -10    5.97    0.66
  -4  -3 -10   43.16    2.31
   4  -3  10   42.63    2.18
   4   3  10   39.79    2.27
  -4   3 -10   40.30    2.24
  -5  -3 -10   14.47    1.14
   5   3  10   13.47    1.12
  -5   3 -10   14.90    1.08
  -6  -4  10    8.99    0.76
   6  -4 -10    8.98    0.76
   6   4 -10    7.47    0.80
  -6   4  10    8.22    0.82
  -5  -4  10   10.51    0.77
   5  -4 -10   10.92    0.80
   5   4 -10    9.77    0.84
  -5   4  10    9.78    0.86
   4  -4 -10    8.47    0.67
  -4  -4  10    8.33    0.61
  -4   4  10    7.61    0.74
   4   4 -10    6.58    0.67
   3   4 -10    1.13    0.36
  -3   4  10    1.45    0.42
  -2  -4  10   59.85    3.02
   2  -4 -10   63.83    3.14
  -2   4  10   65.48    3.24
   2   4 -10   67.43    3.18
  -1  -4  10   54.76    2.53
   1  -4 -10   54.84    2.68
  -1   4  10   51.85    2.74
   1   4 -10   51.54    2.66
   0  -4 -10    3.56    0.48
   0  -4  10    3.41    0.33
   0   4 -10    4.09    0.48
   0   4  10    4.14    0.57
   1  -4  10    3.09    0.31
  -1  -4 -10    3.20    0.49
   1   4  10    2.33    0.47
  -1   4 -10    2.07    0.38
  -2  -4 -10   30.24    1.62
  -2  -4 -10   29.13    1.81
   2   4  10   24.73    1.58
  -2   4 -10   23.88    1.48
  -3  -4 -10    8.96    0.80
  -3  -4 -10    8.50    0.83
  -3   4 -10    8.39    0.73
   3   4  10    8.02    0.82
  -4  -4 -10    1.80    0.49
  -4   4 -10    2.06    0.46
   4   4  10    1.86    0.53
  -5  -4 -10    8.52    0.87
  -5   4 -10    7.96    0.82
   5   4  10    6.88    0.86
  -6   5  10   -0.08    0.39
   6   5 -10    0.31    0.42
   5   5 -10    2.39    0.48
  -5   5  10    1.60    0.47
   4  -5 -10   12.07    0.82
   4   5 -10   11.82    0.89
  -4   5  10   11.85    0.93
   3  -5 -10   20.96    1.24
  -3   5  10   21.83    1.39
   3   5 -10   22.67    1.30
   2  -5 -10    8.39    0.63
   2   5 -10    8.04    0.67
  -2   5  10    7.48    0.74
   1  -5 -10   30.70    1.55
  -1   5  10   27.78    1.64
   1   5 -10   26.27    1.54
   0   5 -10    4.22    0.53
   0   5  10    5.84    0.65
  -1  -5 -10   14.19    0.99
   1   5  10   15.66    1.10
  -1   5 -10   14.66    0.95
  -2  -5 -10    5.80    0.67
  -2  -5 -10    5.69    0.77
   2   5  10    6.31    0.72
  -2   5 -10    6.78    0.63
  -3  -5 -10   -0.04    0.37
  -3  -5 -10    0.14    0.41
   3   5  10   -0.24    0.39
  -3   5 -10    0.14    0.33
  -4  -5 -10   28.09    1.66
  -4   5 -10   26.23    1.55
   4   5  10   23.05    1.62
  -5   6  10    5.83    0.72
   5   6 -10    6.20    0.69
   4   6 -10   13.38    0.98
  -4   6  10   14.29    1.05
  -3   6  10    1.48    0.45
   3   6 -10    1.51    0.40
  -2   6  10   26.61    1.58
   2   6 -10   25.99    1.47
  -1   6  10   18.99    1.27
   1   6 -10   19.76    1.16
   0   6  10   15.76    1.13
   0   6 -10   15.65    0.99
  -1  -6 -10    6.78    0.89
  -1   6 -10    6.13    0.60
   1   6  10    6.14    0.76
  -2  -6 -10   15.78    1.31
   2   6  10   14.70    1.12
  -2   6 -10   14.37    0.97
  -3  -6 -10   16.67    1.30
  -3   6 -10   13.01    0.98
   3   6  10   13.30    1.16
  -4   7  10    7.18    0.77
   4   7 -10    6.31    0.69
  -3   7  10   12.80    1.02
   3   7 -10   11.84    0.90
   2   7 -10    2.88    0.50
  -2   7  10    2.82    0.57
  -1   7  10   12.48    0.99
   1   7 -10   12.13    0.85
   0  -7 -10    4.56    0.86
   0   7  10    3.18    0.62
  -1  -7 -10    3.26    0.74
   1   7  10    3.93    0.71
  -2  -7 -10    2.33    0.71
   2   7  10    2.29    0.60
  -7   0  11    0.67    0.43
   7   0 -11    0.98    0.46
  -6   0  11    3.75    0.61
   6   0 -11    3.91    0.60
  -5   0  11    5.35    0.62
   5   0 -11    4.72    0.62
   4   0 -11   64.65    3.24
  -4   0  11   64.05    3.23
  -3   0  11    9.82    0.78
   3   0 -11   10.55    0.79
   2   0 -11    5.01    0.55
  -2   0  11    4.24    0.53
   1   0 -11   11.77    0.86
  -1   0  11   12.36    0.86
   0   0 -11   28.87    1.61
   0   0  11   28.94    1.61
  -1   0 -11  131.20    6.18
   1   0  11  127.50    6.16
   2   0  11   -0.08    0.30
  -2   0 -11    0.42    0.31
   3   0  11   18.88    1.21
  -3   0 -11   17.62    1.18
  -4   0 -11   17.71    1.24
   4   0  11   18.99    1.25
   5   0  11    8.67    0.88
  -5   0 -11    8.64    0.87
   7  -1 -11    0.47    0.42
  -7  -1  11    0.34    0.40
   7   1 -11    0.05    0.42
  -7   1  11    0.16    0.41
   6  -1 -11    6.04    0.68
  -6  -1  11    5.85    0.68
   6   1 -11    6.31    0.70
  -6   1  11    6.08    0.70
   5  -1 -11   15.97    1.08
  -5  -1  11   14.92    1.05
  -5   1  11   15.70    1.07
   5   1 -11   15.58    1.09
   4  -1 -11    0.12    0.28
  -4  -1  11    0.39    0.30
   4   1 -11    0.24    0.32
  -4   1  11    0.40    0.32
  -3  -1  11   45.87    2.35
   3  -1 -11   46.18    2.37
  -3   1  11   43.58    2.37
   3   1 -11   46.54    2.38
   2  -1 -11   27.21    1.52
  -2  -1  11   27.33    1.50
   2   1 -11   26.18    1.52
  -2   1  11   27.16    1.53
  -1  -1  11   50.42    2.57
   1  -1 -11   50.45    2.58
  -1   1  11   52.25    2.62
   1   1 -11   49.96    2.59
   0  -1  11   21.17    1.24
   0  -1 -11   20.98    1.28
   0   1 -11   20.98    1.26
   0   1  11   21.13    1.27
  -1  -1 -11   18.90    1.14
   1  -1  11   18.10    1.10
   1   1  11   16.39    1.11
  -1   1 -11   15.81    1.07
   2  -1  11   94.94    4.65
  -2  -1 -11   93.92    4.68
  -2   1 -11   97.35    4.67
   2   1  11   97.49    4.67
  -3  -1 -11    8.89    0.80
   3  -1  11   10.76    0.84
  -3  -1 -11    9.91    0.71
  -3   1 -11   11.02    0.83
   3   1  11   11.05    0.89
  -4  -1 -11    0.13    0.33
   4  -1  11    0.13    0.38
   4   1  11    0.04    0.40
  -4   1 -11    0.03    0.35
   5  -1  11    0.93    0.47
  -5  -1 -11    1.78    0.52
  -5   1 -11    0.35    0.42
   5   1  11    0.61    0.49
  -7  -2  11    0.40    0.39
   7  -2 -11    0.47    0.41
   7   2 -11    0.21    0.43
  -7   2  11    0.47    0.44
  -6  -2  11    2.83    0.50
   6  -2 -11    2.87    0.51
  -6   2  11    2.62    0.51
   6   2 -11    2.48    0.52
  -5  -2  11    7.16    0.67
   5  -2 -11    6.47    0.66
  -5   2  11    6.65    0.70
   5   2 -11    6.24    0.71
  -4  -2  11   50.41    2.58
   4  -2 -11   49.55    2.61
  -4   2  11   52.55    2.66
   4   2 -11   50.89    2.64
   3  -2 -11    8.82    0.72
  -3  -2  11    8.74    0.69
  -3   2  11    9.77    0.78
   3   2 -11    9.03    0.75
   2  -2 -11    0.08    0.24
  -2  -2  11    0.28    0.24
   2   2 -11    0.14    0.25
  -2   2  11    0.30    0.30
  -1  -2  11   24.36    1.49
   1  -2 -11   23.84    1.54
   1   2 -11   31.71    1.59
  -1   2  11   32.46    1.63
   0  -2 -11   36.19    1.88
   0  -2  11   34.92    1.79
   0   2 -11   32.76    1.83
   0   2  11   32.28    1.86
  -1  -2 -11   61.24    3.20
   1  -2  11   64.66    3.15
  -1   2 -11   63.59    3.18
   1   2  11   64.92    3.23
  -2  -2 -11    3.45    0.51
   2  -2  11    4.22    0.54
  -2   2 -11    3.33    0.51
   2   2  11    3.27    0.52
   3  -2  11   27.81    1.58
  -3  -2 -11   27.60    1.65
  -3  -2 -11   29.29    1.71
   3   2  11   26.25    1.64
  -3   2 -11   26.97    1.60
  -4  -2 -11   14.10    1.10
   4  -2  11   13.63    1.04
   4   2  11   15.58    1.14
  -4   2 -11   15.20    1.08
  -5  -2 -11   10.00    0.96
   5  -2  11   11.00    0.95
   5   2  11    8.56    0.94
  -5   2 -11   10.43    0.94
  -7  -3  11    0.15    0.39
   7  -3 -11    0.44    0.39
   7   3 -11    0.37    0.47
  -7   3  11    0.39    0.45
  -6  -3  11    5.03    0.61
   6  -3 -11    4.40    0.61
  -6   3  11    4.87    0.68
   6   3 -11    5.04    0.68
  -5  -3  11   22.32    1.27
   5  -3 -11   22.19    1.28
  -5   3  11   17.69    1.30
   5   3 -11   19.55    1.31
   4  -3 -11   -0.01    0.29
  -4  -3  11    0.02    0.25
  -4   3  11    0.25    0.31
   4   3 -11   -0.15    0.31
  -3  -3  11   32.65    1.69
   3  -3 -11   31.26    1.74
  -3   3  11   30.90    1.79
   3   3 -11   32.98    1.78
  -2  -3  11   17.68    1.04
   2  -3 -11   16.71    1.10
  -2   3  11   19.16    1.19
   2   3 -11   18.60    1.13
   1  -3 -11   57.87    3.04
  -1  -3  11   63.10    2.97
  -1   3  11   61.25    3.11
   1   3 -11   61.82    3.06
   0  -3 -11    9.81    0.78
   0  -3  11    9.19    0.68
   0   3  11   10.22    0.83
   0   3 -11    9.75    0.74
   1  -3  11    9.49    0.71
  -1  -3 -11   10.47    0.82
  -1   3 -11    9.82    0.78
   1   3  11   10.43    0.82
   2  -3  11   38.46    2.00
  -2  -3 -11   38.94    2.12
  -2   3 -11   38.19    2.06
   2   3  11   38.48    2.12
   3  -3  11    6.56    0.64
  -3  -3 -11    6.37    0.71
  -3  -3 -11    5.05    0.63
  -3   3 -11    7.67    0.69
   3   3  11    7.06    0.76
  -4  -3 -11    0.46    0.41
  -4   3 -11    0.16    0.40
   4   3  11    0.63    0.46
  -5  -3 -11    0.82    0.48
  -5   3 -11    1.66    0.51
   5   3  11    1.10    0.55
  -6  -4  11    2.15    0.45
   6  -4 -11    1.83    0.45
  -6   4  11    1.88    0.53
   6   4 -11    1.94    0.52
  -5  -4  11    4.67    0.54
   5  -4 -11    4.22    0.54
   5   4 -11    3.14    0.59
  -5   4  11    3.15    0.57
   4  -4 -11   41.27    2.22
  -4  -4  11   41.75    2.15
   4   4 -11   43.23    2.29
  -4   4  11   43.76    2.32
   3  -4 -11    6.02    0.58
  -3  -4  11    5.30    0.49
  -3   4  11    5.59    0.67
   3   4 -11    5.29    0.59
  -2  -4  11    1.72    0.31
   2  -4 -11    2.03    0.38
   2   4 -11    1.88    0.41
  -2   4  11    2.36    0.47
  -1  -4  11    8.13    0.59
   1  -4 -11    8.81    0.73
  -1   4  11   11.61    0.86
   1   4 -11   11.69    0.78
   0  -4  11   35.42    1.64
   0  -4 -11   35.00    1.83
   0   4  11   29.88    1.85
   0   4 -11   31.33    1.78
  -1  -4 -11   34.60    1.99
   1   4  11   38.58    2.06
  -1   4 -11   36.71    1.95
  -2  -4 -11    8.42    0.76
  -2  -4 -11    7.93    0.82
  -2   4 -11    7.41    0.70
   2   4  11    6.56    0.76
  -3  -4 -11   26.15    1.59
  -3  -4 -11   25.19    1.70
  -3   4 -11   25.01    1.50
   3   4  11   24.10    1.58
  -4  -4 -11    8.42    0.90
  -4   4 -11   11.16    0.92
   4   4  11   11.58    1.01
  -6   5  11    5.20    0.74
   6   5 -11    5.08    0.72
  -5   5  11   14.69    1.09
   5   5 -11   13.46    1.03
   4  -5 -11    0.67    0.33
   4   5 -11    0.54    0.36
  -4   5  11    0.68    0.41
   3  -5 -11   13.05    0.87
  -3   5  11   12.18    1.00
   3   5 -11   13.40    0.95
   2  -5 -11   17.28    1.10
  -2   5  11   18.28    1.23
   2   5 -11   18.81    1.16
   1  -5 -11   33.37    1.82
   1   5 -11   34.73    1.84
  -1   5  11   33.92    1.93
   0  -5 -11    0.44    0.32
   0   5  11    0.31    0.39
   0   5 -11    0.95    0.36
  -1  -5 -11   17.91    1.13
   1   5  11   15.80    1.17
  -1   5 -11   16.17    1.06
  -2  -5 -11   19.59    1.38
  -2  -5 -11   19.81    1.21
   2   5  11   14.68    1.17
  -2   5 -11   13.40    1.04
  -3  -5 -11    4.38    0.75
  -3  -5 -11    3.93    0.69
   3   5  11    5.32    0.75
  -3   5 -11    6.04    0.66
  -4  -5 -11    0.48    0.47
   4   5  11    0.17    0.49
  -4   5 -11    0.10    0.38
  -5   6  11    1.59    0.52
   5   6 -11    2.50    0.54
  -4   6  11   16.99    1.18
   4   6 -11   15.37    1.09
  -3   6  11    1.30    0.50
   3   6 -11    1.15    0.41
   2   6 -11    4.50    0.59
  -2   6  11    4.46    0.65
  -1   6  11    0.25    0.40
   1   6 -11    0.42    0.34
   0   6  11   26.76    1.57
   0   6 -11   22.66    1.40
  -1  -6 -11   24.45    1.79
  -1   6 -11   22.21    1.35
   1   6  11   22.97    1.50
  -2  -6 -11    5.94    0.91
   2   6  11    5.11    0.76
  -2   6 -11    6.07    0.62
  -3  -6 -11   14.75    1.32
  -3   6 -11   15.08    1.07
   3   6  11   15.80    1.23
   3   7 -11    8.61    0.75
  -3   7  11    6.70    0.81
   2   7 -11    8.24    0.75
  -2   7  11    7.94    0.83
  -1   7  11    7.72    0.86
   1   7 -11    7.20    0.69
   0  -7 -11    1.66    0.69
   0   7  11    1.48    0.54
  -1  -7 -11    8.50    1.08
   1   7  11    8.21    0.89
   7   0 -12    6.29    0.74
  -7   0  12    7.33    0.80
  -6   0  12   16.03    1.11
   6   0 -12   14.64    1.09
   5   0 -12    4.49    0.58
  -5   0  12    4.44    0.62
   4   0 -12    0.45    0.34
  -4   0  12    0.21    0.33
   3   0 -12    1.56    0.40
  -3   0  12    1.60    0.40
   2   0 -12   99.76    4.73
  -2   0  12   94.80    4.71
  -1   0  12   93.91    4.55
   1   0 -12   93.11    4.56
   0   0 -12    5.36    0.60
   0   0  12    5.18    0.60
   1   0  12   51.05    2.65
  -1   0 -12   51.06    2.66
   2   0  12    5.55    0.65
  -2   0 -12    5.52    0.64
  -3   0 -12   16.71    1.15
   3   0  12   17.19    1.17
   4   0  12    0.87    0.47
  -4   0 -12    0.58    0.42
  -5   0 -12   14.24    1.17
   5   0  12   16.34    1.21
  -7  -1  12    8.68    0.87
   7  -1 -12    8.83    0.88
   7   1 -12    9.25    0.91
  -7   1  12    9.71    0.93
   6  -1 -12    1.08    0.42
  -6  -1  12    1.13    0.44
   6   1 -12    0.70    0.40
  -6   1  12    0.83    0.44
   5  -1 -12   14.32    1.03
  -5  -1  12   15.48    1.05
  -5   1  12   13.33    1.02
   5   1 -12   14.75    1.06
  -4  -1  12   14.29    1.01
   4  -1 -12   13.94    1.00
   4   1 -12   14.77    1.05
  -4   1  12   16.12    1.08
   3  -1 -12   22.05    1.34
  -3  -1  12   21.55    1.30
  -3   1  12   22.46    1.36
   3   1 -12   22.32    1.36
  -2  -1  12    2.12    0.40
   2  -1 -12    1.95    0.41
  -2   1  12    1.96    0.40
   2   1 -12    1.82    0.39
  -1  -1  12    9.17    0.71
   1  -1 -12    8.53    0.72
  -1   1  12    6.81    0.71
   1   1 -12    6.98    0.69
   0  -1 -12   77.41    3.87
   0  -1  12   76.05    3.82
   0   1  12   77.94    3.87
   0   1 -12   80.38    3.86
   1  -1  12    5.21    0.60
  -1  -1 -12    3.99    0.60
  -1   1 -12    4.99    0.61
   1   1  12    5.08    0.63
   2  -1  12    1.25    0.40
  -2  -1 -12    1.13    0.40
  -2   1 -12    1.47    0.39
   2   1  12    1.58    0.44
   3  -1  12   13.59    1.00
  -3  -1 -12   13.86    1.03
  -3   1 -12   13.07    1.01
   3   1  12   12.69    1.03
   4  -1  12   35.27    1.95
  -4  -1 -12   33.42    1.97
   4   1  12   32.40    1.95
  -4   1 -12   32.20    1.94
  -5  -1 -12   16.96    1.31
   5  -1  12   16.68    1.26
   5   1  12   18.28    1.32
  -5   1 -12   18.07    1.30
   7  -2 -12    6.61    0.78
  -7  -2  12    7.49    0.78
  -7   2  12    6.61    0.81
   7   2 -12    6.27    0.81
  -6  -2  12   15.01    1.05
   6  -2 -12   14.50    1.05
   6   2 -12   13.37    1.05
  -6   2  12   13.37    1.06
  -5  -2  12    4.16    0.58
   5  -2 -12    3.48    0.58
   5   2 -12    4.41    0.63
  -5   2  12    3.86    0.62
   4  -2 -12    2.38    0.47
  -4  -2  12    2.30    0.43
  -4   2  12    2.23    0.45
   4   2 -12    1.94    0.46
  -3  -2  12    3.70    0.51
   3  -2 -12    4.03    0.56
  -3   2  12    6.33    0.66
   3   2 -12    6.43    0.65
   2  -2 -12   88.29    4.28
  -2  -2  12   89.04    4.22
  -2   2  12   84.42    4.29
   2   2 -12   87.20    4.28
  -1  -2  12   30.05    1.74
   1  -2 -12   29.81    1.81
  -1   2  12   34.72    1.85
   1   2 -12   37.58    1.85
   0  -2  12    2.93    0.45
   0  -2 -12    3.11    0.48
   0   2  12    2.90    0.50
   0   2 -12    2.94    0.50
   1  -2  12   34.68    1.86
  -1  -2 -12   34.53    1.93
   1   2  12   32.44    1.91
  -1   2 -12   36.11    1.92
  -2  -2 -12    9.30    0.85
   2  -2  12   10.26    0.80
   2   2  12   10.04    0.87
  -2   2 -12    9.61    0.81
   3  -2  12   19.83    1.27
  -3  -2 -12   20.31    1.34
   3   2  12   20.17    1.35
  -3   2 -12   19.18    1.29
   4  -2  12    0.75    0.44
  -4  -2 -12    0.73    0.45
   4   2  12    0.50    0.47
  -4   2 -12    0.70    0.42
   5  -2  12   18.64    1.32
  -5  -2 -12   19.54    1.40
   5   2  12   17.48    1.34
  -5   2 -12   19.72    1.36
   6  -3 -12    1.51    0.45
  -6  -3  12    1.71    0.43
   6   3 -12    1.31    0.48
  -6   3  12    1.30    0.49
   5  -3 -12   15.48    1.08
  -5  -3  12   14.89    1.05
  -5   3  12   15.64    1.15
   5   3 -12   16.87    1.16
  -4  -3  12    4.58    0.53
   4  -3 -12    4.77    0.58
   3  -3 -12   26.55    1.51
  -3  -3  12   26.27    1.44
  -3   3  12   25.44    1.56
   3   3 -12   25.96    1.53
  -2  -3  12    9.65    0.70
   2  -3 -12    9.28    0.77
  -2   3  12   10.30    0.85
   2   3 -12    9.38    0.79
   1  -3 -12   15.07    0.97
  -1  -3  12   13.39    0.85
  -1   3  12   11.74    0.98
   1   3 -12   12.22    0.94
   0  -3  12   42.23    2.17
   0  -3 -12   41.78    2.27
   0   3  12   42.06    2.31
   0   3 -12   44.43    2.27
   1  -3  12    3.86    0.50
  -1  -3 -12    4.04    0.58
  -1   3 -12    3.06    0.51
   1   3  12    3.52    0.59
   2  -3  12    3.15    0.49
  -2  -3 -12    3.97    0.61
  -2   3 -12    3.63    0.54
   2   3  12    2.88    0.56
   3  -3  12    7.68    0.70
  -3  -3 -12    7.35    0.76
  -3  -3 -12    7.29    0.80
   3   3  12    8.56    0.86
  -3   3 -12    8.94    0.79
  -4  -3 -12   32.36    1.96
   4   3  12   32.44    1.99
  -4   3 -12   34.33    1.94
   6  -4 -12   13.39    0.98
  -6   4  12   11.83    1.06
   6   4 -12   13.00    1.05
  -5  -4  12    2.07    0.42
   5  -4 -12    2.57    0.47
  -5   4  12    2.23    0.54
   5   4 -12    2.52    0.54
  -4  -4  12    0.74    0.31
   4  -4 -12    0.62    0.34
   4   4 -12    1.02    0.42
  -4   4  12    1.25    0.46
  -3  -4  12    0.55    0.26
   3  -4 -12    0.42    0.33
   3   4 -12    0.81    0.40
  -3   4  12    0.46    0.40
   2  -4 -12   49.38    2.50
  -2  -4  12   49.13    2.37
  -2   4  12   45.64    2.56
   2   4 -12   47.75    2.51
  -1  -4  12    7.81    0.57
   1  -4 -12    8.04    0.71
   0  -4 -12    6.01    0.65
   0   4 -12    6.26    0.65
   0   4  12    5.77    0.73
  -1  -4 -12   13.05    0.98
  -1   4 -12   13.57    0.94
   1   4  12   12.54    1.00
  -2  -4 -12    8.30    0.91
  -2  -4 -12    8.38    0.83
  -2   4 -12   11.13    0.84
   2   4  12   10.84    0.90
  -3  -4 -12   15.94    1.21
  -3  -4 -12   15.79    1.17
   3   4  12   14.23    1.18
  -3   4 -12   15.55    1.12
  -4  -4 -12   -0.11    0.42
  -4   4 -12    0.23    0.39
   4   4  12    0.32    0.50
  -5   5  12    6.12    0.77
   5   5 -12    6.37    0.75
   4  -5 -12    1.34    0.39
   4   5 -12    2.37    0.52
  -4   5  12    1.82    0.51
   3  -5 -12   15.46    1.04
   3   5 -12   16.53    1.11
  -3   5  12   15.89    1.18
   2  -5 -12    3.74    0.55
  -2   5  12    4.74    0.67
   2   5 -12    5.00    0.61
   1  -5 -12   18.06    1.11
   1   5 -12   16.37    1.10
  -1   5  12   15.58    1.18
   0  -5 -12   19.97    1.27
   0   5  12   20.64    1.40
   0   5 -12   22.02    1.30
  -1  -5 -12    6.89    0.73
  -1   5 -12    6.23    0.67
   1   5  12    6.77    0.79
  -2  -5 -12    3.55    0.74
  -2  -5 -12    2.74    0.55
  -2   5 -12    3.21    0.56
   2   5  12    3.20    0.63
  -3  -5 -12    5.75    0.82
  -3  -5 -12    4.42    0.70
  -3   5 -12    6.16    0.71
   3   5  12    6.05    0.82
   4   6 -12    0.44    0.43
  -4   6  12    0.69    0.46
  -3   6  12    3.82    0.68
   3   6 -12    4.04    0.61
   2   6 -12   28.69    1.69
  -2   6  12   30.71    1.80
  -1   6  12    9.21    0.89
   1   6 -12    9.04    0.79
   0   6  12    2.02    0.57
   0   6 -12    1.68    0.43
  -1  -6 -12    9.01    1.04
  -1   6 -12    7.60    0.74
   1   6  12    7.47    0.86
   2   6  12    6.44    0.82
  -2   6 -12    5.48    0.69
  -2   7  12    2.26    0.56
   2   7 -12    1.80    0.47
  -1   7  12    7.65    0.91
   0  -7 -12   18.43    1.65
   7   0 -13    0.24    0.44
  -7   0  13   -0.16    0.42
  -6   0  13    0.79    0.44
   6   0 -13    0.69    0.41
   5   0 -13   12.60    0.99
  -5   0  13   11.96    0.99
   4   0 -13   34.69    1.92
  -4   0  13   31.95    1.88
  -3   0  13   20.46    1.30
   3   0 -13   20.41    1.31
   2   0 -13    1.42    0.40
  -2   0  13    1.11    0.39
  -1   0  13   12.34    0.90
   0   0 -13   13.07    0.98
   0   0  13   13.12    0.97
   1   0  13   38.97    2.14
  -1   0 -13   39.08    2.15
  -2   0 -13    2.71    0.51
   2   0  13    2.50    0.52
  -3   0 -13   21.60    1.43
   3   0  13   22.28    1.44
  -4   0 -13   17.61    1.29
   4   0  13   17.86    1.28
   7  -1 -13    1.80    0.54
  -7  -1  13    2.23    0.55
  -7   1  13    2.70    0.62
   7   1 -13    2.01    0.57
   6  -1 -13    4.53    0.67
  -6  -1  13    4.95    0.70
   6   1 -13    3.52    0.66
  -6   1  13    4.05    0.68
  -5  -1  13   23.08    1.46
   5  -1 -13   23.68    1.48
   5   1 -13   23.22    1.49
  -5   1  13   24.65    1.51
  -4  -1  13    1.09    0.39
   4  -1 -13    0.99    0.38
   4   1 -13    0.91    0.42
  -4   1  13    1.15    0.42
   3  -1 -13   44.15    2.35
  -3  -1  13   43.70    2.32
  -3   1  13   43.35    2.36
   3   1 -13   43.85    2.36
   2  -1 -13   77.77    3.92
  -2  -1  13   73.66    3.87
  -2   1  13   82.14    3.94
   2   1 -13   81.68    3.93
  -1  -1  13    0.71    0.35
   1  -1 -13    0.48    0.34
   1   1 -13    0.03    0.31
  -1   1  13    0.11    0.30
   0  -1 -13    0.99    0.39
   0  -1  13    0.60    0.34
   0   1 -13    1.15    0.38
   0   1  13    0.68    0.36
  -1  -1 -13   11.91    0.92
   1  -1  13   12.91    0.92
   1   1  13    9.79    0.86
  -1   1 -13    9.15    0.86
  -2  -1 -13   33.83    1.93
   2  -1  13   37.91    1.94
   2   1  13   30.25    1.88
  -2   1 -13   32.08    1.90
   3  -1  13    7.91    0.80
  -3  -1 -13    7.43    0.80
  -3   1 -13    8.08    0.80
   3   1  13    8.51    0.85
   4  -1  13    2.46    0.59
  -4  -1 -13    1.77    0.53
  -4   1 -13    2.36    0.56
   4   1  13    1.79    0.57
   6  -2 -13    0.25    0.39
  -6  -2  13    0.19    0.37
   6   2 -13    0.00    0.38
  -6   2  13    0.38    0.44
   5  -2 -13    9.28    0.90
  -5  -2  13   10.97    0.90
   5   2 -13   13.28    1.00
  -5   2  13   12.43    0.96
  -4  -2  13   39.29    2.09
   4  -2 -13   40.53    2.14
   4   2 -13   38.21    2.15
  -4   2  13   36.47    2.13
   3  -2 -13    4.65    0.61
  -3  -2  13    4.55    0.60
   3   2 -13    6.17    0.68
  -3   2  13    5.96    0.68
   2  -2 -13    3.84    0.57
  -2  -2  13    3.84    0.51
   2   2 -13    3.09    0.55
  -2   2  13    3.69    0.60
  -1  -2  13   15.61    0.99
   1  -2 -13   15.44    1.04
  -1   2  13   12.19    0.98
   1   2 -13   12.56    0.98
   0  -2  13   21.47    1.31
   0  -2 -13   21.80    1.38
   0   2 -13   23.17    1.38
   0   2  13   22.08    1.40
   1  -2  13   32.12    1.78
  -1  -2 -13   31.93    1.85
  -1   2 -13   32.69    1.83
   1   2  13   31.21    1.87
  -2  -2 -13    1.43    0.47
   2  -2  13    1.70    0.42
  -2   2 -13    1.51    0.44
   2   2  13    1.38    0.48
  -3  -2 -13   26.12    1.68
   3  -2  13   29.08    1.64
   3   2  13   26.89    1.70
  -3   2 -13   26.52    1.65
  -4  -2 -13    9.79    0.96
   4  -2  13    9.71    0.94
  -4   2 -13   10.82    0.97
   4   2  13   11.60    1.03
   6  -3 -13    1.44    0.46
  -6  -3  13    1.52    0.46
   6   3 -13    2.07    0.57
  -6   3  13    2.16    0.57
   5  -3 -13   16.76    1.15
  -5  -3  13   15.71    1.10
   5   3 -13   15.83    1.18
  -5   3  13   17.05    1.22
  -4  -3  13    0.28    0.32
   4  -3 -13    0.41    0.35
   4   3 -13    0.20    0.41
  -4   3  13   -0.21    0.34
   3  -3 -13   42.22    2.22
  -3  -3  13   40.22    2.13
   3   3 -13   41.57    2.25
  -3   3  13   39.96    2.28
  -2  -3  13   25.81    1.51
   2  -3 -13   24.27    1.58
   2   3 -13   30.37    1.65
  -2   3  13   31.46    1.71
   1  -3 -13    2.00    0.43
   1   3 -13    0.24    0.33
  -1   3  13    0.49    0.40
   0  -3 -13   -0.04    0.33
   0  -3  13   -0.05    0.27
   0   3 -13   -0.10    0.32
   0   3  13    0.05    0.33
  -1  -3 -13   11.14    0.92
   1  -3  13    9.93    0.78
   1   3  13   11.70    0.96
  -1   3 -13   11.20    0.88
  -2  -3 -13   41.75    2.33
   2  -3  13   44.40    2.21
  -2   3 -13   39.03    2.25
   2   3  13   41.48    2.34
  -3  -3 -13    7.57    0.84
   3   3  13    7.17    0.86
  -3   3 -13    7.59    0.81
  -4  -3 -13    1.88    0.56
   4   3  13    1.99    0.61
  -4   3 -13    2.69    0.58
   5  -4 -13    1.47    0.43
  -5   4  13    1.72    0.54
   5   4 -13    1.66    0.53
   4  -4 -13   33.18    1.82
   4   4 -13   32.05    1.88
  -4   4  13   31.55    1.90
   3  -4 -13    4.35    0.60
  -3   4  13    5.48    0.68
   3   4 -13    6.46    0.69
   2  -4 -13    6.54    0.65
  -2   4  13    5.56    0.71
   2   4 -13    4.56    0.66
   1  -4 -13   15.05    1.06
   1   4 -13   15.22    1.05
  -1   4  13   13.17    1.09
   0  -4 -13   15.23    1.10
   0   4 -13   14.27    1.05
   0   4  13   16.45    1.17
  -1  -4 -13   22.65    1.39
   1   4  13   20.39    1.43
  -1   4 -13   21.55    1.37
  -2  -4 -13    0.80    0.44
  -2  -4 -13    1.27    0.49
   2   4  13    0.63    0.48
  -2   4 -13    0.75    0.41
  -3  -4 -13   20.18    1.38
  -3   4 -13   17.54    1.27
   3   4  13   20.24    1.41
   5   5 -13    7.43    0.82
  -5   5  13    6.50    0.84
   4  -5 -13    0.96    0.40
  -4   5  13    0.66    0.47
   4   5 -13    1.24    0.49
   3  -5 -13   29.97    1.65
  -3   5  13   27.04    1.76
   3   5 -13   28.44    1.69
   2  -5 -13    9.51    0.76
  -2   5  13    6.93    0.81
   2   5 -13    6.49    0.72
   1  -5 -13    2.82    0.52
   1   5 -13    2.43    0.50
  -1   5  13    3.10    0.60
   0  -5 -13    2.42    0.48
   0   5 -13    2.47    0.49
   0   5  13    2.94    0.60
  -1  -5 -13    8.05    0.80
   1   5  13    9.66    0.94
  -1   5 -13    9.12    0.82
  -2  -5 -13   34.93    1.96
  -2  -5 -13   34.11    2.27
  -2   5 -13   32.22    1.90
   2   5  13   32.00    2.01
   3   6 -13    3.48    0.64
  -3   6  13    3.79    0.68
  -2   6  13    1.80    0.55
   2   6 -13    1.75    0.48
   1   6 -13    5.14    0.64
  -1   6  13    4.56    0.78
   0   6 -13    9.75    0.84
   0   6  13   10.31    0.98
  -1  -6 -13   14.60    1.34
  -1   6 -13   12.42    1.00
   1   6  13   13.00    1.14
  -6   0  14   33.73    2.01
   6   0 -14   34.20    2.02
   5   0 -14    3.05    0.59
  -5   0  14    2.45    0.53
  -4   0  14    0.89    0.42
   4   0 -14    0.67    0.40
   3   0 -14   21.81    1.41
  -3   0  14   21.90    1.39
  -2   0  14    2.38    0.50
   2   0 -14    2.59    0.49
  -1   0  14   19.90    1.30
   1   0 -14   20.37    1.31
   0   0  14    9.87    0.88
   0   0 -14   11.47    0.92
   1   0  14   12.31    0.96
  -1   0 -14   11.85    0.97
   2   0  14   26.74    1.64
  -2   0 -14   25.77    1.63
   3   0  14    4.81    0.72
  -3   0 -14    4.95    0.71
  -4   0 -14    0.39    0.42
   4   0  14    0.63    0.50
   6  -1 -14    3.21    0.61
  -6  -1  14    3.06    0.60
  -6   1  14    3.51    0.65
   6   1 -14    2.34    0.57
  -5  -1  14    5.71    0.72
   5  -1 -14    6.30    0.74
   5   1 -14    5.81    0.75
  -5   1  14    5.83    0.74
  -4  -1  14   10.27    0.89
   4  -1 -14   10.53    0.92
   4   1 -14   10.82    0.93
  -4   1  14   11.48    0.95
  -3  -1  14   12.20    0.94
   3  -1 -14   11.89    0.95
  -3   1  14   12.69    1.00
   3   1 -14   12.38    0.99
  -2  -1  14    6.92    0.71
   2  -1 -14    7.51    0.76
  -2   1  14    7.19    0.77
   2   1 -14    8.51    0.78
  -1  -1  14   29.33    1.67
   1  -1 -14   27.42    1.67
  -1   1  14   28.65    1.69
   1   1 -14   29.04    1.70
   0  -1 -14   37.92    2.05
   0  -1  14   37.27    2.00
   0   1  14   34.79    2.04
   0   1 -14   35.05    2.04
  -1  -1 -14    0.04    0.35
   1  -1  14    0.19    0.38
   1   1  14    0.45    0.40
  -1   1 -14    0.46    0.38
  -2  -1 -14    5.42    0.67
   2  -1  14    5.82    0.69
  -2   1 -14    4.81    0.69
   2   1  14    4.96    0.72
  -3  -1 -14    7.58    0.81
   3  -1  14    6.84    0.85
  -3   1 -14    8.93    0.85
   3   1  14    9.41    0.92
   4  -1  14   22.16    1.47
  -4  -1 -14   21.32    1.50
  -4   1 -14   21.24    1.50
   4   1  14   22.31    1.52
   6  -2 -14   24.21    1.58
  -6  -2  14   24.58    1.56
   6   2 -14   25.34    1.64
  -6   2  14   24.94    1.64
  -5  -2  14    0.12    0.37
   5  -2 -14   -0.07    0.32
  -5   2  14    0.26    0.43
   5   2 -14   -0.01    0.42
  -4  -2  14    2.80    0.51
   4  -2 -14    2.40    0.50
   4   2 -14    1.72    0.50
  -4   2  14    1.40    0.50
   3  -2 -14   12.89    1.00
  -3  -2  14   11.92    0.94
   3   2 -14   13.90    1.04
  -3   2  14   14.12    1.06
  -2   2  14    8.27    0.82
   2   2 -14    7.73    0.77
  -1  -2  14   17.64    1.13
   1  -2 -14   17.79    1.19
  -1   2  14   16.22    1.19
   1   2 -14   15.40    1.14
   0  -2 -14   10.69    0.89
   0  -2  14   10.42    0.84
   0   2 -14    9.72    0.87
   0   2  14    9.89    0.90
  -1  -2 -14   19.10    1.29
   1  -2  14   20.88    1.24
   1   2  14   17.03    1.30
  -1   2 -14   18.07    1.26
  -2  -2 -14   12.20    1.03
   2  -2  14   12.64    1.00
  -2   2 -14   14.64    1.07
   2   2  14   14.29    1.11
   3  -2  14    4.74    0.70
  -3  -2 -14    4.74    0.72
  -3   2 -14    4.47    0.67
   3   2  14    4.80    0.70
  -6  -3  14    1.17    0.45
   6  -3 -14    1.12    0.47
   6   3 -14    1.10    0.53
  -6   3  14    1.18    0.55
   5  -3 -14   16.76    1.18
  -5  -3  14   16.34    1.13
   5   3 -14   14.57    1.17
  -5   3  14   15.15    1.21
  -4  -3  14    3.72    0.61
   4  -3 -14    4.77    0.67
  -4   3  14    5.45    0.68
   4   3 -14    6.37    0.75
  -3  -3  14    2.13    0.44
   3  -3 -14    1.71    0.46
  -3   3  14    2.74    0.55
   3   3 -14    2.77    0.54
  -2  -3  14    1.61    0.39
   2  -3 -14    1.78    0.46
   2   3 -14    1.01    0.43
  -2   3  14    1.06    0.46
  -1  -3  14   20.36    1.25
   1  -3 -14   20.54    1.34
  -1   3  14   21.93    1.41
   1   3 -14   20.93    1.33
   0  -3 -14   45.27    2.37
   0  -3  14   43.77    2.24
   0   3 -14   40.40    2.32
   0   3  14   41.92    2.37
  -1  -3 -14    3.47    0.61
   1  -3  14    3.55    0.56
  -1   3 -14    2.56    0.52
   1   3  14    2.49    0.59
  -2  -3 -14    5.43    0.71
  -2   3 -14    3.57    0.66
   2   3  14    3.70    0.68
  -3  -3 -14    4.44    0.74
  -3   3 -14    4.73    0.72
   3   3  14    4.68    0.77
   5  -4 -14    1.69    0.47
   5   4 -14    1.26    0.52
  -5   4  14    1.61    0.56
   4  -4 -14    4.82    0.68
  -4   4  14    4.88    0.74
   4   4 -14    5.79    0.73
   3  -4 -14    4.71    0.66
   3   4 -14    6.14    0.73
  -3   4  14    7.52    0.83
   2  -4 -14   21.47    1.27
   2   4 -14   16.62    1.22
  -2   4  14   17.12    1.28
   1  -4 -14   11.74    0.94
   1   4 -14   11.43    0.93
  -1   4  14   12.58    1.03
   0  -4 -14    5.95    0.71
   0   4 -14    5.22    0.66
   0   4  14    5.64    0.77
  -1  -4 -14   23.03    1.46
  -1   4 -14   22.34    1.44
   1   4  14   21.87    1.52
  -2  -4 -14    6.56    0.80
   2   4  14    8.04    0.85
  -2   4 -14    8.42    0.82
   4  -5 -14    2.20    0.51
   4   5 -14    1.59    0.56
  -4   5  14    1.76    0.58
   3  -5 -14    2.04    0.49
   3   5 -14    1.64    0.51
  -3   5  14    2.17    0.60
   2  -5 -14    2.34    0.51
  -2   5  14    3.36    0.65
   2   5 -14    3.94    0.65
   1  -5 -14   14.42    1.05
   1   5 -14   14.05    1.08
  -1   5  14   15.20    1.18
   0  -5 -14   29.79    1.72
   0   5  14   27.18    1.80
   0   5 -14   28.87    1.69
  -1  -5 -14    0.06    0.41
  -1   5 -14    1.19    0.45
   1   5  14    1.03    0.55
  -2   6  14   14.94    1.19
   2   6 -14   13.92    1.09
   1   6 -14    4.40    0.66
  -1   6  14    4.48    0.77
  -6   0  15    0.06    0.44
   6   0 -15    0.15    0.42
   5   0 -15    4.12    0.70
  -5   0  15    4.29    0.71
   4   0 -15   14.76    1.16
  -4   0  15   16.02    1.17
   3   0 -15   19.55    1.33
  -3   0  15   18.80    1.30
  -2   0  15   25.09    1.56
   2   0 -15   25.78    1.59
   1   0 -15   15.10    1.10
  -1   0  15   15.83    1.13
   0   0 -15   14.96    1.13
   0   0  15   17.29    1.18
   1   0  15    7.00    0.76
  -1   0 -15    6.83    0.77
  -2   0 -15    1.07    0.44
   2   0  15    1.12    0.50
  -3   0 -15   19.22    1.39
   3   0  15   19.76    1.40
   6  -1 -15    2.78    0.61
  -6  -1  15    2.78    0.62
   6   1 -15    2.08    0.59
  -6   1  15    2.90    0.65
   5  -1 -15    2.54    0.55
  -5  -1  15    2.73    0.57
   5   1 -15    3.18    0.63
  -5   1  15    3.15    0.62
   4  -1 -15    0.98    0.45
  -4  -1  15    0.92    0.44
  -4   1  15    1.25    0.49
   4   1 -15    1.81    0.51
  -3   1  15    9.84    0.91
   3   1 -15    9.70    0.90
   2  -1 -15   17.54    1.17
  -2  -1  15   15.02    1.11
  -2   1  15   15.71    1.15
   2   1 -15   16.44    1.17
   1  -1 -15    0.39    0.39
  -1  -1  15    0.26    0.37
  -1   1  15    0.08    0.37
   1   1 -15    0.16    0.36
   0  -1 -15    0.08    0.36
   0  -1  15    0.42    0.37
   0   1  15    0.26    0.37
   0   1 -15    0.07    0.38
   1  -1  15   22.50    1.48
  -1  -1 -15   22.95    1.53
  -1   1 -15   26.05    1.56
   1   1  15   25.11    1.57
   2  -1  15   28.88    1.74
  -2  -1 -15   30.90    1.84
  -2   1 -15   28.42    1.79
   2   1  15   28.30    1.81
   3  -1  15    8.18    0.90
  -3  -1 -15    8.66    0.92
   3   1  15    7.79    0.91
  -3   1 -15    7.62    0.87
   6  -2 -15    1.28    0.51
  -6  -2  15    1.03    0.51
  -6   2  15    0.97    0.54
   6   2 -15    1.04    0.53
  -5  -2  15    3.33    0.59
   5  -2 -15    3.33    0.60
   5   2 -15    2.66    0.61
  -5   2  15    2.69    0.62
   4  -2 -15   25.71    1.59
  -4  -2  15   24.44    1.52
  -4   2  15   24.12    1.60
   4   2 -15   25.03    1.60
  -3  -2  15   21.00    1.30
   3  -2 -15   18.89    1.33
  -3   2  15   20.27    1.38
   3   2 -15   19.81    1.36
  -2  -2  15   17.21    1.17
   2  -2 -15   17.89    1.25
  -2   2  15   18.49    1.28
   2   2 -15   17.76    1.24
  -1  -2  15   15.26    1.08
   1  -2 -15   15.46    1.14
  -1   2  15   15.05    1.15
   1   2 -15   14.81    1.10
   0  -2  15   13.86    1.02
   0  -2 -15   13.47    1.06
   0   2 -15   13.58    1.05
  -1  -2 -15    5.60    0.74
   1  -2  15    5.51    0.69
   1   2  15    5.99    0.77
  -1   2 -15    5.95    0.73
  -2  -2 -15    0.17    0.42
   2  -2  15    0.49    0.42
  -2   2 -15    0.48    0.44
   2   2  15    0.22    0.48
   3  -2  15   27.09    1.65
  -3  -2 -15   27.19    1.75
  -3   2 -15   25.46    1.69
   3   2  15   26.17    1.75
   5  -3 -15    0.86    0.49
  -5  -3  15    1.43    0.46
  -5   3  15    1.57    0.56
   5   3 -15    1.40    0.56
   4  -3 -15    0.87    0.44
  -4  -3  15    0.96    0.42
  -4   3  15    1.04    0.50
   4   3 -15    1.29    0.51
   3  -3 -15   33.83    1.89
  -3  -3  15   34.56    1.81
   3   3 -15   28.38    1.86
  -3   3  15   29.95    1.92
  -2  -3  15   16.78    1.10
   2  -3 -15   16.32    1.18
  -2   3  15   17.70    1.26
   2   3 -15   15.82    1.19
   1  -3 -15    2.22    0.50
  -1  -3  15    1.66    0.42
   1   3 -15    1.10    0.46
  -1   3  15    1.10    0.51
   0  -3  15    1.49    0.40
   0  -3 -15    1.65    0.47
   0   3 -15    0.85    0.43
   0   3  15    0.04    0.44
  -1  -3 -15    8.10    0.89
  -1   3 -15   11.55    0.94
   1   3  15   10.63    1.01
  -2  -3 -15   26.10    1.68
   2   3  15   26.18    1.72
  -2   3 -15   25.68    1.66
   4  -4 -15   12.46    1.02
  -4   4  15   12.49    1.10
   4   4 -15   12.96    1.12
   3  -4 -15   20.56    1.38
  -3   4  15   21.67    1.48
   3   4 -15   20.13    1.40
   2  -4 -15    3.76    0.62
  -2   4  15    3.35    0.63
   2   4 -15    3.54    0.63
   1  -4 -15   16.77    1.19
   1   4 -15   16.40    1.18
  -1   4  15   16.72    1.27
   0  -4 -15    8.56    0.87
   0   4  15    8.84    0.95
   0   4 -15   10.16    0.88
  -1  -4 -15    6.80    0.78
   1   4  15    5.71    0.84
  -1   4 -15    5.76    0.76
  -2  -4 -15    0.54    0.46
  -2   4 -15    0.12    0.42
   2   4  15    0.02    0.50
   3  -5 -15   33.17    1.82
   3   5 -15   28.41    1.84
  -3   5  15   29.59    1.92
   2  -5 -15    8.38    0.82
  -2   5  15    8.12    0.91
   2   5 -15    6.95    0.84
   1  -5 -15    0.01    0.39
  -1   5  15    0.67    0.52
   1   5 -15    0.79    0.46
   0  -5 -15    0.53    0.43
   0   5  15    0.40    0.52
   0   5 -15    0.79    0.45
   5   0 -16    0.93    0.50
  -5   0  16    0.71    0.49
   4   0 -16    4.64    0.72
  -4   0  16    4.86    0.74
  -3   0  16    3.62    0.67
   3   0 -16    4.41    0.64
   2   0 -16   13.26    1.08
  -2   0  16   13.59    1.07
  -1   0  16    5.88    0.74
   1   0 -16    5.75    0.73
   0   0 -16   16.71    1.23
   0   0  16   17.67    1.24
  -1   0 -16   32.38    1.95
   1   0  16   32.82    1.95
  -2   0 -16   13.01    1.13
   2   0  16   14.55    1.15
  -5  -1  16   16.31    1.24
   5  -1 -16   17.45    1.29
   5   1 -16   15.60    1.24
  -5   1  16   16.89    1.25
  -4  -1  16    7.27    0.83
   4  -1 -16    7.10    0.82
  -4   1  16    5.50    0.79
   4   1 -16    5.50    0.77
   3  -1 -16    1.80    0.49
  -3  -1  16    1.82    0.52
  -3   1  16    1.05    0.49
   3   1 -16    1.14    0.48
  -2  -1  16    1.41    0.47
   2  -1 -16    1.32    0.49
   2   1 -16    1.72    0.50
  -2   1  16    1.86    0.54
   1  -1 -16   24.95    1.63
  -1  -1  16   27.75    1.63
  -1   1  16   27.00    1.66
   1   1 -16   25.58    1.63
   0  -1 -16   31.09    1.89
   0  -1  16   31.81    1.85
   0   1  16   32.23    1.91
   0   1 -16   31.27    1.89
  -1  -1 -16    0.35    0.43
   1  -1  16    0.39    0.44
  -1   1 -16    0.57    0.44
   1   1  16    0.41    0.42
  -2  -1 -16    9.69    0.96
   2  -1  16    9.37    0.91
  -2   1 -16    8.59    0.93
   2   1  16    8.85    0.95
  -5  -2  16    0.82    0.48
   5  -2 -16    1.08    0.50
   5   2 -16    0.93    0.54
  -5   2  16    0.54    0.47
  -4  -2  16    8.63    0.84
   4  -2 -16    8.49    0.88
  -4   2  16    8.02    0.91
   4   2 -16    7.01    0.86
   3  -2 -16    1.19    0.48
  -3  -2  16    0.53    0.44
  -3   2  16    1.81    0.52
   3   2 -16    3.20    0.61
   2  -2 -16    8.27    0.87
  -2  -2  16   10.59    0.89
  -2   2  16    9.21    0.92
   2   2 -16    8.53    0.88
  -1  -2  16    5.61    0.71
   1  -2 -16    5.74    0.75
  -1   2  16    5.61    0.71
   1   2 -16    5.14    0.70
   0  -2  16    8.26    0.82
   0  -2 -16    8.95    0.91
   0   2 -16   10.32    0.92
   0   2  16   10.93    0.94
  -1  -2 -16   41.35    2.35
   1  -2  16   41.77    2.25
   1   2  16   40.01    2.34
  -1   2 -16   39.09    2.30
   2  -2  16   11.85    1.02
  -2  -2 -16   11.18    1.07
  -2   2 -16   13.06    1.09
  -4  -3  16   14.00    1.02
   4  -3 -16   14.00    1.10
  -4   3  16   13.41    1.15
   4   3 -16   11.84    1.10
   3  -3 -16    3.65    0.65
  -3  -3  16    3.38    0.56
  -3   3  16    3.08    0.65
   3   3 -16    2.47    0.59
  -2  -3  16    2.20    0.48
   2  -3 -16    2.49    0.55
  -2   3  16    1.82    0.57
   2   3 -16    2.01    0.55
   1  -3 -16   14.40    1.11
   1   3 -16   13.57    1.10
  -1   3  16   14.98    1.19
   0  -3 -16   16.53    1.23
   0   3 -16   17.83    1.25
   0   3  16   16.99    1.30
  -1  -3 -16    1.97    0.55
  -1   3 -16    1.64    0.52
   1   3  16    1.38    0.54
   3  -4 -16    0.27    0.42
  -3   4  16    2.13    0.62
   3   4 -16    1.85    0.58
   2  -4 -16    3.15    0.60
  -2   4  16    3.25    0.68
   2   4 -16    3.04    0.63
   1  -4 -16    4.36    0.73
   1   4 -16    4.45    0.69
  -1   4  16    4.94    0.80
   0  -4 -16    2.79    0.60
   0   4  16    4.17    0.75
   0   4 -16    3.74    0.65
   5   0 -17    4.32    0.78
  -5   0  17    4.35    0.76
   4   0 -17   10.86    1.04
  -4   0  17   12.43    1.07
  -3   0  17    2.44    0.60
   3   0 -17    2.33    0.55
  -2   0  17   18.07    1.28
   2   0 -17   16.74    1.28
  -1   0  17   26.33    1.66
   1   0 -17   25.93    1.68
   0   0  17    4.02    0.69
   0   0 -17    3.99    0.68
   1   0  17    2.26    0.59
  -1   0 -17    2.34    0.59
   4  -1 -17    0.65    0.48
  -4  -1  17    0.34    0.45
  -4   1  17    1.48    0.55
   4   1 -17    1.37    0.53
   3  -1 -17   24.08    1.67
  -3  -1  17   24.64    1.63
  -3   1  17   28.81    1.73
   3   1 -17   27.53    1.72
  -2  -1  17   17.84    1.25
   2  -1 -17   17.83    1.30
   2   1 -17   17.46    1.30
  -2   1  17   16.79    1.29
   1  -1 -17    0.70    0.46
  -1  -1  17    0.41    0.43
   1   1 -17    0.73    0.42
  -1   1  17    0.42    0.47
   0  -1  17    9.54    0.90
   0  -1 -17    9.55    0.94
   0   1  17    8.87    0.95
   0   1 -17    9.75    0.93
  -1  -1 -17    6.47    0.85
   1  -1  17    7.24    0.82
  -1   1 -17    7.52    0.86
   1   1  17    7.05    0.88
   4  -2 -17   13.16    1.12
  -4  -2  17   14.08    1.08
  -4   2  17   11.95    1.12
   4   2 -17   11.77    1.10
   3  -2 -17    1.76    0.55
  -3  -2  17    1.36    0.48
   3   2 -17    1.87    0.58
  -3   2  17    2.40    0.61
  -2  -2  17   11.83    1.01
   2  -2 -17   12.33    1.09
  -2   2  17   15.12    1.16
   2   2 -17   13.37    1.11
  -1  -2  17   27.30    1.58
   1  -2 -17   24.99    1.64
  -1   2  17   24.24    1.63
   1   2 -17   22.76    1.59
   0  -2  17    6.04    0.73
   0  -2 -17    5.14    0.76
   0   2  17    6.20    0.83
   0   2 -17    5.65    0.76
   1  -2  17    0.50    0.45
  -1  -2 -17    0.42    0.44
  -1   2 -17    0.74    0.48
   1   2  17    0.40    0.53
   3  -3 -17    9.02    0.95
   3   3 -17    8.82    0.99
  -3   3  17    9.46    0.98
   2  -3 -17   12.17    1.04
   2   3 -17   11.02    1.02
  -2   3  17   11.09    1.02
   1  -3 -17    0.59    0.46
  -1   3  17    0.75    0.51
   1   3 -17    0.38    0.44
   0  -3 -17   10.46    0.99
   0   3  17   10.65    1.05
   0   3 -17   10.18    0.96
   3   0 -18    5.30    0.80
  -3   0  18    5.50    0.81
   2   0 -18    1.53    0.51
  -2   0  18    1.53    0.54
   1   0 -18    1.05    0.52
  -1   0  18    1.76    0.56
   0   0  18    4.05    0.73
   0   0 -18    3.61    0.68
   3  -1 -18    6.48    0.85
  -3  -1  18    6.32    0.80
   3   1 -18    5.25    0.82
  -3   1  18    6.72    0.86
   2  -1 -18    4.35    0.69
  -2  -1  18    4.73    0.71
   2   1 -18    3.36    0.68
  -2   1  18    4.42    0.77
   1  -1 -18    7.76    0.91
  -1  -1  18    7.41    0.86
   1   1 -18    8.81    0.93
  -1   1  18    9.65    0.96
   0  -1  18   18.14    1.29
   0  -1 -18   16.24    1.28
   0   1  18   18.75    1.35
   0   1 -18   17.16    1.32
   3  -2 -18   10.20    1.01
  -3  -2  18   10.28    0.94
   3   2 -18    8.92    0.98
  -3   2  18    8.78    1.00
   2  -2 -18    1.02    0.52
  -2  -2  18    1.80    0.52
   2   2 -18    1.27    0.53
  -2   2  18    1.54    0.59
  -1  -2  18    0.35    0.45
   1  -2 -18   -0.12    0.44
   1   2 -18    0.01    0.44
  -1   2  18    0.24    0.48
   0   0   0    0.00    0.00
;
_shelx_hkl_checksum              46637
_shelx_shelxl_version_number     2014/7
_olex2_submission_special_instructions 'No special instructions were received'
loop_
_space_group_symop_operation_xyz
'x, y, z'
'-x, y+1/2, -z'
loop_
_atom_site_label
_atom_site_type_symbol
_atom_site_fract_x
_atom_site_fract_y
_atom_site_fract_z
_atom_site_U_iso_or_equiv
_atom_site_adp_type
_atom_site_occupancy
_atom_site_site_symmetry_order
_atom_site_calc_flag
_atom_site_refinement_flags_posn
Br1 Br -0.12518(4) 0.25082(4) 0.22959(2) 0.02850(9) Uani 1 1 d .
Si1 Si 0.70415(10) 0.23950(15) 0.79707(4) 0.02076(17) Uani 1 1 d .
O1 O 0.5613(3) 0.3584(3) 0.72086(13) 0.0303(5) Uani 1 1 d .
C1 C 0.2835(4) 0.3699(4) 0.60967(18) 0.0210(6) Uani 1 1 d .
H1 H 0.2172 0.4249 0.6500 0.025 Uiso 1 1 calc R
C2 C 0.4688(5) 0.3175(3) 0.63705(18) 0.0237(7) Uani 1 1 d .
C3 C 0.5695(4) 0.2318(5) 0.57860(17) 0.0277(7) Uani 1 1 d .
H3 H 0.6988 0.1934 0.5985 0.033 Uiso 1 1 calc R
C4 C 0.4789(4) 0.2049(4) 0.49342(19) 0.0262(8) Uani 1 1 d .
H4 H 0.5475 0.1489 0.4543 0.031 Uiso 1 1 calc R
C5 C 0.1912(4) 0.2322(5) 0.37349(16) 0.0207(6) Uani 1 1 d .
H5 H 0.2560 0.1766 0.3328 0.025 Uiso 1 1 calc R
C6 C 0.0071(4) 0.2875(4) 0.34764(17) 0.0216(8) Uani 1 1 d .
C7 C -0.0958(4) 0.3715(4) 0.40478(19) 0.0259(7) Uani 1 1 d .
H7 H -0.2251 0.4094 0.3845 0.031 Uiso 1 1 calc R
C8 C -0.0050(4) 0.3974(4) 0.49054(19) 0.0254(7) Uani 1 1 d .
H8 H -0.0732 0.4529 0.5300 0.030 Uiso 1 1 calc R
C9 C 0.2878(3) 0.2578(5) 0.46233(15) 0.0198(5) Uani 1 1 d .
C10 C 0.1870(4) 0.3435(4) 0.52112(18) 0.0187(6) Uani 1 1 d .
C11 C 0.6131(5) 0.0123(5) 0.7920(2) 0.0409(9) Uani 1 1 d .
H11A H 0.6249 -0.0402 0.7357 0.061 Uiso 1 1 calc GR
H11B H 0.4769 0.0125 0.7974 0.061 Uiso 1 1 calc GR
H11C H 0.6892 -0.0557 0.8402 0.061 Uiso 1 1 calc GR
C12 C 0.9558(4) 0.2446(6) 0.77841(18) 0.0346(7) Uani 1 1 d .
H12A H 0.9617 0.1845 0.7232 0.052 Uiso 1 1 calc GR
H12B H 1.0415 0.1857 0.8272 0.052 Uiso 1 1 calc GR
H12C H 0.9972 0.3662 0.7750 0.052 Uiso 1 1 calc GR
C13 C 0.6819(4) 0.3549(4) 0.90173(18) 0.0267(7) Uani 1 1 d .
C14 C 0.4759(5) 0.3350(5) 0.9178(2) 0.0403(9) Uani 1 1 d .
H14A H 0.4649 0.3953 0.9723 0.060 Uiso 1 1 calc GR
H14B H 0.4465 0.2106 0.9230 0.060 Uiso 1 1 calc GR
H14C H 0.3844 0.3861 0.8685 0.060 Uiso 1 1 calc GR
C15 C 0.7231(5) 0.5507(4) 0.8932(2) 0.0365(8) Uani 1 1 d .
H15A H 0.7160 0.6100 0.9485 0.055 Uiso 1 1 calc GR
H15B H 0.6268 0.6010 0.8454 0.055 Uiso 1 1 calc GR
H15C H 0.8527 0.5659 0.8804 0.055 Uiso 1 1 calc GR
C16 C 0.8253(6) 0.2785(8) 0.9790(2) 0.0572(12) Uani 1 1 d .
H16A H 0.8122 0.3391 1.0332 0.086 Uiso 1 1 calc GR
H16B H 0.9573 0.2936 0.9690 0.086 Uiso 1 1 calc GR
H16C H 0.7987 0.1537 0.9845 0.086 Uiso 1 1 calc GR
loop_
_atom_site_aniso_label
_atom_site_aniso_U_11
_atom_site_aniso_U_22
_atom_site_aniso_U_33
_atom_site_aniso_U_23
_atom_site_aniso_U_13
_atom_site_aniso_U_12
Br1 0.03422(15) 0.02614(16) 0.02241(13) -0.00120(19) -0.00106(9) 0.0055(2)
Si1 0.0204(3) 0.0158(5) 0.0254(3) 0.0009(5) 0.0030(3) -0.0007(5)
O1 0.0416(14) 0.0257(12) 0.0200(11) -0.0036(9) -0.0023(9) 0.0104(11)
C1 0.0307(17) 0.0142(16) 0.0206(14) 0.0000(11) 0.0111(12) 0.0016(13)
C2 0.0338(18) 0.0166(17) 0.0199(15) -0.0004(10) 0.0034(13) 0.0015(12)
C3 0.0268(14) 0.025(2) 0.0294(13) -0.0057(17) 0.0013(10) 0.0058(18)
C4 0.0262(16) 0.027(2) 0.0275(14) -0.0046(12) 0.0101(12) 0.0044(12)
C5 0.0276(14) 0.0149(18) 0.0217(12) 0.0021(15) 0.0100(10) 0.0013(16)
C6 0.0299(16) 0.016(2) 0.0187(12) 0.0026(11) 0.0046(11) -0.0012(12)
C7 0.0276(17) 0.0208(18) 0.0298(16) -0.0006(13) 0.0066(13) 0.0059(14)
C8 0.0259(17) 0.0235(19) 0.0299(17) -0.0041(13) 0.0132(13) 0.0040(13)
C9 0.0245(13) 0.0124(13) 0.0246(12) 0.0028(19) 0.0100(9) -0.005(2)
C10 0.0239(16) 0.0121(14) 0.0224(14) 0.0009(11) 0.0100(12) -0.0017(13)
C11 0.040(2) 0.026(2) 0.058(2) -0.0005(16) 0.0119(18) -0.0078(16)
C12 0.0268(14) 0.0277(17) 0.0513(17) -0.005(3) 0.0124(12) 0.000(2)
C13 0.0269(17) 0.0324(19) 0.0196(15) 0.0007(13) 0.0023(12) -0.0017(15)
C14 0.045(2) 0.042(2) 0.039(2) -0.0045(16) 0.0209(17) -0.0053(17)
C15 0.046(2) 0.034(2) 0.0324(18) -0.0152(15) 0.0131(15) -0.0134(16)
C16 0.065(2) 0.074(4) 0.0258(16) 0.008(2) -0.0083(15) 0.014(3)
loop_
_atom_type_symbol
_atom_type_description
_atom_type_scat_dispersion_real
_atom_type_scat_dispersion_imag
_atom_type_scat_source
C C 0.0033 0.0016 'International Tables Vol C Tables 4.2.6.8 and 6.1.1.4'
H H 0.0000 0.0000 'International Tables Vol C Tables 4.2.6.8 and 6.1.1.4'
Br Br -0.2901 2.4595 'International Tables Vol C Tables 4.2.6.8 and 6.1.1.4'
O O 0.0106 0.0060 'International Tables Vol C Tables 4.2.6.8 and 6.1.1.4'
Si Si 0.0817 0.0704 'International Tables Vol C Tables 4.2.6.8 and 6.1.1.4'
loop_
_geom_angle_atom_site_label_1
_geom_angle_atom_site_label_2
_geom_angle_atom_site_label_3
_geom_angle
O1 Si1 C11 109.08(14)
O1 Si1 C12 109.95(15)
O1 Si1 C13 102.43(13)
C11 Si1 C12 110.4(2)
C11 Si1 C13 112.97(15)
C12 Si1 C13 111.72(15)
C2 O1 Si1 131.11(19)
C2 C1 C10 120.7(3)
O1 C2 C3 120.5(3)
C1 C2 O1 118.7(3)
C1 C2 C3 120.7(3)
C4 C3 C2 119.4(3)
C3 C4 C9 121.7(3)
C6 C5 C9 119.5(3)
C5 C6 Br1 120.0(2)
C5 C6 C7 122.8(3)
C7 C6 Br1 117.3(2)
C8 C7 C6 118.5(3)
C7 C8 C10 121.3(3)
C4 C9 C5 122.6(3)
C4 C9 C10 118.8(2)
C10 C9 C5 118.6(3)
C8 C10 C1 122.0(3)
C8 C10 C9 119.3(3)
C9 C10 C1 118.7(3)
C14 C13 Si1 109.7(2)
C14 C13 C15 108.2(3)
C15 C13 Si1 109.5(2)
C16 C13 Si1 110.1(2)
C16 C13 C14 109.7(3)
C16 C13 C15 109.5(3)
loop_
_geom_bond_atom_site_label_1
_geom_bond_atom_site_label_2
_geom_bond_distance
Br1 C6 1.906(3)
Si1 O1 1.664(2)
Si1 C11 1.849(4)
Si1 C12 1.854(2)
Si1 C13 1.882(3)
O1 C2 1.371(3)
C1 C2 1.352(4)
C1 C10 1.423(4)
C2 C3 1.418(4)
C3 C4 1.365(4)
C4 C9 1.399(4)
C5 C6 1.349(4)
C5 C9 1.426(3)
C6 C7 1.406(4)
C7 C8 1.373(4)
C8 C10 1.405(4)
C9 C10 1.422(4)
C13 C14 1.529(4)
C13 C15 1.536(4)
C13 C16 1.525(4)
