#------------------------------------------------------------------------------
#$Date: 2016-05-06 05:21:22 +0300 (Fri, 06 May 2016) $
#$Revision: 182801 $
#$URL: svn://www.crystallography.net/cod/cif/7/22/43/7224311.cif $
#------------------------------------------------------------------------------
#
# This file is available in the Crystallography Open Database (COD),
# http://www.crystallography.net/
#
# All data on this site have been placed in the public domain by the
# contributors.
#
data_7224311
loop_
_publ_author_name
'Sieradzki, A.'
'Pawlus, S.'
'Tripathy, S. N.'
'G\;agor, A'
'Ciupa, A.'
'M\;aczka, M'
'Paluch, M.'
_publ_section_title
;
 Dielectric relaxation behavior in antiferroelectric metal organic
 framework [(CH3)2NH2][Fe(III)Fe(II)(HCOO)6] single crystals.
;
_journal_issue                   12
_journal_name_full               'Physical chemistry chemical physics : PCCP'
_journal_page_first              8462
_journal_page_last               8467
_journal_paper_doi               10.1039/c6cp00064a
_journal_volume                  18
_journal_year                    2016
_chemical_formula_sum            'C8 H14 Fe2 N O12'
_chemical_formula_weight         427.91
_space_group_crystal_system      trigonal
_space_group_IT_number           163
_space_group_name_Hall           '-P 3 2c'
_space_group_name_H-M_alt        'P -3 1 c'
_symmetry_space_group_name_Hall  '-P 3 2c'
_symmetry_space_group_name_H-M   'P -3 1 c'
_atom_sites_solution_hydrogens   mixed
_audit_creation_method           SHELXL-2014/7
_cell_angle_alpha                90
_cell_angle_beta                 90
_cell_angle_gamma                120
_cell_formula_units_Z            2
_cell_length_a                   8.2603(3)
_cell_length_b                   8.2603(3)
_cell_length_c                   13.8466(4)
_cell_measurement_reflns_used    3151
_cell_measurement_temperature    159.97(18)
_cell_measurement_theta_max      28.9930
_cell_measurement_theta_min      2.8360
_cell_volume                     818.21(5)
_computing_cell_refinement       'CrysAlisPro 1.171.38.41 (Rigaku OD, 2015)'
_computing_data_collection       'CrysAlisPro 1.171.38.41 (Rigaku OD, 2015)'
_computing_data_reduction        'CrysAlisPro 1.171.38.41 (Rigaku OD, 2015)'
_computing_structure_refinement  'SHELXL-2014/7 (Sheldrick, 2014)'
_diffrn_ambient_environment      N~2~
_diffrn_ambient_temperature      159.97(18)
_diffrn_detector                 'CCD plate'
_diffrn_detector_area_resol_mean 10.6249
_diffrn_detector_type            Atlas
_diffrn_measured_fraction_theta_full 0.986
_diffrn_measured_fraction_theta_max 0.939
_diffrn_measurement_device       'four-circle diffractometer'
_diffrn_measurement_device_type  'Xcalibur, Atlas'
_diffrn_radiation_monochromator  graphite
_diffrn_radiation_probe          x-ray
_diffrn_radiation_type           'Mo K\a'
_diffrn_radiation_wavelength     0.71073
_diffrn_reflns_av_R_equivalents  0.0216
_diffrn_reflns_av_unetI/netI     0.0148
_diffrn_reflns_Laue_measured_fraction_full 0.986
_diffrn_reflns_Laue_measured_fraction_max 0.939
_diffrn_reflns_limit_h_max       10
_diffrn_reflns_limit_h_min       -11
_diffrn_reflns_limit_k_max       10
_diffrn_reflns_limit_k_min       -10
_diffrn_reflns_limit_l_max       18
_diffrn_reflns_limit_l_min       -17
_diffrn_reflns_number            5752
_diffrn_reflns_point_group_measured_fraction_full 0.986
_diffrn_reflns_point_group_measured_fraction_max 0.939
_diffrn_reflns_theta_full        28.000
_diffrn_reflns_theta_max         29.403
_diffrn_reflns_theta_min         2.847
_diffrn_source                   'fine-focus sealed X-ray tube'
_diffrn_source_type              'Enhance (Mo) X-ray Source'
_exptl_absorpt_coefficient_mu    1.831
_exptl_absorpt_correction_T_max  1.00000
_exptl_absorpt_correction_T_min  0.88904
_exptl_absorpt_correction_type   multi-scan
_exptl_absorpt_process_details
;
CrysAlisPro 1.171.38.41 (Rigaku Oxford Diffraction, 2015)
Empirical absorption correction using spherical harmonics,
 implemented in SCALE3 ABSPACK scaling algorithm.
;
_exptl_crystal_density_diffrn    1.737
_exptl_crystal_description       column
_exptl_crystal_F_000             434
_exptl_crystal_size_max          0.20
_exptl_crystal_size_mid          0.08
_exptl_crystal_size_min          0.06
_refine_diff_density_max         0.257
_refine_diff_density_min         -0.283
_refine_diff_density_rms         0.052
_refine_ls_extinction_method     none
_refine_ls_goodness_of_fit_ref   1.041
_refine_ls_hydrogen_treatment    constr
_refine_ls_matrix_type           full
_refine_ls_number_parameters     40
_refine_ls_number_reflns         723
_refine_ls_number_restraints     2
_refine_ls_restrained_S_all      1.054
_refine_ls_R_factor_all          0.0270
_refine_ls_R_factor_gt           0.0216
_refine_ls_shift/su_max          0.000
_refine_ls_shift/su_mean         0.000
_refine_ls_structure_factor_coef Fsqd
_refine_ls_weighting_details
'w=1/[\s^2^(Fo^2^)+(0.0200P)^2^+0.5900P] where P=(Fo^2^+2Fc^2^)/3'
_refine_ls_weighting_scheme      calc
_refine_ls_wR_factor_gt          0.0480
_refine_ls_wR_factor_ref         0.0499
_reflns_Friedel_coverage         0.000
_reflns_number_gt                641
_reflns_number_total             723
_reflns_threshold_expression     'I > 2\s(I)'
_cod_data_source_file            c6cp00064a6.cif
_cod_data_source_block           160K
_cod_depositor_comments
;Adding full bibliography for 7224310--7224314.cif.

 Adding full bibliography for 7224310--7224314.cif.
;
_cod_original_cell_volume        818.20(6)
_cod_database_code               7224311
_shelx_shelxl_version_number     2014/7
_shelx_space_group_comment
;
The symmetry employed for this shelxl refinement is uniquely defined
by the following loop, which should always be used as a source of
symmetry information in preference to the above space-group names.
They are only intended as comments.
;
_oxdiff_exptl_absorpt_empirical_full_min 0.961
_oxdiff_exptl_absorpt_empirical_full_max 1.088
_oxdiff_exptl_absorpt_empirical_details
;
Empirical correction (ABSPACK) includes:
- Absorption correction using spherical harmonics
- Frame scaling
;
_shelx_res_file
;

    160k.res created by SHELXL-2014/7


TITL DMA_FeFe_temp_1_160_00 in P-31c
REM P-31c (#163 in standard setting)
CELL 0.71073   8.260262   8.260262  13.846614  90.0000  90.0000 120.0000
ZERR    3.00   0.000253   0.000253   0.000388   0.0000   0.0000   0.0000
LATT  1
SYMM -Y, X-Y, Z
SYMM -X+Y, -X, Z
SYMM -Y, -X, 0.5-Z
SYMM -X+Y, Y, 0.5-Z
SYMM X, X-Y, 0.5-Z
SFAC C H O N FE
UNIT 16 28 24 2 4

L.S. 12
BOND
FMAP 2
PLAN 20
htab
eqiv $1   -y+1, x-y+1, z
eqiv $2   -x+y, -x+1, z
eqiv $3   -y+1, -x+1, -z+1/2
eqiv $4   -x+y, y, -z+1/2
eqiv $5   x, x-y+1, -z+1/2
eqiv $6   -x, -y+2, -z
eqiv $7   -y+1, x-y+2, z
eqiv $8   y-1, -x+y, -z
eqiv $9   -x+y-1, -x+1, z
eqiv $10  x-y+1, x+1, -z
eqiv $11  -y+1, -x+1, -z+3/2
eqiv $12  -x+y, y, -z+3/2
eqiv $13  x, x-y+1, -z+3/2
eqiv $14 x-y+1, -y+1, z+1/2
eqiv $15 y, -x+y, -z+1
eqiv $16 -x, -y+1, -z+1
EQIV $17 x-y+1, x+1, -z+1
eadp c2 c21
htab N1 O1_$14
htab N1  O1_$15
htab N1 O1_$16
HTAB C2 O2_$17

free C2 N1_$2
free C2 N1_$1
free C21 N1_$11
free C2 c21_$11
free C21 C2_$11
free C21 N1_$2
free C21 N1_$1
free C21 N1_$12
free C21 N1_$11
free C21 N1_$13
free C21 C21_$11

free N1 N1_$12
free N1 N1_$1
free N1 N1_$2
free N1 N1_$11
free N1 C21_$11
free N1 N1_$13
dfix 1.43 0.01 n1 c2
dfix 1.43 0.01 n1 c21
acta 56

WGHT    0.020000    0.590000
FVAR       3.01113
MOLE   1
FE1   5    0.333333    0.666667    0.250000    10.16667    0.01077    0.01077 =
         0.01399    0.00000    0.00000    0.00538

FE2   5    0.000000    1.000000    0.000000    10.16667    0.00935    0.00935 =
         0.01145    0.00000    0.00000    0.00467
O1    3    0.113911    0.658014    0.166532    11.00000    0.02405    0.02084 =
         0.03171    0.00724   -0.00749    0.01120
O2    3   -0.012912    0.793410    0.081807    11.00000    0.01661    0.01555 =
         0.02130    0.00469   -0.00204    0.00857
C1    1    0.124625    0.788903    0.118416    11.00000    0.01773    0.01794 =
         0.02328    0.00449   -0.00056    0.00911
AFIX  43
H1    2    0.242839    0.891767    0.108431    11.00000   -1.20000
AFIX   0
C2    1    0.333333    0.666667    0.867286    10.16667    0.03783    0.03783 =
         0.13265    0.00000    0.00000    0.01891
AFIX 133
H2A   2    0.459110    0.769788    0.864399    10.16667   -1.50000
H2B   2    0.322380    0.585516    0.919601    10.16667   -1.50000
H2C   2    0.248715    0.712915    0.877518    10.16667   -1.50000
AFIX   0

C21   1    0.333333    0.666667    0.686601    10.16667    0.03783    0.03783 =
         0.13265    0.00000    0.00000    0.01891
AFIX 133
H21A  2    0.462117    0.711401    0.671027    10.16667   -1.50000
H21B  2    0.313298    0.770905    0.693938    10.16667   -1.50000
H21C  2    0.255375    0.587235    0.635588    10.16667   -1.50000
AFIX   0
N1    4    0.286997    0.562014    0.775765    10.16667    0.03184
AFIX  23
H1A   2    0.344156    0.494893    0.775545    10.16667   -1.20000
H1B   2    0.164556    0.481689    0.775545    10.16667   -1.20000
AFIX   0
HKLF 4

REM  DMA_FeFe_temp_1_160_00 in P-31c
REM R1 =  0.0215 for     641 Fo > 4sig(Fo)  and  0.0270 for all     723 data
REM     40 parameters refined using      2 restraints

END

WGHT      0.0247      0.4146

REM Instructions for potential hydrogen bonds
HTAB C1 O1_$2
HTAB C2 O2_$17
HTAB N1 O1_$15
HTAB N1 O1_$14
HTAB N1 O1_$16

REM Highest difference peak  0.257,  deepest hole -0.283,  1-sigma level  0.052
Q1    1   0.0097  0.8711  0.0572  11.00000  0.05    0.22
Q2    1   0.1370  0.6927  0.1280  11.00000  0.05    0.18
Q3    1   0.2562  0.8597  0.0631  11.00000  0.05    0.18
Q4    1   0.1164  0.6688  0.2070  11.00000  0.05    0.16
Q5    1   0.0385  0.7937  0.0936  11.00000  0.05    0.15
Q6    1   0.1797  0.6625  0.1435  11.00000  0.05    0.15
Q7    1   0.2341  0.9279  0.1404  11.00000  0.05    0.15
Q8    1   0.3794  0.8396  0.0615  11.00000  0.05    0.15
Q9    1   0.2005  0.6608  0.1933  11.00000  0.05    0.15
Q10   1  -0.0668  0.7161  0.0621  11.00000  0.05    0.15
Q11   1   0.0238  0.8431  0.1182  11.00000  0.05    0.14
Q12   1   0.0739  0.6980  0.1556  11.00000  0.05    0.13
Q13   1   0.3985  0.6409  0.9327  11.00000  0.05    0.12
Q14   1   0.1771  0.8807  0.0134  11.00000  0.05    0.11
Q15   1   0.3098  0.9641  0.1711  11.00000  0.05    0.11
Q16   1   0.2965  0.9322  0.0149  11.00000  0.05    0.10
Q17   1   0.5303  0.6093  0.9388  11.00000  0.05    0.10
Q18   1   0.1760  0.5125  0.8236  11.00000  0.05    0.10
Q19   1  -0.1126  0.6533  0.1088  11.00000  0.05    0.10
Q20   1   0.2169  0.8166  0.8671  11.00000  0.05    0.10
;
_shelx_res_checksum              79134
_shelx_hkl_file
;
   0   0   2 2227.69 66.0363   4
   0   0   2 77.9906 15.3417   3
   0   0  -2 2357.66 55.3927   2
   0   0   2 1.67067 13.7204   2
   0   0  -2 1535.82 57.9725   4
   0   0   3 0.09700 21.0786   3
   0   0   3 0.64913 23.1398   2
   0   0   3 6.24391 27.9162   4
   0   0  -3-21.5048 24.5111   2
   0   0  -3 8.57433 32.1825   4
   0   0   4 19259.9 218.207   2
   0   0   4 19325.9 199.575   3
   0   0   4 19808.3 273.542   4
   0   0  -4 19209.7 217.967   2
   0   0  -4 19416.5 275.803   4
   0   0  -5 2.30700 29.1664   2
   0   0   5-27.1918 25.2501   3
   0   0  -5 6.34110 38.7769   4
   0   0   5 12.9268 34.6824   4
   0   0   5-6.86730 27.9096   2
   0   0   6 1846.19 86.2578   2
   0   0   6 2067.00 82.7549   3
   0   0  -6 2059.33 91.1552   2
   0   0  -6 1907.58 113.572   4
   0   0   6 1975.44 113.797   4
   0   0   7 2.41588 27.0136   3
   0   0   7-15.6647 28.1569   2
   0   0   7-23.4434 38.4934   4
   0   0  -7 17.4137 33.0421   2
   0   0  -7 1.41767 45.3254   4
   0   0   8 19002.9 390.415   4
   0   0  -8 18766.7 304.719   2
   0   0   8 18940.8 279.173   3
   0   0   8 18473.3 307.444   2
   0   0  -8 19084.7 389.164   4
   0   0   9-3.88144 28.3334   3
   0   0   9 0.95703 46.7709   1
   0   0   9 4.75882 30.3595   2
   0   0   9 50.5891 53.3884   4
   0   0  10 674.563 71.4199   2
   0   0  10 774.952 101.145   1
   0   0  10 815.377 70.7926   3
   0   0  11-14.5627 59.5571   1
   0   0  11 114.179 45.6929   2
   0   0  11 26.4569 34.1291   3
   0   0  12 49718.3 802.715   1
   0   0  12 49166.1 612.885   2
   0   0  12 50220.3 555.691   3
   0   0  13 31.0434 31.9435   3
   0   0  13-7.10791 38.3759   2
   0   0  13-19.2898 61.2828   1
   0   0  14 118.888 45.0690   3
   0   0  14 18.4031 55.8715   1
   0   0  15 18.3736 64.8326   1
   0   0  16 7814.11 391.844   1
   0   0  17 72.0702 75.9521   1
   0  -1   0 14065.6 164.390   2
   1   0   0 14591.7 149.097   2
  -1   1   0 14349.8 152.740   3
   0  -1  -1 26909.0 242.330   1
   1   0  -1 27300.8 166.168   2
   0   1   1 19325.0 203.137   2
   1  -1  -1 24844.6 229.694   3
   1   0   1 27760.4 240.441   2
   0   1   1 27624.9 240.202   3
  -1   0  -1 27982.9 242.780   2
   0   1  -1 27134.6 234.940   4
  -1   1   1 27364.4 241.016   3
  -1   1  -1 27546.8 195.004   4
   0  -1  -1 27617.7 243.150   2
   0  -1  -1 27142.9 242.554   3
  -1   1  -1 27482.6 177.162   3
  -1   1   2 119898. 562.392   3
   0  -1  -2 118893. 533.453   3
  -1   1  -2 119578. 529.242   4
   0  -1   2 120049. 569.094   4
  -1   1   2 120712. 532.421   1
  -1   1   2 120026. 416.720   4
   1  -1  -2 118192. 560.268   3
   0   1  -2 120076. 568.040   4
   0   1   2 121943. 527.445   3
   0   1   2 121057. 580.987   1
  -1   0  -2 120295. 572.724   2
   1  -1   2 121248. 531.070   4
   1   0  -2 121254. 550.913   4
  -1   0   2 119963. 544.078   4
   0   1   2 120713. 545.584   2
   1  -1  -2 122061. 533.850   1
   0  -1  -2 121490. 543.121   2
   1  -1  -2 123714. 406.255   2
   1   0   2 120464. 570.599   2
   1  -1  -2 121187. 417.280   4
   0  -1  -2 120539. 577.413   1
   1  -1   3 4696.37 126.772   4
   0  -1  -3 4324.32 130.414   1
   0   1   3 4572.49 113.695   3
   0   1   3 4432.00 117.150   2
  -1   1   3 4513.45 86.0776   2
   0  -1  -3 4234.14 112.143   3
   1   0   3 4601.76 126.456   2
  -1   1  -3 4457.81 126.190   4
   1   0  -3 4563.88 125.444   4
   0   1  -3 4401.75 130.336   4
   0  -1  -3 4637.78 119.847   2
  -1   0   3 4443.04 123.367   4
   0  -1   3 4543.09 130.876   4
   1  -1  -3 4693.60 108.794   4
  -1   0  -3 4781.50 130.559   2
   1  -1  -3 4603.99 85.1499   2
   1  -1   3 4204.75 122.780   2
  -1   0  -3 4567.59 80.7291   3
  -1   1   3 4667.06 125.177   3
  -1   1   3 4485.83 107.304   4
   1  -1  -3 4373.91 121.222   1
  -1   1   3 4252.92 120.357   1
   0   1   3 4988.17 139.669   1
   0   1  -4 263.024 55.9327   4
   1  -1  -4 246.042 42.2937   4
   1   0   4 265.914 26.9892   3
  -1   1   4 271.376 45.1820   3
   1  -1   4 317.662 46.4885   2
   1  -1  -4 278.239 30.4401   2
   1   0  -4 305.170 54.6276   4
   1  -1  -4 302.776 46.0529   1
   0   1   4 293.387 58.6303   1
   1   0   4 269.038 45.2543   2
   0  -1  -4 225.090 48.6276   1
   0   1   4 295.646 41.7004   2
  -1   0  -4 291.899 27.3874   3
  -1   0  -4 337.854 54.1201   2
   1  -1   4 258.004 50.5950   4
  -1   0   4 260.441 43.1310   4
   0  -1   4 271.865 50.0443   4
  -1   0   4 272.449 20.3371   2
   0  -1  -4 230.282 37.5129   3
   0   1   4 285.505 43.1909   3
  -1   1   4 255.757 39.1331   4
  -1   1  -4 242.543 47.1261   4
  -1   1   4 233.334 47.7207   1
  -1   1   4 286.840 30.8517   2
   0  -1  -4 255.447 44.0084   2
   1  -1  -5 414.693 53.8348   4
   0   1   5 491.001 58.6455   4
   1  -1   5 341.211 51.8318   4
  -1   0   5 330.182 27.1163   2
  -1   0  -5 406.421 32.7716   3
   1  -1  -5 375.710 36.0961   2
   0  -1  -5 374.395 50.9091   2
  -1   1   5 423.637 39.6241   2
   0   1   5 359.164 59.2281   1
  -1   1  -5 387.670 59.5888   4
   0   1   5 447.543 48.8394   2
  -1   1   5 375.658 51.4105   3
   1  -1   5 307.032 43.5822   2
  -1   0  -5 311.929 52.0475   2
   0   1  -5 315.420 57.8979   4
   1   0   5 401.539 54.1537   2
  -1   0   5 253.971 50.8759   4
   1   0  -5 262.477 52.2051   4
  -1   1   5 300.435 53.9378   1
   0  -1  -5 383.579 46.5227   3
   1  -1   5 364.778 22.0852   3
   0  -1   5 362.273 55.3608   4
   1   0   5 306.523 57.9350   4
   1   0   5 407.877 33.1750   3
  -1   1   5 341.664 48.8550   4
   0   1   5 411.495 48.1287   3
   1  -1   6 703.191 34.0175   3
   0  -1   6 692.541 79.6978   4
   1  -1   6 673.030 75.7331   4
  -1   1  -6 574.108 72.6880   4
   1   0   6 557.891 61.0893   2
  -1   1   6 647.724 62.5923   3
   1  -1  -6 654.945 69.9689   4
  -1   1   6 690.961 48.9188   2
   0  -1  -6 618.059 54.4313   3
   0  -1   6 632.782 56.8164   2
  -1   1   6 779.096 76.1947   1
  -1   0   6 677.184 41.7859   2
  -1   0  -6 674.382 67.8231   2
   1  -1  -6 816.778 53.0206   2
   0   1   6 632.368 57.7994   3
  -1   0   6 696.893 75.2214   4
   0  -1  -6 735.989 65.3729   2
   1  -1   6 670.862 65.1560   2
  -1   1   6 626.868 64.1200   4
   0   1  -6 581.716 71.8343   4
   1   0  -6 628.384 73.7849   4
   1   0   6 540.415 69.5810   4
   0   1   6 660.911 61.4653   2
   1   0   6 655.156 41.0874   3
   0   1   6 486.872 63.0038   4
   0   1   6 631.480 75.6718   1
  -1   0  -6 815.592 46.5775   3
   1  -1  -7 3501.67 156.457   4
   0   1  -7 3618.77 169.167   4
  -1   0  -7 3394.74 147.392   2
   1   0   7 3839.99 171.378   4
   0  -1   7 3673.73 169.942   4
  -1   0   7 3597.52 98.9240   2
   0  -1   7 3508.98 125.367   2
   1   0  -7 3625.63 162.264   4
   0   1   7 3358.17 124.806   3
  -1   1   7 3666.30 141.871   3
   0  -1  -7 3474.74 128.964   3
  -1   1   7 3567.83 161.489   1
   0   1   7 3485.13 158.777   4
   1   0   7 3359.42 94.7382   3
  -1   0   7 3406.66 158.361   4
   0   1   7 3681.37 139.278   2
  -1   1   7 3754.18 158.978   4
   0   1   7 3519.35 166.556   1
   0  -1  -7 3691.25 140.696   2
   1  -1   7 3404.01 162.547   4
  -1   1  -7 3521.57 167.130   4
   1   0   7 3348.68 142.010   2
   1  -1   7 3453.34 81.0617   3
   1  -1  -7 3443.89 109.547   2
   1  -1   7 3438.77 142.865   2
  -1   1   7 3588.22 110.506   2
  -1   1   8 1216.92 89.8483   3
   1   0  -8 1176.44 106.908   4
   0   1   8 1067.13 103.783   1
  -1   0   8 1236.60 106.887   4
   1  -1   8 1133.98 89.6975   2
   1   0   8 1122.58 60.8690   3
   0   1   8 1079.86 98.3607   4
   0  -1   8 1032.23 102.758   4
   0   1   8 1071.30 84.2257   2
   1   0   8 1116.77 108.539   1
   1   0   8 1245.31 112.274   4
   1   0   8 1148.27 93.4324   2
  -1   1   8 1331.30 110.702   1
   1  -1  -8 1067.20 68.3480   2
  -1   1   8 1124.61 98.8034   4
  -1   0   8 1064.67 98.0649   1
   0  -1   8 958.839 75.0464   2
  -1   1   8 1041.40 68.5577   2
   0  -1  -8 1305.27 92.0195   2
  -1   0  -8 1070.76 90.9156   2
  -1   0   8 1139.59 63.0020   2
   1  -1   8 1175.17 107.170   4
   1  -1   8 1065.76 51.3856   3
   0   1   8 1105.92 79.3280   3
   0   1  -8 1093.29 108.501   4
   1   0  -9 7191.07 258.043   4
   0   1   9 7170.54 199.172   3
   1   0   9 7001.80 267.210   1
  -1   1   9 7334.42 219.611   3
   0   1   9 7337.40 268.554   1
   1  -1   9 7174.39 229.336   2
  -1   0  -9 6691.09 226.626   2
   0   1   9 7130.63 216.133   2
  -1   1   9 7750.08 260.648   4
  -1   0   9 7303.88 167.857   2
   1  -1   9 7080.53 138.630   3
   0   1   9 6738.16 250.560   4
   0  -1  -9 7421.76 220.221   2
   1   0   9 7261.48 158.624   3
   0  -1   9 7577.76 272.262   4
  -1   0   9 7580.78 258.990   1
   1  -1  -9 7048.40 179.573   2
  -1   1   9 7039.95 181.123   2
  -1   1   9 7218.09 258.187   1
   1   0   9 7038.10 230.414   2
  -1   0   9 6971.26 257.689   4
  -1   0   9 7308.56 215.006   3
   0  -1   9 6791.68 199.251   2
   0   1  -9 7155.99 264.286   4
   1   0   9 7101.29 261.320   4
   1  -1 -10 24356.7 353.701   2
   1  -1  10 23867.9 432.167   2
  -1   0  10 24406.4 406.095   3
   0   1 -10 24625.1 512.459   4
  -1   1  10 24942.5 355.776   2
  -1   1  10 24898.3 501.449   1
   0   1  10 24856.9 420.835   2
   0  -1  10 24797.3 391.204   2
  -1   1  10 24709.8 418.283   3
   1   0  10 24388.1 444.994   2
  -1   0  10 23771.4 486.271   1
   0  -1 -10 24134.9 413.562   2
  -1   0  10 24003.9 328.675   2
  -1   0 -10 24550.7 446.546   2
   1   0  10 24657.4 519.835   1
   0   1  10 24344.4 516.711   1
   1   0 -10 23927.4 496.369   4
   0   1  10 25221.3 388.731   3
   1   0  10 24658.6 306.375   3
   0  -1  10 25165.9 359.624   3
   1  -1  10 24713.8 274.727   3
  -1   1  11 5918.68 266.466   1
   0   1 -11 5723.83 265.984   4
   0  -1  11 5323.01 195.714   2
   0  -1 -11 5859.98 216.903   2
   1   0 -11 5330.20 252.993   4
  -1   1  11 5543.93 178.402   2
   0   1  11 5464.97 209.342   2
   1  -1  11 5532.05 219.290   2
   0   1  11 5427.10 257.914   1
   1  -1 -11 5620.85 183.003   2
   1  -1  11 5498.97 137.377   3
  -1   0 -11 6189.88 237.495   2
  -1   0  11 5378.00 201.333   3
   0  -1  11 5691.75 179.694   3
   1   0  11 5816.69 271.813   1
   0   1  11 5790.61 196.397   3
  -1   0  11 5576.31 250.911   1
   1   0  11 5625.64 155.898   3
   1   0  11 5563.91 225.161   2
  -1   1  11 5418.82 205.536   3
  -1   0  11 5486.20 167.224   2
  -1   0  12 2641.69 124.263   2
  -1   1  12 2659.54 154.074   3
  -1   0  12 2752.74 151.323   3
   1   0  12 2533.46 192.634   1
   0   1  12 2723.28 155.950   2
   0  -1 -12 2626.08 155.380   2
   1   0  12 2547.51 159.293   2
   0  -1  12 2734.06 130.063   3
  -1   1  12 2761.66 191.247   1
   0  -1  12 2665.11 145.646   2
  -1   1  12 2640.63 132.276   2
   1   0  12 2706.07 112.589   3
   1  -1  12 2510.79 156.340   2
   1  -1  12 2535.81 98.4213   3
   0   1  12 2692.75 197.311   1
  -1   0  12 2855.22 194.550   1
   0   1  12 2747.65 143.217   3
   0   1 -12 2636.71 194.912   4
   1   0 -12 2722.28 191.497   4
   0   1  13 4413.90 185.273   3
   0  -1  13 4102.33 187.440   2
   1  -1  13 4313.56 130.700   3
   1   0  13 4146.98 257.898   1
  -1   1  13 4637.06 204.550   3
   0  -1  13 4341.65 254.223   1
  -1   1  13 4179.97 173.417   2
   1   0  13 4207.65 143.830   3
  -1   0  13 4308.37 193.043   3
  -1   0  13 4553.65 254.457   1
   0  -1  13 4500.42 170.295   3
  -1   0  13 4036.23 159.539   2
   0   1  13 4511.07 263.041   1
  -1   1  13 4479.39 255.655   1
   0  -1 -13 4872.60 211.977   2
   0   1  13 4172.61 199.292   2
   0   1  14 10048.5 407.254   1
   0   1  14 9857.91 280.513   3
   1  -1  14 10305.4 412.378   1
   1   0  14 9942.07 409.308   1
   0  -1  14 10202.0 401.569   1
  -1   1  14 10201.2 311.866   3
  -1   0  14 9792.03 298.436   3
  -1   0  14 10142.3 399.528   1
   0  -1  14 10344.1 262.956   3
  -1   1  14 9721.61 392.965   1
   0  -1  15 2336.94 208.167   1
   1   0  15 2626.11 224.795   1
  -1   1  15 2530.66 213.398   1
   1  -1  15 2678.79 226.133   1
  -1   0  15 2259.07 150.765   3
  -1   1  15 2387.88 157.458   3
   0   1  15 2707.11 226.715   1
  -1   0  15 2081.05 193.433   1
   0  -1  16 523.469 124.912   1
  -1   1  16 533.126 111.127   1
  -1   0  16 721.275 133.262   1
   0   1  16 454.665 114.785   1
   1  -1  16 461.552 113.726   1
   1   0  16 760.884 138.329   1
  -1   1  17 659.469 136.632   1
  -1   0  17 876.098 144.793   1
   0  -1  17 408.656 110.435   1
   1  -1  17 590.984 128.756   1
   1   0  17 451.229 116.654   1
   0   1  17 589.301 133.980   1
  -2   1  18-152.162 95.2924   1
   1   1  17 188.487 103.166   1
   1  -2  17-117.416 96.5080   1
  -2   1  17 30.0011 79.3743   1
   1   1  16 6277.49 364.310   1
  -2   1  16 5373.93 314.554   1
  -2   1  16 5527.20 263.539   3
   1  -2  16 6225.46 355.293   1
  -1  -1 -15-62.5979 54.3867   2
  -2   1  15-17.9339 51.5284   3
  -2   1  15-205.753 96.9392   1
   1   1  15 127.677 85.0827   1
  -1  -1 -14 1259.72 133.616   2
   1   1  14 1389.95 164.378   1
  -2   1  14 1146.35 120.755   3
  -2   1  14 1534.58 163.180   1
   1   1  13 46.7144 81.0321   1
  -2   1  13 51.7807 64.3764   1
  -1  -1 -13 42.9145 50.5056   2
   1  -2  13-5.85260 21.2481   3
   1   1  13-16.3292 30.9139   3
  -2   1  13 132.252 59.9395   3
   2  -1 -12 17996.0 467.337   4
  -2   1  12 17343.8 251.189   2
   1   1  12 17719.7 327.867   3
  -1  -1 -12 17764.2 434.199   2
  -2   1  12 17173.1 411.077   3
  -1   2 -12 17204.3 486.840   4
   1  -2  12 17426.4 257.196   3
   1  -2  12 16367.2 397.408   2
   1   1  12 18126.3 505.231   1
  -2   1  12 17948.4 468.742   1
  -1  -1 -11 144.775 63.0097   2
   1  -2  11-19.3724 23.7077   3
  -1   2 -11-36.3722 69.4821   4
  -2   1  11 4.19837 20.3716   2
   1  -2  11-5.37974 42.2728   2
   2  -1 -11-29.9119 62.0727   4
   1   1  11 30.6283 37.0671   3
  -2   1  11 9.79908 48.9602   3
   1   1  11 4.74220 46.0463   2
   1   1  11 83.0580 74.5740   1
  -2   1  11 55.5113 57.7289   1
  -1  -1 -10 3785.40 189.864   2
   1  -2  10 3775.29 116.751   3
  -1   2 -10 3671.29 209.327   4
   2  -1 -10 3489.60 189.530   4
   1   1  10 3681.88 210.810   1
   1   1  10 3650.73 183.396   2
   1  -2  10 3750.26 178.080   2
   1   1  10 3542.23 139.826   3
  -2   1  10 3585.05 101.749   2
  -2   1  10 3798.50 183.873   3
  -2   1  10 3578.64 191.074   1
  -2   1   9 5.89919 41.5029   3
  -2   1   9 15.9040 46.8059   4
  -1  -1  -9 10.1993 30.7959   3
  -1   2  -9 29.4620 49.5823   4
   1   1   9 10.9046 30.3211   3
  -1  -1  -9 4.15055 49.2138   2
  -2   1   9 13.0336 17.5004   2
   2  -1  -9 93.3361 50.5150   4
   1   1   9 1.38547 42.1441   2
  -2   1   9 5.67034 44.6998   1
   1  -2   9 11.7480 35.4459   2
   1   1   9 35.4818 63.5656   1
  -2   1   8 31032.9 478.070   1
   1  -2   8 31554.2 531.235   4
   1   1   8 30525.0 374.053   3
   2  -1  -8 30400.1 477.327   4
   1   1   8 30484.8 481.771   2
  -1  -1  -8 30117.4 476.454   2
   1   1   8 30434.4 523.641   1
  -1  -1  -8 30022.3 376.928   3
  -2   1   8 30439.6 467.856   3
  -2   1   8 30622.1 484.750   4
   1  -2   8 30535.8 453.200   2
   1   1   8 30451.3 516.205   4
  -2   1   8 28131.6 236.506   2
  -1   2  -8 30663.2 519.440   4
  -2   1   7 9.74027 41.7833   3
  -1  -1  -7 48.7139 29.9075   3
  -2   1   7 4.22434 10.0132   2
  -2   1   7-31.4735 41.1583   4
   1   1   7 13.4796 28.8030   3
   1   1   7 31.2727 41.2921   2
   1  -2   7 22.2570 35.7432   2
   2  -1  -7 15.0387 40.4351   4
  -1  -1  -7 22.9741 45.6378   2
   1  -2   7 23.8239 43.4664   4
   1   1   7-6.32745 49.8249   1
  -2   1   7 71.6195 45.9439   1
  -1   2  -7-35.4083 44.4993   4
   2  -1  -6 264.429 51.0604   4
  -2   1   6 293.587 54.1385   1
  -1  -1  -6 336.234 45.3870   3
  -2   1   6 254.628 51.2944   4
   1  -2   6 421.254 67.7767   4
   1   1   6 219.071 49.6876   2
  -1   2  -6 330.402 66.4525   4
   1   1   6 253.920 43.7304   3
  -1  -1  -6 262.596 55.1369   2
   1   1   6 263.927 60.7281   1
  -1  -1  -5 28.7543 43.1240   2
   1   1   5 67.3228 48.1344   1
   2  -1  -5 1.42250 34.9288   4
  -2   1   5 16.2965 33.7088   4
   1   1   5-1.39806 32.4757   2
   1  -2   5 84.6927 46.5539   4
  -1   2  -5-18.4873 40.8708   4
  -1  -1  -5 53.8738 27.6085   3
   1   1   5 11.6504 28.3021   3
  -2   1   5 27.1649 34.3370   1
   2  -1  -4 84713.4 563.076   4
   1   1   4 84968.9 656.508   1
  -1   2  -4 84535.3 633.436   4
  -1  -1  -4 85273.9 649.722   1
  -2   1   4 84092.6 560.217   4
   2  -1  -4 86023.8 543.524   1
  -1  -1  -4 86884.8 655.830   2
   1  -2   4 82442.1 633.857   4
  -1  -1  -4 85132.9 547.575   3
  -2   1   4 84409.1 538.625   1
   1   1   4 85339.5 651.298   2
   1  -2   3 13.3277 26.6271   3
   2  -1  -3-33.2302 24.2151   1
  -1   2  -3-26.1510 37.9794   4
  -2   1   3 68.1351 31.0731   1
  -1  -1  -3 14.9562 34.7659   1
  -2   1   3 79.3781 32.7767   4
  -1  -1  -3 11.3881 31.1858   3
   2  -1  -3-10.3908 33.6226   4
   1   1   3 18.5170 30.7784   2
   1  -2   3-25.4495 35.1147   4
   1   1   3 53.1603 43.4990   1
  -1  -1  -3 28.6185 44.8178   2
   2  -1  -2 38785.0 297.740   4
  -1   2  -2 37334.2 336.024   4
   1  -2   2 37815.8 316.711   3
   2  -1  -2 37505.5 269.408   1
   1   1   2 38004.5 386.401   2
   2  -1  -2 38977.4 239.100   2
  -1  -1  -2 37436.1 348.370   1
   1  -2   2 38293.1 337.924   4
   1   1   2 37738.5 353.913   1
  -1  -1  -2 37560.4 386.553   2
   1   1   1 46.6263 34.8955   2
   1  -2   1 23.0128 33.9453   3
  -1  -1  -1 10.6821 29.4437   1
  -1   2  -1 31.1185 34.3165   3
   2  -1  -1 5.23829 24.8800   2
  -1  -1  -1-16.4886 42.6470   2
   1  -2   1 139.281 34.9681   4
  -1   2  -1 14.5438 28.8852   4
   1   1   0 58670.6 426.617   2
   2  -1   0 60106.1 398.887   2
  -1  -1   0 59063.5 423.811   2
   1  -2   0 59345.0 431.846   3
  -1   2   0 59347.3 428.159   3
   1   1  -1 40.4789 31.8363   2
   2  -1   1 4.59483 34.3450   2
   1  -2  -1 24.8059 38.0748   3
  -1   2   1 65.3181 45.2530   3
  -1  -1   1 60.1941 35.3010   2
  -2   1  -1 38.8658 38.0685   2
   1  -2  -2 72388.1 532.378   3
  -2   1  -2 73634.0 531.433   2
   1  -2  -2 72362.3 490.452   2
  -1  -1   2 72397.7 425.521   2
   2  -1   2 73166.4 529.877   2
  -1   2   2 73178.8 529.379   3
  -1   2   3 32.9380 43.2323   3
   1  -2  -3 19.8035 32.1585   1
   2  -1   3 13.5675 38.8018   2
   1  -2  -3 32.8653 40.5384   3
  -1  -1   3 12.2611 24.9496   2
   1  -2  -3 1.58769 32.9788   2
   1   1  -3 46.7621 50.8604   4
  -2   1  -3-12.5303 37.7695   2
  -1   2   3 8.53261 29.7573   2
   2  -1   4 92690.2 683.582   2
  -1   2   4 92850.9 657.298   3
  -1  -1   4 93035.9 698.718   4
  -1   2   4 90116.3 691.358   1
   1  -2  -4 92623.6 662.457   3
   1   1  -4 92618.7 702.729   4
   1  -2  -4 92686.4 698.265   1
  -1   2   4 92747.3 586.070   2
   1  -2  -4 92176.7 587.528   2
  -2   1  -4 90783.6 685.008   2
   1  -2  -5 27.6088 36.6074   1
   2  -1   5-29.4821 38.4713   2
  -1   2   5 6.05737 30.5949   4
  -1   2   5 8.86325 47.5736   1
  -2   1  -5 16.1885 42.3741   2
   1   1  -5 11.7236 47.0211   4
  -1  -1   5 4.19283 45.0612   4
   2  -1   5-14.0951 34.7974   4
  -1   2   5 11.0980 29.2454   2
   1  -2  -5 37.6016 33.9115   2
   1  -2  -5 13.4841 34.9649   3
  -1   2   5-14.1198 37.0714   3
  -1   2   6 377.930 66.4155   1
   1  -2  -6 286.194 49.8242   3
  -1  -1   6 339.489 65.4574   4
   1  -2  -6 388.331 51.0227   2
   1   1  -6 399.438 71.0870   4
  -1   2   6 342.131 54.1377   4
  -2   1  -6 299.474 55.4000   2
  -1   2   6 326.294 58.8698   3
  -1   2   6 379.668 49.9824   2
   2  -1   6 367.939 61.9156   4
   1  -2  -6 277.667 52.1885   1
   2  -1   6 388.068 60.2096   2
  -1   2   7 0.13380 36.4755   4
  -1   2   7 18.3262 39.0094   3
   1   1  -7 5.18545 49.1652   4
  -2   1  -7 31.7647 46.7294   2
  -1   2   7-24.5273 51.2707   1
  -1  -1   7-29.0459 23.7232   2
  -1  -1   7 79.8094 54.3095   4
   2  -1   7 84.5317 46.3046   2
   2  -1   7-11.3965 32.7468   4
   1  -2  -7-15.0377 31.2225   2
  -1   2   7-15.2373 32.1975   2
   1  -2  -7 32.9481 42.0727   3
   1  -2  -7 27.4233 43.9476   1
  -1   2   8 31634.4 529.397   1
   2  -1   8 31263.4 531.276   4
  -1   2   8 31660.0 465.321   3
   1  -2  -8 30241.6 458.781   3
   1   1  -8 30459.4 518.761   4
   1  -2  -8 32209.0 415.436   2
  -1   2   8 30908.3 478.671   4
   2  -1   8 31091.1 494.066   2
  -1   2   8 30834.0 412.479   2
  -1  -1   8 30880.4 337.619   2
  -1  -1   8 30532.4 524.624   4
  -1   2   9-39.3703 44.9312   4
  -1   2   9-25.5097 42.4174   3
  -1   2   9 99.5271 71.1834   1
   1  -2  -9 21.5729 34.6350   2
   2  -1   9 78.9566 47.7200   2
   1   1  -9 15.4939 54.9716   4
  -1   2   9 21.0687 35.4787   2
  -1  -1   9-28.5004 27.7936   2
   1  -2 -10 2725.60 137.485   2
   2  -1  10 2651.04 160.186   2
   1   1 -10 3294.64 198.890   4
  -1   2  10 2794.65 184.327   1
  -1   2  10 2890.81 155.659   3
  -1  -1  10 2882.57 117.431   2
  -1   2  10 2716.71 137.903   2
  -1   2  11-34.8369 44.2936   2
   1   1 -11 37.0436 75.8848   4
  -1   2  11 17.4767 61.6302   1
   1  -2 -11 60.6073 42.4671   2
  -1  -1  11-16.2016 28.9983   2
  -1   2  11 37.1010 48.3745   3
  -1   2  12 14662.2 336.395   2
  -1  -1  12 14368.6 284.066   2
  -1   2  12 15203.1 454.708   1
   1  -2 -12 15354.7 344.992   2
  -1   2  12 15001.5 373.337   3
   1   1 -12 14852.4 448.538   4
  -1  -1  12 14914.8 349.843   3
   2  -1  13-69.1254 64.1178   1
  -1   2  13 125.702 82.7371   1
   1  -2 -13-33.1064 37.7656   2
  -1   2  13 56.9985 57.3207   3
  -1  -1  13-55.5056 46.9468   3
  -1   2  13-18.5114 39.9366   2
   1   1 -13 31.1984 77.3271   4
  -1  -1  13 23.6509 62.4319   1
  -1  -1  14 108.192 74.2139   1
   2  -1  14 50.7529 63.7990   1
  -1   2  14 180.825 64.7168   3
   1  -2 -14 60.6663 40.1307   2
  -1  -1  14 12.6815 40.5917   3
  -1   2  14 214.350 93.7215   1
   1   1 -14 80.6930 74.7831   4
  -1   2  15 120.289 65.2643   3
   1   1 -15-106.258 93.8868   4
  -1   2  15 127.327 89.7893   1
   2  -1  15 120.591 77.9239   1
  -1  -1  15 295.809 112.767   1
  -1  -1  16 7693.03 384.679   1
  -1   2  16 6927.55 371.790   1
   2  -1  16 7424.86 391.271   1
  -1  -1  17-1.27268 70.2747   1
   2  -1  17-43.6461 97.4900   1
  -1   2  17-69.8001 95.5496   1
   2  -2   0 3615.80 113.147   3
  -2   2   0 3965.24 117.146   3
   0  -2   0 3710.42 125.892   3
   0  -2   0 3903.68 129.370   2
   2   0   0 3795.96 110.902   2
  -2   0   0 3755.78 113.560   2
   2  -2  -1 3633.61 121.562   3
  -2   2  -1 3862.59 106.750   3
   2   0  -1 3571.00 97.5687   2
  -2   0   1 3860.70 100.746   2
   2  -2   1 3667.18 83.7492   4
   2   0   1 3771.16 121.262   2
   0  -2  -1 3769.43 127.810   2
   2  -2   1 3692.87 105.368   3
   0   2   1 3682.18 127.982   2
  -2   2   1 3357.29 119.770   3
   0  -2  -1 3785.68 129.261   3
  -2   0  -1 3587.54 121.455   2
   2   0   1 3922.99 87.6013   1
   2  -2   2 25445.3 242.685   3
   0  -2  -2 25678.6 331.845   2
   0  -2  -2 25245.8 332.607   1
  -2   2   2 25537.5 331.786   3
   0   2   2 25409.1 327.987   3
   0  -2  -2 24560.8 326.671   3
  -2   2  -2 24860.6 240.737   3
   0   2   2 25452.5 332.212   2
   2   0   2 24906.8 328.247   2
   2   0  -2 25419.3 222.557   2
   2  -2   2 25710.7 265.702   4
   2   0   2 24645.5 269.203   1
   0   2  -2 24999.7 322.897   4
  -2   0   2 25155.5 220.418   2
  -2   0  -2 25074.1 331.796   2
   2  -2  -2 26158.0 334.396   3
   2   0   3 31152.8 389.171   2
  -2   0   3 30026.1 202.261   2
  -2   2   3 30571.2 242.432   4
   0  -2  -3 30383.6 375.016   2
  -2   2   3 30283.6 382.480   3
   2  -2   3 30670.5 337.506   4
   2  -2  -3 29394.0 353.075   1
   0  -2  -3 29696.4 382.386   1
   2   0  -3 29480.5 364.393   4
   0   2   3 30337.1 376.019   2
   2  -2  -3 30051.0 384.060   3
   0   2   3 30038.4 366.138   3
   2  -2   3 30151.3 234.565   3
   2  -2  -3 31163.8 242.526   4
  -2   0  -3 30578.3 388.943   2
   0   2  -3 29529.4 378.217   4
   2   0  -3 29575.2 206.510   2
  -2   2  -3 30054.3 235.532   3
   0  -2  -3 30242.6 374.233   3
   0   2   4 13763.4 284.745   1
   2   0  -4 14446.0 271.670   4
   2  -2  -4 14315.1 262.567   1
   0  -2  -4 13703.5 282.251   1
  -2   0  -4 14300.6 285.891   2
   2  -2   4 13981.2 136.177   3
   2  -2   4 14210.0 259.255   4
   0  -2  -4 14354.5 269.788   2
   2  -2  -4 13738.6 195.140   2
  -2   2   4 14354.8 277.735   3
   2   0   4 14206.8 279.527   2
   0   2  -4 14325.3 281.439   4
   2  -2  -4 13797.8 201.820   4
   0  -2  -4 14205.4 262.986   3
   0   2   4 14489.5 270.497   2
   0  -2   4 13949.0 281.485   4
   0   2   4 13995.7 260.072   3
  -2   2   4 14154.5 203.907   4
   2  -2  -5 36397.1 316.679   2
   0  -2  -5 35198.1 442.345   2
   2   0  -5 36278.7 458.907   4
   0   2   5 36165.5 484.738   1
   2  -2   5 35169.5 460.128   2
  -2   2   5 35983.9 448.311   1
   0  -2   5 36067.8 482.336   4
   2   0   5 35737.9 467.367   2
  -2   0   5 35327.9 454.474   4
   2  -2  -5 35897.8 448.697   1
   0   2   5 35525.5 443.150   2
   2  -2  -5 35382.6 371.716   4
  -2   0  -5 35589.4 307.089   3
  -2   2   5 35646.6 373.165   4
  -2   0  -5 35218.3 471.590   2
   0  -2  -5 35961.2 486.154   1
  -2   2   5 36152.5 460.048   3
   2  -2   5 36119.6 459.121   4
   0   2  -5 35454.0 476.207   4
   0   2   5 36563.5 428.631   3
   0  -2  -5 35524.5 433.253   3
   2   0   6 51528.6 595.399   2
  -2   0   6 51994.3 587.188   4
   0  -2  -6 52899.4 561.048   2
   0  -2   6 52383.8 623.387   4
   2  -2   6 53342.2 600.310   4
   0  -2  -6 53213.9 630.271   1
  -2   2   6 52769.8 577.021   1
  -2   0  -6 52449.1 602.273   2
   2   0  -6 52029.2 590.545   4
  -2   2   6 52361.3 504.861   4
  -2   2   6 52639.7 582.949   3
  -2   0  -6 52687.3 369.267   3
   0   2  -6 51063.9 605.903   4
   0   2   6 52639.8 561.145   2
   0  -2  -6 51017.8 537.643   3
   2  -2   6 53415.4 597.509   2
   2  -2  -6 53080.0 582.633   1
   2  -2  -6 51993.2 505.457   4
  -2   0   6 51890.2 499.072   1
   0   2   6 52188.8 528.820   3
   2  -2  -6 53246.8 397.041   2
   0   2   6 52502.6 621.555   1
  -2   2   7 2698.83 130.884   4
   0  -2  -7 2576.43 135.918   2
   2   0   7 2565.47 150.654   1
   0  -2   7 2635.87 154.107   4
   0   2   7 2566.32 134.066   2
   2  -2  -7 2681.97 144.135   1
  -2   0   7 2785.64 150.998   4
   0  -2  -7 2516.12 127.473   3
  -2   0   7 2624.56 125.651   1
   0  -2  -7 2565.93 151.136   1
   0   2  -7 2642.26 153.077   4
   2   0  -7 2723.78 149.019   4
   0   2   7 2819.25 161.788   1
  -2   2   7 2787.37 144.871   3
   2  -2   7 2854.24 154.085   4
  -2   0  -7 2638.38 85.3143   3
  -2   2   7 2351.13 137.067   1
   2  -2  -7 2811.84 96.7637   2
  -2   0  -7 2522.98 144.600   2
   0   2   7 2685.21 129.626   3
   2   0   7 2636.79 146.737   2
   2  -2   7 2550.34 140.579   2
   0  -2   8 260.032 64.9146   4
  -2   0  -8 375.466 71.0774   2
  -2   2   8 366.335 73.5537   1
   2  -2   8 370.785 64.0847   2
  -2   0  -8 324.785 34.3511   3
  -2   0   8 272.388 20.9164   2
   2  -2  -8 340.570 43.0223   2
  -2   0   8 312.828 71.9921   4
   0   2   8 336.688 57.4640   3
   2   0   8 277.956 67.8188   1
   0  -2  -8 432.922 66.3583   2
  -2   2   8 411.902 64.0311   4
  -2   0   8 354.541 64.3993   1
   0   2   8 435.447 86.9551   1
   2   0   8 377.017 74.2667   4
   0   2   8 369.975 69.6002   4
   2   0   8 368.689 68.8661   2
   0   2   8 369.508 63.5012   2
   2  -2   8 370.267 71.1319   4
  -2   2   8 332.579 43.2582   2
   0  -2  -8 349.623 58.0925   3
   2   0  -8 330.386 74.7597   4
   0   2  -8 433.339 88.3688   4
   0  -2   8 281.374 49.5521   2
  -2   2   8 264.712 61.6775   3
   2  -2   9 1952.25 140.852   2
  -2   0   9 1978.61 144.058   4
   0  -2  -9 1830.16 118.108   3
  -2   2   9 2154.27 138.513   4
  -2   2   9 1990.88 143.657   1
   2   0   9 1840.91 134.321   2
   0  -2   9 2230.61 121.705   2
   0  -2  -9 2089.44 130.860   2
   0   2   9 1911.25 151.478   1
  -2   2   9 2031.27 134.281   3
   0   2   9 2048.94 124.214   3
   0   2  -9 1881.20 148.791   4
  -2   2   9 1981.16 92.0060   2
  -2   0   9 1807.05 56.8866   2
   2  -2  -9 2067.30 93.2693   2
   0   2   9 2036.68 130.587   2
  -2   0   9 1806.38 127.004   1
   2   0  -9 2004.61 144.596   4
   0   2   9 2145.81 148.607   4
  -2   0  -9 1906.41 141.099   2
   2   0   9 1975.22 151.157   1
  -2   2  10 7474.39 184.356   2
   2   0  10 7646.24 298.944   1
   0  -2  10 7581.76 229.120   2
   2  -2  10 7252.75 263.443   2
   0   2  10 7711.28 238.776   3
  -2   0  10 7253.92 259.608   1
   0   2  10 7616.65 300.526   1
   0   2  10 7317.24 251.451   2
   0  -2 -10 7205.08 250.047   2
  -2   0  10 7285.57 124.489   2
   0  -2 -10 7244.67 237.529   3
  -2   0 -10 7616.32 281.141   2
   2  -2 -10 7394.13 181.800   2
  -2   2  10 7560.83 284.955   1
  -2   2  10 7714.20 273.024   4
  -2   2  10 7118.15 255.910   3
   0   2 -10 7105.35 289.625   4
   2   0 -10 7600.00 287.073   4
  -2   2  11 8347.84 287.290   3
  -2   0  11 8967.04 289.477   3
  -2   0  11 8423.33 145.153   2
   0   2  11 9084.08 347.629   1
   2  -2 -11 8886.43 207.972   2
   0   2 -11 8829.66 337.476   4
  -2   2  11 9372.73 334.107   1
   0  -2  11 8871.24 257.490   2
  -2   0 -11 8535.61 308.642   2
   2   0 -11 8879.78 327.473   4
   0  -2 -11 8971.89 286.862   2
  -2   0  11 8655.82 303.788   1
   2   0  11 9211.53 348.015   1
   0   2  11 8953.97 265.816   3
   0   2  11 8425.16 278.275   2
  -2   2  11 8935.77 211.152   2
   0  -2  12 2522.76 144.290   2
   0  -2 -12 2600.72 164.739   2
  -2   2  12 2357.10 163.565   3
  -2   2  12 2579.14 119.695   2
  -2   2  12 2704.43 193.291   1
   2   0  12 2685.59 205.156   1
  -2   0  12 2457.89 177.286   1
  -2   0  12 2396.27 82.8073   2
   2  -2 -12 2522.56 117.079   2
   0   2  12 2767.92 207.075   1
  -2   0  12 2484.11 158.988   3
   0   2 -12 2345.81 190.242   4
   0   2  12 2480.73 161.919   2
   0   2  12 2647.84 153.786   3
   2   0 -12 2639.02 194.424   4
  -2   0 -12 2489.28 177.399   2
  -2   0 -13 2314.32 179.157   2
   0   2 -13 2572.45 204.143   4
  -2   0  13 2389.76 163.115   3
  -2   2  13 2852.37 207.900   1
   0  -2  13 2634.52 137.596   3
   2   0  13 2676.81 216.015   1
   0   2  13 2375.78 149.536   3
   2   0 -13 2528.30 200.284   4
  -2   2  13 2393.34 169.047   3
  -2   0  13 2433.50 186.440   1
   0  -2  13 2310.73 142.323   2
   0  -2 -13 2797.95 176.109   2
   0   2  13 2819.89 218.745   1
   0  -2  14 6069.55 209.649   3
  -2   0  14 5811.79 297.083   1
  -2   2  14 6086.72 314.062   1
   0  -2 -14 6270.79 269.418   2
  -2   0  14 6061.27 261.628   3
   0   2 -14 5939.84 318.572   4
   2   0 -14 6338.64 321.505   4
   0   2  14 6532.60 340.380   1
   0   2  14 5699.20 234.921   3
   2   0  14 6115.20 332.462   1
  -2   2  14 5990.38 268.742   3
   2   0  15 212.201 98.4090   1
   0   2 -15 197.354 83.5000   4
  -2   0  15 54.3660 81.7092   1
  -2   2  15 71.3293 55.0336   3
   0  -2 -15 36.2093 46.1867   2
  -2   0  15 27.7970 44.5693   3
  -2   2  15 43.7807 71.6007   1
   0   2  15 142.787 83.8393   1
   2   0 -15 40.6962 81.6947   4
   2  -2  16 173.934 81.5711   1
   0   2  16 251.301 98.8519   1
  -2   2  16 90.8913 59.7898   3
  -2   2  16 239.309 107.748   1
   0  -2 -16 66.0948 51.2329   2
   0  -2  16 116.938 74.6555   1
  -2   0  16 131.203 103.333   1
   2   0  16 159.348 91.2030   1
  -2   0  17 1536.74 195.566   1
   0   2  17 1151.04 170.857   1
  -2   2  17 1057.07 158.733   1
   2  -2  17 1446.76 185.722   1
   0  -2  17 1069.86 166.695   1
  -2   0  18 3529.35 280.526   1
  -3   1  18 6679.14 378.273   1
  -3   1  17 854.744 142.735   1
  -3   2  17 783.950 130.303   1
  -3   1  16 3981.50 246.809   3
   2   1  16 4049.45 301.473   1
  -1  -2 -16 3675.13 244.578   2
  -3   1  16 3913.48 274.757   1
  -2  -1 -16 3577.87 252.893   2
  -3   2  16 3315.65 251.005   1
   1   2  16 3948.92 299.701   1
  -3   2  16 3452.36 231.785   3
  -3   1  15 992.247 127.526   3
   2   1  15 962.110 150.906   1
   3  -1 -15 1026.27 146.377   4
  -3   2  15 877.506 124.623   3
  -3   1  15 1014.07 143.441   1
  -3   2  15 848.096 132.132   1
  -2  -1 -15 712.032 120.117   2
   1   2  15 1101.28 165.525   1
  -1  -2 -15 1054.78 133.045   2
  -3   1  14 4103.59 234.456   3
   3  -1 -14 4020.38 251.026   4
  -2  -1 -14 3916.23 248.079   2
  -3   1  14 4141.39 251.071   1
   2   1  14 4213.67 280.169   1
  -3   2  14 3974.60 249.774   1
   1   2  14 4424.80 291.562   1
  -1   3 -14 4442.53 282.731   4
  -3   2  14 4292.99 243.913   3
  -1  -2 -14 4168.34 247.238   2
  -3   2  13 655.047 102.386   3
  -3   2  13 658.886 111.425   1
  -2  -1 -13 873.398 130.647   2
  -1   3 -13 666.696 121.338   4
  -1  -2 -13 674.929 108.400   2
   1   2  13 740.693 89.1714   3
   2   1  13 531.039 102.856   1
   3  -1 -13 716.890 114.706   4
  -3   1  13 874.164 119.224   1
  -3   1  13 513.483 95.1131   3
   1   2  13 696.704 116.093   1
   1   2  12 159.466 58.0497   3
  -2  -1 -12 211.534 78.6184   2
  -1   3 -12 44.1901 70.1281   4
  -3   1  12 78.0198 67.0757   1
  -3   1  12 48.9196 54.1425   3
   3  -1 -12 69.4533 64.9225   4
  -1  -2 -12 24.1600 40.1622   3
  -3   2  12 27.8710 60.2528   3
   2   1  12 31.3014 69.6652   1
   1   2  12 238.314 96.5837   1
  -1  -2 -12 146.351 68.3651   2
  -3   2  12 115.372 70.9704   1
   2   1  11 1375.97 147.123   1
  -1  -2 -11 1403.21 131.573   2
  -3   1  11 1230.89 121.984   1
  -1  -2 -11 1409.48 109.319   3
   3  -2 -11 1266.23 123.630   4
  -2  -1 -11 1242.60 87.9651   3
   1   2  11 1350.90 108.260   3
   1   2  11 1426.29 153.226   1
  -1   3 -11 1246.41 138.208   4
  -2  -1 -11 1473.08 139.128   2
   3  -1 -11 1307.49 131.738   4
  -2   3 -11 1380.77 146.087   4
   1  -3  11 1135.60 109.353   2
  -3   2  11 1318.26 127.765   3
  -3   1  11 1307.34 125.906   3
  -3   2  11 1316.93 130.091   1
  -3   2  10 5292.56 233.820   1
   2  -3  10 4894.01 93.8444   3
  -3   1  10 5158.30 220.341   1
   1  -3  10 4970.20 214.210   2
   2   1  10 5377.85 259.650   1
   2  -3  10 4468.63 90.6163   3
  -3   1  10 5170.57 236.524   3
  -2  -1 -10 5264.91 169.959   3
   1   2  10 5339.69 198.670   3
  -2   3 -10 5222.85 253.553   4
   1   2  10 5227.47 263.336   1
  -1   3 -10 5757.69 267.335   4
  -3   2  10 4932.87 220.050   4
  -1  -2 -10 4729.25 227.784   2
   3  -2 -10 5113.38 220.148   4
  -3   2  10 5440.06 241.945   3
  -1  -2 -10 5168.59 200.123   3
   3  -1 -10 5067.18 231.154   4
  -2  -1 -10 5014.81 238.713   2
  -1   3  -9 14018.8 388.185   4
  -3   2   9 13397.3 361.623   3
  -3   2   9 13851.7 349.940   1
  -2  -1  -9 13666.3 374.020   2
   3  -2  -9 13005.1 329.018   4
   3  -1  -9 14061.0 357.076   4
  -3   1   9 14101.3 364.739   4
  -2   3  -9 13606.7 380.601   4
  -1  -2  -9 13858.4 367.705   2
   2  -3   9 13969.6 362.526   2
  -3   1   9 13521.1 330.241   1
  -1  -2  -9 13893.0 313.516   3
  -3   2   9 13675.3 338.703   4
   1   2   9 13655.3 362.755   2
   2   1   9 13782.5 391.164   1
   1   2   9 13712.7 395.209   1
   1   2   9 13770.2 308.559   3
   2  -3   9 12765.1 166.511   3
   1  -3   9 12856.2 328.842   2
  -2  -1  -9 13150.5 265.438   3
   1   2   8 1033.48 115.680   1
   2   1   8 1097.54 114.557   1
   3  -2  -8 787.753 31.3315   2
  -2   3  -8 890.260 102.963   4
   2   1   8 858.472 96.7023   2
  -1  -2  -8 942.945 85.8080   3
  -2  -1  -8 903.992 106.726   2
   2  -3   8 950.071 50.2648   3
   3  -1  -8 844.091 94.2220   4
  -3   1   8 1048.89 92.0109   1
  -2  -1  -8 919.366 73.6360   3
  -3   2   8 951.452 102.777   3
  -1  -2  -8 943.660 106.361   2
  -3   1   8 1126.38 107.548   4
   2  -3   8 923.630 105.663   4
   1   2   8 955.479 87.3036   3
  -3   2   8 1131.00 102.828   1
   1   2   8 989.396 101.033   2
   3  -2  -8 902.099 91.4819   4
  -1   3  -8 938.611 108.666   4
  -3   2   8 897.947 88.9190   4
   2  -3   8 915.828 97.9057   2
   1   2   7 30446.2 433.908   3
   1   2   7 30774.2 529.307   1
  -3   2   7 30764.5 435.025   4
   2  -3   7 30541.4 507.694   4
   2   1   7 30772.8 513.757   1
  -2  -1  -7 30547.1 514.366   2
  -1   3  -7 30842.6 511.876   4
   3  -1  -7 30833.5 468.541   4
   3  -2  -7 31022.7 434.357   4
   1  -3   7 31392.0 525.311   4
  -3   2   7 31794.0 512.870   3
  -1  -2  -7 30933.4 504.302   2
   3  -2  -7 29730.8 197.986   2
   2   1   7 30019.5 508.267   2
  -1  -2  -7 31530.4 449.487   3
  -3   1   7 31006.4 421.066   1
  -3   1   7 30008.9 468.912   4
  -2  -1  -7 30321.1 390.751   3
  -3   2   7 30788.8 458.333   1
   1   2   7 30746.5 503.816   2
   2  -3   7 30265.9 278.942   3
  -2   3  -7 30171.2 499.863   4
   3  -2  -6 47663.2 531.448   1
  -1  -2  -6 47139.1 610.951   1
   2  -3   6 47820.4 590.847   4
  -3   2   6 48876.4 532.601   1
  -3   1   6 47022.3 473.357   1
  -1   3  -6 48515.9 604.990   4
  -2  -1  -6 48812.0 618.377   2
  -3   2   6 47687.5 496.432   4
   3  -2  -6 47250.1 488.784   4
   1  -3   6 47587.8 609.009   4
   1   2   6 47313.3 601.361   2
  -1  -2  -6 46935.9 596.720   2
  -2  -1  -6 47713.6 482.329   3
  -1  -2  -6 48108.0 542.881   3
   3  -1  -6 47613.6 550.735   4
   2   1   6 47023.2 595.780   1
   2   1   6 45330.8 600.903   2
   3  -2  -6 46243.0 273.036   2
   1   2   6 47688.0 619.735   1
  -3   2   6 47532.4 605.518   3
  -2   3  -6 47034.5 578.677   4
   2  -3   6 47778.5 364.214   3
  -1  -2  -5 10108.2 270.219   1
  -2   3  -5 10402.0 255.650   4
  -3   1   5 10154.5 196.065   1
  -3   2   5 10070.3 270.747   3
   1   2   5 10426.2 273.711   2
  -1  -2  -5 9848.10 242.760   3
   3  -1  -5 10221.4 240.942   4
  -1   3  -5 10051.4 260.982   4
  -3   2   5 10083.5 208.192   4
   3  -2  -5 10257.8 207.558   4
  -2  -1  -5 10538.1 281.387   2
   2   1   5 10294.4 260.606   1
   1  -3   5 10190.6 265.490   4
   2  -3   5 10139.8 253.747   4
   2   1   5 10546.9 276.176   2
   1   2   5 10245.0 273.027   1
   3  -2  -5 9992.65 140.074   2
  -2  -1  -5 10117.0 222.532   3
   2  -3   5 10049.7 175.549   3
  -1  -2  -5 10650.3 275.186   2
   3  -2  -5 10236.5 230.752   1
   2  -3   4 55320.3 537.294   4
  -3   1   4 54351.7 392.584   1
   3  -1  -4 54379.1 513.453   4
   3  -2  -4 54565.2 426.281   4
   1   2   4 53972.3 585.754   1
   2   1   4 54385.4 596.909   2
  -1  -2  -4 53949.7 576.518   1
  -1   3  -4 55022.5 565.531   4
   3  -2  -4 53856.3 487.646   1
   2  -3   4 54032.5 422.695   3
   1  -3   4 54299.7 565.336   4
  -2  -1  -4 53655.2 597.016   2
  -2   3  -4 54008.2 524.203   4
   1   2   4 53723.2 594.418   2
  -1  -2  -4 55992.4 600.193   2
   1  -3   4 54599.8 490.135   3
  -1  -2  -4 54283.1 554.760   3
  -2  -1  -4 52740.2 504.250   3
   2   1   4 53608.9 547.214   1
  -3   2   4 54544.7 594.846   3
  -3   2   3 1527.28 103.752   3
   3  -1  -3 1418.51 56.6005   2
   1   2   3 1509.68 100.913   1
   3  -1  -3 1489.45 56.7888   1
   1  -3   3 1479.00 92.9970   4
  -2  -1  -3 1485.41 87.3551   1
   3  -1  -3 1425.63 87.2888   4
   3  -2  -3 1607.18 83.3247   1
  -1  -2  -3 1444.74 93.8335   1
  -2   3  -3 1400.29 76.4630   3
   2  -3   3 1406.20 76.3237   3
   2  -3   3 1492.73 84.8311   4
  -1   3  -3 1436.01 91.2859   4
  -2  -1  -3 1432.49 100.275   2
  -1  -2  -3 1550.89 98.1999   3
  -1  -2  -3 1303.36 99.4232   2
  -2   3  -3 1421.18 82.7067   4
   2   1   3 1452.60 100.073   2
   1  -3   3 1522.15 88.6038   3
   3  -2  -3 1348.92 63.6298   4
   1   2   3 1603.20 107.696   2
   2   1   3 1472.63 88.9705   1
   2  -3   2 38168.9 357.170   4
  -1  -2  -2 38815.3 456.749   3
  -3   2   2 38298.6 456.099   3
   3  -2  -2 38442.6 286.547   4
   2  -3   2 38353.9 387.715   3
  -1  -2  -2 38565.7 460.020   2
  -2  -1  -2 37325.9 373.536   1
  -2   3  -2 38912.4 392.491   3
   2   1   2 39791.0 465.389   2
   2   1   2 37900.3 381.221   1
  -1  -2  -2 37641.9 420.227   1
  -2   3  -2 38315.2 352.086   4
  -2  -1  -2 38938.5 459.269   2
   3  -1  -2 37728.7 232.591   1
   3  -1  -2 37501.5 322.790   2
   1  -3   2 38026.1 420.490   3
   1   2   2 38024.9 463.382   2
  -1   3  -2 38505.3 405.713   4
  -1  -2  -1 5447.90 173.321   2
  -3   1   1 5220.76 136.730   2
  -2   3  -1 5329.73 153.022   3
   3  -1  -1 5110.56 132.858   2
  -2  -1  -1 4992.60 159.748   2
   1  -3   1 5125.59 160.396   3
  -1   3  -1 5023.82 139.087   4
  -2  -1  -1 4773.77 120.267   1
   2  -3   1 5027.64 115.653   4
   2   1   1 5212.76 161.997   2
  -1  -2  -1 5098.13 147.863   1
   1   2   1 5229.78 167.675   2
  -3   2   1 5372.13 165.614   3
   2  -3   1 5256.76 151.553   3
  -2   3  -1 5352.07 114.204   4
  -1   3  -1 5106.93 158.733   3
  -2  -1   0-0.04656 20.9269   1
   1   2   0 39.6276 38.0245   2
   1  -3   0 74.2897 36.3948   3
  -3   1   0 61.6792 36.7830   2
  -2   3   0 44.6151 41.2901   3
   2  -3   0 8.35645 34.0639   3
  -3   2   0 59.3096 39.1686   3
   3  -1   0 37.2944 33.7922   2
  -1  -2   0 68.1108 45.6902   2
  -2   3   0 69.9273 19.5359   4
  -2  -1   0 21.5428 35.6288   2
  -1   3   0 85.6286 47.6766   3
   2   1   0 34.6997 33.4356   2
  -1   3   1 7864.55 204.808   3
   1   2  -1 7442.64 189.544   2
   2   1  -1 7425.06 176.319   2
  -3   2  -1 7196.96 167.139   3
  -1  -2   1 7488.28 188.927   2
  -3   1  -1 7705.48 193.746   2
   1  -3  -1 7455.78 202.306   3
  -2   3   1 7349.54 196.570   3
   3  -1   1 7615.63 188.682   2
  -2  -1   1 7453.90 173.650   2
   2  -3  -1 7352.84 194.100   3
   1  -3  -1 7663.63 203.031   2
   3  -2   1 7572.99 191.283   2
  -1  -2   2 3155.87 122.729   2
   1  -3  -2 3209.38 137.066   2
  -1   3   2 3072.78 136.166   3
   2   1  -2 3110.96 110.363   2
  -3   2  -2 3048.10 101.576   3
   3  -1   2 3095.56 131.901   2
   3  -2   2 3045.92 131.208   2
   1  -3  -2 3235.71 139.750   3
  -3   1  -2 2990.85 130.784   2
  -2  -1   2 3037.81 106.165   2
  -2   3   2 3233.37 138.521   3
   2  -3  -2 2904.73 130.330   3
   2  -3  -3 51573.3 552.075   3
   3  -1   3 51955.6 553.064   2
  -1  -2   3 50408.5 469.276   2
   2  -3  -3 50762.2 487.495   2
   1  -3  -3 52531.9 534.362   2
  -3   1  -3 49824.5 548.108   2
   1  -3  -3 50878.9 563.768   1
  -1   3   3 51261.0 544.524   3
   1   2  -3 50920.0 560.294   4
   3  -2   3 50218.5 551.019   2
   1  -3  -3 50400.4 551.010   3
  -2  -1   3 50992.6 404.088   2
  -3   2  -3 51521.3 366.588   3
  -2   3   3 50720.8 549.059   3
   2  -3  -4 10129.9 220.485   2
   2  -3  -4 10151.9 260.711   3
   3  -2   4 10423.0 262.974   2
   2  -3  -4 10575.0 264.864   1
   1   2  -4 10168.5 265.189   4
   3  -1   4 10414.4 263.529   2
   1  -3  -4 9997.32 256.572   3
   1  -3  -4 10345.0 267.943   1
  -3   1  -4 10245.6 263.730   2
  -1   3   4 10100.3 253.245   3
   1  -3  -4 10013.7 242.068   2
  -2   3   4 10320.8 173.847   4
  -1   3   4 10403.3 244.076   2
   3  -2   4 10165.1 235.673   4
   2   1  -4 10416.1 264.683   4
  -3   2  -4 10472.7 143.389   3
  -2  -1   4 10403.5 175.871   2
  -2   3   4 10646.5 263.333   3
  -1  -2   4 10026.6 210.057   2
  -1   3   5 27843.3 406.290   2
  -3   1  -5 28267.8 455.461   2
  -2   3   5 27466.2 435.791   3
   2  -3  -5 27836.1 444.383   1
   2  -3  -5 28245.4 446.199   3
   3  -2   5 27755.4 450.017   2
   1   2  -5 27927.9 455.765   4
   3  -1   5 27260.2 448.177   2
  -3   2  -5 25517.3 169.956   3
   2   1  -5 28403.2 454.381   4
   2  -3  -5 28628.1 373.002   2
   1  -3  -5 28178.8 413.735   2
   3  -2   5 28258.3 423.305   4
  -2  -1   5 28012.0 278.498   2
   1  -3  -5 27580.1 455.880   1
  -1   3   5 28823.7 435.242   3
  -2   3   5 27897.2 328.004   4
   1  -3  -5 28417.0 443.029   3
   2  -3  -6 50417.2 620.953   3
  -1   3   6 50410.0 565.822   2
   1  -3  -6 50574.7 567.690   2
   1   2  -6 50857.3 643.435   4
  -1   3   6 50044.9 596.292   3
   3  -2   6 51056.9 632.078   2
   2  -3  -6 50256.8 631.421   1
  -3   1  -6 49914.1 635.966   2
  -2   3   6 50286.5 488.245   4
  -1   3   6 50319.4 647.888   1
   2   1  -6 51130.2 636.649   4
  -2   3   6 50049.5 612.564   3
   3  -2   6 50657.5 613.787   4
   3  -1   6 49171.7 627.981   2
  -3   1  -6 47500.3 286.364   3
   1  -3  -6 51257.1 649.859   1
   2  -3  -6 50023.2 506.035   2
  -2  -1   6 51065.9 368.472   2
   1  -3  -6 49537.5 602.637   3
   1  -3  -7 6488.91 246.778   1
  -1   3   7 6451.60 212.076   2
  -2  -1   7 6423.37 132.553   2
   1   2  -7 6099.10 242.680   4
   2  -3  -7 6316.03 232.834   3
   2  -3  -7 6029.03 231.957   1
  -1   3   7 6495.74 224.975   3
   3  -1   7 6310.76 237.843   2
  -1  -2   7 6294.98 243.901   4
   1  -3  -7 6491.58 227.622   3
  -3   1  -7 6584.72 244.834   2
   3  -1   7 6017.63 231.827   4
   3  -2   7 6366.81 234.766   4
  -2   3   7 6605.84 242.588   1
   2   1  -7 6501.42 243.446   4
  -1   3   7 6674.02 252.848   1
   1  -3  -7 6304.32 208.744   2
  -1   3   7 6312.66 208.311   4
   3  -2   7 6173.85 235.973   2
  -2   3   7 6372.47 192.722   4
  -2   3   7 6028.82 223.383   3
   2  -3  -7 6299.76 185.250   2
   2   1  -8 29034.6 530.898   4
   1  -3  -8 27955.6 487.330   3
   3  -2   8 28250.1 517.437   2
  -3   1  -8 28124.7 519.422   2
  -2  -1   8 28511.2 280.898   2
  -2  -1   8 28329.9 277.334   2
  -1   3   8 27838.1 454.121   2
  -2   3   8 28634.8 443.438   4
  -2   3   8 28320.5 497.141   3
  -1   3   8 28463.1 536.785   1
   3  -2   8 28003.6 517.658   4
   1  -3  -8 27938.2 447.906   2
   3  -1   8 28815.1 522.637   2
   2  -3  -8 28797.2 527.931   1
  -1   3   8 28530.6 481.770   3
   1   2  -8 27993.1 531.455   4
  -1   3   8 27709.9 465.492   4
   2  -3  -8 29041.7 406.512   2
   2  -3  -8 28730.7 503.888   3
  -2   3   8 28869.3 525.698   1
   1  -3  -9 1654.91 119.813   2
  -2   3   9 1684.18 106.993   2
  -1   3   9 1654.34 128.002   4
  -1   3   9 1782.72 131.953   3
  -2  -1   9 1716.14 71.5942   2
   1   2  -9 1710.49 149.162   4
  -2   3   9 1843.51 152.066   1
  -1   3   9 1526.14 115.588   2
  -1   3   9 1789.67 153.116   1
  -3   1  -9 1757.55 145.408   2
   2   1  -9 1730.25 146.440   4
   2  -3  -9 1578.16 103.027   2
  -2   3   9 1800.23 126.543   4
   1  -3  -9 1771.34 131.463   3
  -2   3   9 1779.25 136.628   3
   1  -3 -10 12349.4 349.216   3
  -2   3  10 12995.8 346.554   4
  -2   3  10 12797.7 288.295   2
  -3   1 -10 13070.0 388.924   2
   1  -3 -10 13323.0 333.064   2
  -1   3  10 12756.4 400.291   1
  -1   3  10 13165.8 351.499   3
   2   1 -10 12989.9 393.699   4
  -1  -2  10 12990.3 274.693   2
   2  -3 -10 13488.2 295.347   2
  -2  -1  10 13172.4 199.076   2
   1   2 -10 12524.1 392.913   4
  -1   3  10 12951.3 328.160   2
  -2   3  10 12715.6 387.784   1
  -2   3  10 13135.6 361.891   3
  -1   3  11 130.355 52.4587   3
  -2  -1  11 81.2757 24.5429   2
  -1   3  11 94.7444 67.6499   1
  -2   3  11 75.6026 42.8576   2
   2   1 -11 26.7953 66.6871   4
  -2   3  11 186.836 78.0380   1
   1  -3 -11 89.1146 47.6786   2
   1   2 -11-11.0202 69.2057   4
  -1  -2  11 134.569 41.0538   2
   2  -3 -11 55.5469 38.5810   2
  -2   3  11 111.093 65.8885   3
  -1   3  11 99.7704 51.0967   2
  -2  -1  12 128.720 59.8444   1
  -1   3  12 106.586 57.6704   3
   2  -3 -12 224.824 53.8289   2
  -1  -2  12 198.444 47.0248   2
   3  -1  12 101.169 67.2334   1
   1  -3 -12 285.084 66.3019   2
  -1   3  12 218.663 61.1282   2
   1   2 -12 155.128 84.4258   4
  -2   3  12 108.147 69.0841   1
  -2   3  12 293.890 77.5638   3
  -1   3  12 223.858 85.6724   1
   2   1 -12 91.6412 64.0242   4
  -2   3  12 140.075 45.8979   2
   1   2 -13 1107.02 149.791   4
  -2   3  13 956.147 135.592   1
  -1   3  13 771.747 103.568   3
  -1   3  13 842.290 135.558   1
  -2   3  13 798.075 107.366   3
   2  -3 -13 852.971 83.2083   2
   1  -3 -13 854.606 102.139   2
  -2  -1  13 744.392 112.957   1
   2   1 -13 927.681 135.400   4
   3  -1  13 686.893 116.670   1
   2  -3 -14 2380.34 140.545   2
  -2  -1  14 2300.01 170.767   3
   3  -1  14 2076.83 200.658   1
  -1   3  14 2015.48 200.946   1
   1   2 -14 2117.46 203.520   4
  -2  -1  14 2383.90 199.020   1
   1  -3 -14 2408.05 164.765   2
  -2   3  14 2283.36 204.530   1
  -1   3  14 1874.04 155.532   3
   2   1 -14 2323.59 204.323   4
  -2   3  14 2098.27 171.864   3
  -2  -1  15 5337.99 301.538   1
   2   1 -15 4841.31 303.132   4
   1  -3 -15 5083.44 240.581   2
  -2   3  15 4929.40 307.292   1
   1   2 -15 4706.60 304.843   4
  -2  -1  15 4527.30 236.018   3
  -1   3  15 4931.48 250.313   3
   3  -1  15 4793.13 311.389   1
  -2   3  15 4699.50 256.287   3
  -1   3  15 4865.90 311.297   1
  -1  -2  16 275.942 134.529   1
  -2   3  16 81.0635 66.9110   3
  -2  -1  16 39.5899 91.1375   1
   2   1 -16-1.25069 80.2624   4
   1   2 -16-61.1764 84.9622   4
   3  -1  16-4.47757 80.0103   1
   3  -2  16-52.1701 75.9969   1
  -1   3  16 117.404 100.319   1
  -2   3  16 213.649 107.485   1
  -2   3  17 2977.59 265.026   1
  -2  -1  17 3271.53 262.170   1
  -1  -2  17 3179.77 261.922   1
  -2  -1  18 4562.42 318.449   1
   0  -3   0 43323.3 504.758   2
   3   0   0 42441.7 241.039   1
  -3   0   0 41390.1 442.474   2
   3  -3   0 43298.4 462.161   3
   3   0   0 41937.6 442.755   2
   3  -3   0 42014.2 220.773   4
  -3   3   0 42782.7 460.234   3
   0  -3   0 43200.2 510.535   3
  -3   3  -1 78.0260 38.5849   3
   0  -3   1 69.9149 48.2992   2
  -3   3   1 76.3601 45.8349   3
   3   0   1 30.3940 19.6592   1
   0  -3  -1 44.0621 41.3150   3
   3  -3   1 25.3434 30.4047   3
  -3   0  -1 6.07798 37.4960   2
   3  -3  -1 53.1907 44.0696   3
  -3   0   1 98.9445 40.2814   2
   3  -3   1 42.2498 21.0416   4
   3   0   1 20.4235 35.0541   2
   3   0  -1 40.4388 32.1429   2
   0  -3   1 24.2791 34.4193   3
   0  -3  -1 53.1184 48.4551   2
   3  -3   2 949.939 66.8290   3
   0  -3  -2 1012.91 89.4337   3
   0   3   2 1010.96 87.6340   2
  -3   0   2 1109.55 67.1635   2
   3  -3   2 1046.20 63.0803   4
  -3   0  -2 1104.79 91.5711   2
   3   0  -2 1027.88 64.9651   2
   3   0   2 1121.85 89.1301   2
   3  -3  -2 1055.86 87.2360   3
   3   0   2 1060.67 65.5635   1
  -3   3  -2 1002.30 71.4706   3
   0  -3  -2 1212.43 96.6767   2
  -3   3   2 1004.15 89.9897   3
   3  -3   3 1062.84 64.3393   3
   0   3   3 990.747 88.7730   2
   0   3   3 951.977 88.9248   3
   3   0  -3 919.960 55.8653   2
  -3   0  -3 949.442 88.2996   2
   3   0   3 1128.41 93.5299   2
   3  -3  -3 1077.54 92.2881   3
  -3   3   3 879.776 90.6769   3
   0  -3  -3 1021.75 91.1357   2
   0  -3  -3 834.126 84.0199   1
   3   0   3 891.762 68.8547   1
   0   3  -3 975.471 89.7826   4
   3  -3   3 1057.46 70.9830   4
  -3   0   3 1111.04 60.0255   2
   0  -3  -3 1105.43 92.4227   3
  -3   3  -3 968.802 64.5187   3
   0   3   4 55494.5 622.592   2
   3   0  -4 54391.1 355.756   2
   0  -3  -4 55267.2 622.897   3
   3  -3   4 55742.0 542.419   4
   3  -3  -4 54167.5 578.785   1
  -3   3   4 55143.0 355.616   4
   0  -3  -4 56162.9 634.350   1
   0   3  -4 54810.1 616.586   4
   3   0  -4 55094.1 599.458   4
  -3   3   4 56541.3 632.396   3
   3   0   4 55383.5 627.045   2
  -3   0  -4 55643.5 635.788   2
   0   3   4 55875.5 605.198   3
  -3   3  -4 56463.3 406.813   3
   0  -3  -4 54898.2 615.653   2
  -3   0   4 55673.6 336.351   1
   3   0   4 55546.6 547.370   1
  -3   0   4 56848.4 354.142   2
   3  -3   4 56100.2 402.588   3
   0   3   5 493.270 71.7881   2
   3  -3  -5 513.108 70.8769   1
   3  -3   5 454.004 36.2245   3
   0   3   5 390.891 67.8472   3
   0  -3  -5 362.405 60.2991   3
  -3   3  -5 398.565 35.4705   3
  -3   0   5 416.652 40.2325   1
  -3   0  -5 423.454 75.8946   2
  -3   0   5 408.112 27.4867   2
   3  -3  -5 468.171 53.2834   2
   0  -3  -5 499.583 76.4507   1
   3   0   5 467.008 74.6978   2
   3   0  -5 400.100 68.6653   4
  -3   3   5 485.417 45.5334   4
   3   0   5 390.627 61.5493   1
   0  -3  -5 465.926 71.8857   2
   0   3  -5 308.676 64.6309   4
   3  -3   5 429.169 60.1963   4
   3  -3   5 441.251 72.1717   2
  -3   3   5 392.207 73.6751   3
  -3   3   6 747.338 61.8754   4
   3  -3   6 771.612 89.4987   2
   0  -3  -6 735.644 84.9346   3
   0   3   6 744.898 85.8905   2
   3  -3  -6 761.166 62.6575   2
  -3   0  -6 871.081 102.519   2
   3  -3   6 728.223 83.9959   4
  -3   0   6 736.034 58.9981   1
  -3   0  -6 764.178 61.0845   3
   0   3  -6 703.018 87.9652   4
   3   0   6 857.458 93.7972   2
   0  -3  -6 763.195 89.8001   2
   0   3   6 874.342 89.3626   3
   3  -3  -6 873.423 89.4122   1
   3   0  -6 854.786 94.4979   4
   0  -3   6 735.307 89.9568   4
   3   0   6 649.804 79.3481   1
   0   3   6 820.022 101.673   1
   0  -3  -6 882.622 96.7422   1
  -3   3   6 894.349 99.8011   3
   3  -3   7 154.163 61.1308   2
   0  -3  -7 333.628 75.8947   1
  -3   3   7 252.866 46.1235   4
   0   3   7 286.485 61.2428   3
   3  -3   7 347.933 67.5070   4
  -3   0  -7 314.665 40.3989   3
   0  -3  -7 331.392 67.9479   2
   3   0   7 234.030 63.6905   1
  -3   3   7 257.303 66.2596   3
   3  -3  -7 203.536 59.2734   1
   0  -3  -7 256.810 61.7210   3
  -3   0  -7 311.964 74.5677   2
   0  -3   7 403.837 80.7586   4
   0   3   7 292.489 66.8524   2
   0   3   7 217.761 75.9854   1
   3  -3  -7 259.280 43.5172   2
   3   0   7 306.192 70.4943   2
  -3   0   7 262.292 47.1120   1
   0   3  -7 335.221 81.6737   4
   3   0  -7 327.178 75.2961   4
   3  -3  -8 28020.1 504.980   1
   0  -3  -8 28357.5 498.784   2
  -3   3   8 27270.4 496.461   1
   0   3   8 27617.7 549.031   1
   3  -3  -8 28256.2 338.427   2
  -3   3   8 28078.7 427.362   4
   0   3   8 27690.2 473.002   3
   0   3   8 27196.3 494.845   2
   3   0  -8 27939.4 512.197   4
   3   0   8 28225.3 527.549   1
  -3   0   8 27729.7 417.324   1
   0  -3  -8 27414.6 482.236   3
  -3   3   8 28111.4 514.815   3
  -3   0  -8 27560.3 532.778   2
   0   3  -8 27419.2 534.551   4
  -3   0  -8 28246.0 316.326   3
   3   0   9 322.001 75.8204   1
  -3   3   9 365.301 61.4447   4
   3   0  -9 297.110 78.8945   4
  -3   0  -9 328.464 86.8141   2
   0   3  -9 322.965 84.9804   4
  -3   3   9 403.028 85.8729   3
  -3   0   9 463.547 69.6864   1
   3  -3  -9 464.137 51.0098   2
   0  -3  -9 494.660 86.0782   2
   0   3   9 466.324 98.0140   1
   0   3   9 346.407 71.5430   3
  -3   3   9 596.719 98.9237   1
   0  -3  -9 436.294 74.3979   3
   0   3   9 320.644 69.9018   2
  -3   0  -9 503.824 44.8330   3
   0   3  10 38.1242 68.4640   1
  -3   0 -10-9.44803 54.8907   2
  -3   0  10-28.3787 52.8849   1
  -3   3  10 1.60461 51.0819   3
  -3   0 -10-0.32215 20.1391   3
   3  -3 -10 21.9111 26.1386   2
   0  -3 -10 73.0925 66.0569   2
   0   3 -10 15.0911 68.0606   4
   3   0 -10 43.1413 64.3106   4
  -3   3  10-20.8001 53.1317   4
   0  -3 -10 1.18277 45.4428   3
   3   0  10 7.98420 65.2245   1
   0   3  10-49.2749 50.2985   3
  -3   3  10-15.1889 55.0866   1
   0  -3  11 0.71939 35.3155   2
  -3   0 -11-33.1963 66.0035   2
  -3   3  11-10.5387 57.9642   3
   3  -3 -11 21.5240 24.7645   2
   0  -3 -11 71.8270 61.9262   2
   0   3  11-83.8223 79.3175   1
   0   3 -11 20.8083 71.0428   4
  -3   3  11-35.5435 56.8707   1
   0   3  11-8.61620 43.7501   3
   3   0  11 13.7641 66.3220   1
  -3   0  11 85.8437 57.9968   1
   3   0 -11 45.4052 61.2572   4
   0   3  12 11221.4 419.195   1
   3  -3 -12 11217.7 225.865   2
   0  -3 -12 11445.0 365.068   2
  -3   3  12 10930.3 370.016   3
   0  -3  12 10805.3 312.340   2
   3   0 -12 10318.5 379.134   4
  -3   3  12 11578.3 398.138   1
  -3   0  12 11245.0 356.013   1
   0   3 -12 10773.7 404.512   4
   0   3  12 11267.2 338.013   3
   3   0  12 10806.6 406.586   1
  -3   0 -12 10932.0 391.080   2
   0   3  13 23.0944 51.2218   3
  -3   0 -13 6.43514 64.1347   2
  -3   3  13-2.50365 60.6110   3
   3   0  13 54.3930 69.1754   1
   0  -3 -13 27.5718 55.8940   2
  -3   0  13 64.5535 62.1742   3
   3   0 -13 34.1961 70.9271   4
   0   3 -13 69.8455 77.2259   4
  -3   3  13 14.6469 57.3161   1
  -3   0  13 174.228 86.0849   1
   0   3  13 150.379 87.9540   1
   3   0  14-30.1040 86.5817   1
  -3   0 -14-47.2749 74.2727   2
  -3   0  14 68.3538 59.2241   3
  -3   0  14 128.735 65.8377   1
   3   0 -14 50.8382 74.7689   4
  -3   3  14-99.2201 76.2197   3
   0   3  14 90.1255 85.8447   1
  -3   3  14 89.7770 83.9322   1
   0  -3 -14 45.8578 56.8131   2
   0   3 -14-23.5025 84.1900   4
   0   3  14-66.6361 52.0339   3
   3   0  15 55.4262 76.1023   1
   0   3 -15 49.0772 87.2262   4
  -3   0  15-33.0194 64.7115   1
  -3   3  15 115.288 70.7112   3
   0  -3 -15 62.0938 65.2197   2
  -3   0  15-22.0929 59.2075   3
   3   0 -15-75.2496 88.0387   4
   0   3  15-36.2604 91.5392   1
  -3   3  15-18.6439 64.4977   1
  -3   0  16 7976.98 345.645   3
   0   3 -16 7268.87 394.390   4
  -3   0  16 7876.52 371.450   1
  -3   3  16 7520.70 385.495   1
   0  -3 -16 7495.74 335.581   2
   0   3  16 8628.24 434.891   1
   3   0  16 8209.23 422.935   1
  -3   3  16 7377.69 342.077   3
   3   0 -16 7616.56 391.825   4
  -3   3  17 26.4747 86.6451   1
  -3   0  17 204.380 105.379   1
   3   0 -17 11.4668 80.7385   4
  -3   0  18 123.615 92.5590   1
  -2  -2 -17 118.231 87.6272   2
  -4   2  17 26.9065 71.5817   3
  -4   2  17-125.546 85.8541   1
  -4   2  16 15013.2 516.491   1
  -2  -2 -16 14328.5 509.979   2
   2   2  16 15135.9 581.045   1
  -4   2  16 14104.6 489.747   3
  -2  -2 -15 125.515 95.3147   2
  -4   2  15 50.1276 69.5959   3
  -4   2  15 59.9961 79.0442   1
   2   2  15 16.6888 83.7404   1
   2   2  14 1070.30 161.814   1
  -4   2  14 1051.36 145.941   3
  -2  -2 -14 995.274 147.675   2
   4  -2 -14 1146.12 142.353   4
  -4   2  14 917.193 125.142   1
   2   2  13-43.6763 66.1814   1
  -2  -2 -13-88.3927 80.4352   2
  -4   2  13-49.8829 70.1849   3
  -4   2  13 41.7161 64.5887   1
   4  -2 -13-34.6046 62.3602   4
  -2   4 -13 0.34582 73.7197   4
   4  -2 -12 1266.49 134.968   4
   2   2  12 1203.36 151.852   1
  -2  -2 -12 1440.81 153.382   2
  -4   2  12 1290.39 142.420   3
  -4   2  12 1487.32 139.369   1
  -2  -2 -12 1284.32 107.974   3
  -2   4 -12 1093.65 140.253   4
   2   2  11 15.3640 65.3671   1
  -4   2  11-6.68260 54.6132   3
   2  -4  11 21.2440 23.9068   3
  -2  -2 -11 26.7078 62.5848   2
  -2  -2 -11 46.4040 39.8026   3
   4  -2 -11-14.8646 51.0045   4
  -4   2  11-2.85337 50.0189   1
  -2   4 -11-50.9082 58.4005   4
   4  -2 -10 3402.04 186.164   4
  -2  -2 -10 3307.26 208.039   2
  -4   2  10 3135.57 175.783   1
  -2   4 -10 3028.40 202.107   4
  -2  -2 -10 3117.75 160.132   3
   2   2  10 3284.57 218.245   1
   2  -4  10 3297.58 120.864   3
  -4   2  10 3136.26 200.330   3
  -4   2   9 4.46239 50.4472   1
  -2  -2  -9 0.48235 37.2385   3
  -2  -2  -9-35.3745 62.0270   2
  -4   2   9 168.033 66.2485   4
   2  -4   9 5.21005 29.1146   3
  -2   4  -9 62.5685 75.7569   4
  -4   2   9-60.2532 63.9707   3
   2   2   9-12.4100 65.8354   1
   4  -2  -9-19.5758 52.4043   4
   4  -2  -8 51021.2 624.224   4
  -2   4  -8 51303.8 716.410   4
  -4   2   8 51597.3 736.546   3
   2  -4   8 50618.2 486.285   3
  -4   2   8 51188.8 604.049   1
  -2  -2  -8 51268.9 740.929   2
  -2  -2  -8 50840.3 618.517   3
   2   2   8 51262.6 740.762   1
   2   2   7 81.9389 66.1498   1
   2  -4   7 41.8595 49.1582   4
  -2  -2  -7 17.2761 37.3266   3
   4  -2  -7 13.2139 40.0688   4
  -2   4  -7-13.6844 53.8881   4
  -4   2   7 21.7435 57.8032   3
  -2  -2  -7-38.3971 58.7078   2
   2  -4   7 15.0940 30.1958   3
  -2   4  -6 14.9015 48.8716   4
   2  -4   6-5.35588 27.6578   3
   4  -2  -6 13.1000 37.2918   4
  -2  -2  -6 34.2908 61.8591   2
  -2  -2  -6 57.7014 41.2188   3
   2   2   6 86.8483 57.3583   1
   2   2   6 7.27012 40.8699   2
   2  -4   6-22.9536 48.1086   4
  -2  -2  -5-9.51888 37.9140   3
   4  -2  -5-1.09263 35.2384   4
   2  -4   5 16.3902 28.1498   3
   4  -2  -5-6.11488 13.3656   2
  -2   4  -5 36.4615 47.3547   4
  -2  -2  -5 39.8330 60.1450   2
   2  -4   5 58.2837 47.2988   4
   2   2   5 63.7889 50.9346   1
   4  -2  -5 38.0915 30.3715   1
   2   2   5 54.4229 43.4606   2
  -2  -2  -5-13.1281 36.9999   1
   4  -2  -4 41453.9 437.167   4
  -2   4  -4 41793.6 502.609   4
  -2  -2  -4 41229.0 536.373   3
   2   2   4 41189.1 581.841   2
   2   2   4 42006.8 535.498   1
   4  -2  -4 41727.5 340.720   2
   2  -4   4 41165.0 469.854   3
  -2  -2  -4 40428.6 523.095   1
  -2  -2  -4 42449.0 581.707   2
   4  -2  -4 42377.7 397.549   1
   2  -4   4 41650.7 512.266   4
   2  -4   3 56.2967 34.7942   3
   4  -2  -3-11.8478 24.1139   2
  -2  -2  -3-26.9321 54.1599   2
   4  -2  -3 11.5034 32.9811   4
   2  -4   3 51.0261 38.1522   4
  -2   4  -3 36.2841 37.4671   4
   2   2   3 39.0113 41.9914   2
   4  -2  -3-25.0005 24.4190   1
  -2  -2  -3 18.3477 35.8220   1
  -2   4  -2 26942.1 397.775   3
  -2  -2  -2 26409.6 432.358   2
   2  -4   2 27337.3 398.193   3
  -2  -2  -2 26234.7 367.465   1
  -2   4  -2 26435.1 339.745   4
   4  -2  -2 26337.5 330.206   2
   2   2   2 26848.1 439.757   2
  -2   4  -1 20.1068 40.1036   3
   2  -4   1 21.1775 35.5708   3
   4  -2  -1 9.87589 28.4682   2
  -2   4  -1 16.8767 30.6131   4
  -2  -2  -1 19.9215 43.5878   2
  -2  -2  -1-19.5847 35.5905   1
   2   2   1-24.5320 35.3898   2
  -2  -2   0 35196.1 374.717   1
   4  -2   0 35665.9 436.788   2
  -2   4   0 35627.3 334.233   4
   2   2   0 35345.1 473.075   2
   2  -4   0 35728.1 481.377   3
  -2  -2   0 34877.2 465.127   2
  -2   4   0 36541.9 485.142   3
   2   2  -1 56.5401 38.7891   2
  -2   4   1-0.13882 44.2566   3
   2  -4  -1-11.2947 41.7111   3
   4  -2   1-25.0104 34.1042   2
  -2  -2   1-9.83584 38.2160   2
   4  -2   2 31849.6 459.473   2
  -2  -2   2 31533.1 416.397   2
  -2   4   2 32009.7 475.427   3
   2   2  -2 31068.7 420.571   2
   2  -4  -2 31951.3 479.262   3
   2  -4  -3-5.52412 45.2897   2
  -2   4   3 38.6545 52.1949   3
   2  -4  -3-6.50925 42.1336   3
   4  -2   3 41.3536 41.0248   2
  -2  -2   3 25.6876 34.4860   2
   2  -4  -4 22581.5 395.988   2
   2  -4  -4 23131.7 441.112   1
   4  -2   4 22823.1 426.732   2
  -2  -2   4 22792.8 337.335   2
   2   2  -4 21715.7 429.989   4
   2  -4  -4 22707.4 429.150   3
  -2   4   4 22402.5 420.249   3
  -2   4   5-8.62749 50.2198   3
   2  -4  -5 25.7401 42.2479   2
   2  -4  -5 34.9737 43.4045   3
   4  -2   5 53.4639 52.5457   2
  -4   2  -5 6.00723 20.7634   3
   2   2  -5-39.3314 62.2626   4
   2  -4  -5 44.9001 52.7496   1
  -2  -2   5 21.8570 32.4413   2
  -2   4   6 102.955 62.0916   3
  -2  -2   6 31.4684 31.0407   2
   2  -4  -6 36.4147 52.4440   3
   4  -2   6 24.4493 44.8061   2
  -4   2  -6 51.5282 16.8969   3
  -2   4   6 1.78183 31.0662   4
   2  -4  -6 26.6016 46.6673   1
   2   2  -6 40.1530 62.8355   4
   2  -4  -6-30.8601 44.0850   2
  -2  -2   7 18.0732 30.4823   2
  -2   4   7-2.39108 52.3486   3
   2  -4  -7 2.24024 39.3311   3
   4  -2   7 28.5623 52.2836   4
  -2   4   7-5.11609 35.7459   4
   2   2  -7-68.4608 65.6010   4
   2  -4  -7 49.8660 48.1958   2
  -2  -2   8 61522.4 539.700   2
  -2   4   8 60900.2 665.510   4
   2   2  -8 59630.0 819.227   4
   2  -4  -8 62192.6 696.035   2
  -2   4   8 61099.0 783.719   3
   2   2  -9 126.779 84.5955   4
  -2   4   9 43.6013 48.6180   4
  -2   4   9 22.5065 61.1380   3
   2  -4  -9 45.6518 47.5472   2
  -2  -2   9 19.8257 34.0316   2
  -2  -2  10 8254.25 198.728   2
   2   2 -10 7648.48 323.655   4
  -2   4  10 8471.98 311.562   3
  -2  -2  10 8824.14 205.743   2
  -2   4  10 8646.20 285.573   4
   2  -4 -10 8541.76 270.672   2
  -2   4  11 19.4836 58.0296   3
  -2  -2  11 26.6694 26.5522   2
  -2  -2  11 87.6328 36.2132   2
  -2   4  11 87.2804 77.0192   1
   2  -4 -11-4.90287 42.8270   2
   2   2 -11-74.1876 75.5417   4
  -2  -2  12 2642.33 115.680   2
  -2   4  12 2752.92 213.136   1
   2  -4 -12 2926.53 169.977   2
   2   2 -12 2881.65 219.691   4
  -2   4  12 2573.57 188.752   3
   2  -4 -13 41.3642 54.2657   2
  -2   4  13 60.5254 86.1145   1
   2   2 -13 11.9036 70.6964   4
  -2   4  13-39.9421 61.2619   3
   2   2 -14 3764.90 269.972   4
   2  -4 -14 3987.69 205.682   2
  -2   4  14 3753.02 236.650   3
  -2   4  14 3728.96 270.738   1
  -2   4  15-47.3453 64.0779   3
  -2   4  15 2.92974 70.1045   1
   2   2 -15-8.67198 79.9930   4
  -2  -2  15 158.157 92.1053   1
   4  -2  15-113.537 97.9195   1
  -2   4  16 9384.81 454.594   1
   4  -2  16 8828.16 446.738   1
   2   2 -16 9368.15 454.161   4
  -2  -2  16 9474.45 415.844   1
  -2   4  16 8742.14 370.214   3
  -2  -2  17-125.746 106.581   1
  -3  -1 -17 1950.05 213.473   2
  -4   3  17 2019.71 202.894   3
  -4   3  17 1804.11 197.840   1
  -4   1  17 2434.54 220.838   1
  -1  -3 -16 2284.27 209.861   2
  -3  -1 -16 2363.43 227.013   2
   4  -1 -16 2481.14 229.732   4
  -4   1  16 2493.29 214.215   3
  -4   3  16 2055.57 202.712   1
  -4   3  16 2368.16 211.302   3
  -4   1  16 2578.26 215.263   1
  -4   3  15 1230.31 160.573   3
   4  -1 -15 1225.16 158.120   4
  -4   1  15 1102.13 141.414   3
   3   1  15 1065.36 165.511   1
  -4   3  15 780.691 121.622   1
  -1   4 -15 1156.10 163.571   4
  -1  -3 -15 1313.28 167.248   2
   1   3  15 761.244 138.427   1
  -3  -1 -15 854.169 159.585   2
  -4   1  15 887.880 128.408   1
  -4   1  14 8084.63 354.150   3
  -1   4 -14 9260.71 414.880   4
  -1  -3 -14 9107.11 377.732   2
   4  -1 -14 9142.09 382.253   4
  -4   3  14 8570.34 371.145   1
  -4   1  14 9154.39 354.944   1
   1   3  14 8275.09 402.028   1
  -3  -1 -14 9135.56 396.448   2
  -4   3  14 8800.10 372.942   3
   3   1  14 8303.54 401.765   1
   1   3  13 204.921 101.555   1
   4  -1 -13 219.183 82.5897   4
  -3  -1 -13 380.201 108.751   2
  -4   3  13 406.976 100.864   3
  -4   3  13 72.3642 60.5100   1
  -1  -3 -13 163.512 80.9547   2
  -4   1  13 140.697 71.7997   3
   3   1  13 250.268 91.7868   1
  -1   4 -13 114.672 83.5055   4
  -4   1  13 196.646 73.2244   1
  -1   4 -12 61.1828 76.2431   4
  -3  -1 -12 298.078 86.9258   2
  -4   1  12 321.341 74.6170   1
  -4   3  12 59.6148 58.6740   3
  -1  -3 -12 92.1880 71.4763   2
  -4   1  12 162.490 72.3149   3
  -4   3  12 171.287 71.8873   1
   3   1  12 209.663 83.1934   1
   1   3  12 5.44822 73.1224   1
   4  -1 -12 179.940 73.0708   4
  -4   1  11 3750.33 225.400   3
   1   3  11 3664.76 240.761   1
   4  -1 -11 3411.36 207.868   4
  -4   3  11 3771.18 214.950   1
  -3  -1 -11 3922.88 236.484   2
  -1   4 -11 3641.30 236.030   4
  -4   1  11 3889.68 194.858   1
  -1  -3 -11 3591.35 220.898   2
   3   1  11 3667.05 236.647   1
  -3  -1 -11 3757.23 151.618   3
  -4   3  11 3492.18 218.566   3
  -4   3  10 3565.60 215.715   3
  -3  -1 -10 4006.29 232.360   2
   4  -3 -10 3731.35 185.276   4
  -4   3  10 3929.77 191.092   4
  -4   1  10 4033.55 187.038   1
  -1   4 -10 3412.94 216.625   4
  -1  -3 -10 3746.33 217.104   2
  -3  -1 -10 3575.31 150.071   3
   1   3  10 3900.62 240.787   1
   3   1  10 3301.79 213.535   1
   4  -1 -10 3604.95 203.461   4
  -1  -3 -10 3921.68 198.649   3
   4  -3  -9 10818.9 134.855   2
   3  -4   9 11298.6 139.940   3
  -4   3   9 11525.1 366.260   3
   1   3   9 11016.2 375.198   1
  -3   4  -9 11534.9 361.803   4
   3   1   9 11643.9 372.629   1
  -3  -1  -9 11203.2 372.435   2
  -3  -1  -9 11554.4 265.988   3
  -1  -3  -9 10982.3 352.870   2
   4  -1  -9 11666.4 345.634   4
  -4   3   9 12009.7 309.026   4
  -4   1   9 11350.7 286.649   1
   4  -3  -9 11716.5 301.483   4
  -1  -3  -9 11599.9 330.877   3
  -1   4  -9 10851.8 362.685   4
  -1  -3  -8 608.319 96.8275   2
   4  -3  -8 406.041 68.8347   1
  -3  -1  -8 407.119 60.6301   3
  -1  -3  -8 469.201 79.2312   3
   3  -4   8 452.918 37.6495   3
  -4   3   8 430.535 89.8681   3
  -3  -1  -8 428.389 94.2371   2
  -1   4  -8 554.733 93.7717   4
   3   1   8 486.460 92.1246   1
   1   3   8 567.197 93.1732   1
  -3   4  -8 523.074 85.8467   4
   4  -3  -8 484.565 66.3503   4
   4  -3  -8 463.155 35.8815   2
   4  -1  -8 469.842 83.2927   4
  -4   3   8 505.049 72.5274   4
  -4   1   8 611.793 71.7885   1
  -4   3   7 7214.06 273.449   3
   4  -3  -7 7309.98 202.925   4
   1  -4   7 7419.76 224.082   3
   4  -3  -7 7418.21 240.708   1
   3  -4   7 7294.55 256.871   4
   4  -1  -7 7186.28 250.784   4
   1   3   7 7394.86 285.373   1
  -4   1   7 7398.84 194.023   1
  -3   4  -7 7081.34 250.004   4
   3   1   7 7791.69 271.428   1
  -1   4  -7 7103.07 266.588   4
  -4   3   7 7231.98 205.214   4
  -3  -1  -7 7370.19 280.870   2
  -3  -1  -7 7273.29 215.543   3
   4  -3  -7 7242.95 143.397   2
  -1  -3  -7 7302.44 255.103   3
   3  -4   7 7422.61 155.709   3
  -1  -3  -7 7220.63 270.363   2
   4  -3  -6 23610.6 278.756   2
  -4   1   6 23189.5 302.747   1
   4  -1  -6 23463.9 421.287   4
   4  -3  -6 24064.1 409.436   1
   1   3   6 23969.7 477.637   1
  -1  -3  -6 23531.8 471.251   1
   3  -4   6 23597.4 295.931   3
  -3   4  -6 23087.8 419.608   4
   4  -3  -6 23345.9 328.430   4
  -1   4  -6 23102.7 452.187   4
   1   3   6 23901.4 474.894   2
   1  -4   6 22823.5 456.971   4
  -1  -3  -6 22915.9 442.440   3
  -1  -3  -6 23347.9 463.880   2
   3   1   6 22926.2 437.929   1
   1  -4   6 23579.9 392.618   3
  -3  -1  -6 23351.3 383.665   3
   3   1   6 23328.8 476.921   2
  -3  -1  -6 22607.6 468.586   2
  -4   3   6 22717.1 465.851   3
   3  -4   6 23772.1 432.897   4
   4  -3  -5 1557.19 78.0198   4
  -4   3   5 1517.65 124.849   3
  -1  -3  -5 1419.96 122.831   2
   1   3   5 1553.13 124.902   2
  -1  -3  -5 1561.61 121.604   1
  -3  -1  -5 1229.72 94.7207   3
   3   1   5 1606.47 113.058   1
   3  -4   5 1303.73 99.2442   4
   4  -1  -5 1395.07 107.673   4
  -3  -1  -5 1453.12 122.969   2
  -1   4  -5 1346.36 112.002   4
   4  -3  -5 1521.15 102.207   1
   1  -4   5 1317.85 98.8037   3
   3   1   5 1253.57 113.421   2
  -1  -3  -5 1573.74 118.044   3
   3  -4   5 1353.71 78.3924   3
  -3   4  -5 1336.64 99.8438   4
   3  -4   4 10143.0 241.821   4
  -4   3   4 10008.6 287.322   3
   4  -1  -4 9907.52 164.475   2
  -1   4  -4 10082.5 271.640   4
   4  -3  -4 9709.09 238.863   1
   4  -3  -4 9866.51 166.205   4
  -1  -3  -4 9933.53 284.796   3
  -3  -1  -4 9682.48 288.286   2
   3   1   4 10132.3 251.674   1
  -1  -3  -4 10351.9 282.529   1
   3   1   4 9990.56 291.581   2
  -1  -3  -4 10134.4 292.383   2
  -3   4  -4 10089.1 239.052   4
  -3   4  -4 9859.72 216.550   3
   1  -4   4 9878.60 257.367   3
   4  -1  -4 10189.8 259.183   4
   3  -4   4 9795.68 214.610   3
   1   3   4 9757.30 288.190   2
  -1  -3  -3 1261.97 109.248   3
   4  -1  -3 1224.89 69.3180   2
   3  -4   3 1117.57 79.4045   3
  -1   4  -3 1229.11 96.4735   4
   3   1   3 1293.39 88.1913   1
  -4   1   3 1297.99 71.6605   2
  -4   3   3 1226.06 104.323   3
  -3   4  -3 1299.33 82.0298   4
   4  -3  -3 1315.53 55.5133   4
  -3  -1  -3 1289.00 110.813   2
   3  -4   3 1191.00 80.1308   4
  -1  -3  -3 1271.69 111.875   2
  -3   4  -3 1185.62 85.8215   3
   1  -4   3 1270.06 98.7392   3
   3   1   3 1280.10 106.624   2
   1   3   3 1298.00 110.399   2
  -1  -3  -3 1287.02 100.258   1
  -3   4  -2 35819.4 357.403   4
  -4   3   2 35790.2 503.745   3
   3   1   2 35910.0 392.056   1
  -1  -3  -2 36177.9 481.979   1
  -4   1   2 36105.8 389.749   2
   4  -3  -2 34555.3 256.009   4
  -3  -1  -2 35322.1 502.323   2
  -1  -3  -2 36672.8 522.212   2
  -1   4  -2 35923.1 457.626   4
   1  -4   2 36153.4 495.767   3
   4  -1  -2 35114.8 385.479   2
   1   3   2 35197.0 524.453   2
   3   1   2 35959.4 510.233   2
  -1  -3  -2 35559.1 519.510   3
  -3   4  -2 36009.4 440.540   3
   3  -4   2 35688.5 363.204   4
   3  -4   2 35492.7 440.135   3
  -4   3   1 12443.1 284.886   3
   1   3   1 12433.3 303.407   2
  -3   4  -1 12420.7 179.374   4
   4  -1  -1 12172.9 245.625   2
  -1  -3  -1 12822.2 305.074   2
   1  -4   1 11965.6 289.798   3
  -3  -1  -1 12170.7 199.295   1
  -4   1   1 12199.5 247.011   2
  -3  -1  -1 11713.7 279.549   2
  -1  -3  -1 12598.6 307.895   3
   3   1   1 11851.0 279.533   2
  -3   4  -1 12467.6 272.258   3
   3  -4   1 12170.6 266.808   3
  -3  -1   0 1453.79 62.6435   1
   1   3   0 1457.15 107.483   2
   1  -4   0 1504.31 113.159   2
  -3   4   0 1454.02 49.1158   4
  -4   1   0 1475.62 97.6670   2
  -4   3   0 1498.55 102.414   3
   4  -1   0 1431.76 94.6272   2
  -3  -1   0 1371.64 96.4412   2
   3   1   0 1454.59 97.5002   2
   1  -4   0 1488.34 107.215   3
  -1  -3   0 1474.43 109.439   2
  -3   4   0 1526.05 105.689   3
   3  -4   0 1447.19 101.696   3
   3  -4  -1 17135.2 341.299   3
  -4   3  -1 17044.0 302.972   3
  -1   4   1 16847.2 347.757   3
  -4   1  -1 16892.8 326.707   2
   1  -4  -1 18113.5 364.872   2
  -3  -1   1 16552.6 174.365   1
  -3  -1   1 17016.6 305.274   2
   4  -1   1 17665.1 329.612   2
   1  -4  -1 16506.6 350.175   3
   3   1  -1 17224.9 311.403   2
  -3   4   1 16978.7 341.250   3
  -1  -3   1 17051.5 335.789   2
   1  -4  -2 20447.8 391.668   2
   4  -3   2 20294.8 382.835   2
   3  -4  -2 19875.7 381.837   3
  -4   3  -2 19728.1 307.982   3
  -3  -1   2 20268.8 315.126   2
  -1  -3   2 20452.7 365.140   2
  -1   4   2 19637.4 384.433   3
  -4   1  -2 20470.1 376.812   2
   4  -1   2 19858.9 371.977   2
   1  -4  -2 20585.1 400.214   3
  -3   4   2 20064.2 382.323   3
   3   1  -2 20195.4 320.317   2
   3   1  -3 6010.20 170.213   2
  -1  -3   3 6080.78 200.229   2
   1  -4  -3 5754.96 220.381   1
  -4   3  -3 5892.76 158.784   3
   4  -3   3 5848.13 215.089   2
  -4   1  -3 5759.95 214.205   2
   4  -3   3 5869.71 172.310   4
   4  -1   3 6010.42 214.736   2
  -3  -1   3 5876.49 162.826   2
   1  -4  -3 6022.21 216.739   2
   3  -4  -3 6198.29 221.503   3
  -1   4   3 5953.76 217.362   3
   1  -4  -3 5393.22 210.811   3
  -3   4   3 6353.42 223.258   3
   3  -4  -4 370.665 69.9682   1
  -1  -3   4 518.180 69.7003   2
  -1   4   4 376.227 73.1847   3
   4  -3   4 422.915 67.2367   2
   3  -4  -4 517.316 66.4256   2
  -4   1  -4 465.816 76.3391   2
   1  -4  -4 430.483 73.1206   3
  -3   4   4 334.154 67.2683   3
  -4   3  -4 381.440 44.4860   3
  -3  -1   4 352.725 45.7044   2
  -3   4   4 381.158 32.0329   4
   3  -4  -4 448.357 71.5810   3
   4  -1   4 479.118 70.2825   2
   4  -3   4 452.692 58.5220   4
   1  -4  -4 400.901 70.4083   1
   3   1  -4 521.190 88.3180   4
   1   3  -4 548.474 85.0683   4
   1  -4  -4 308.160 68.4654   2
   3  -4  -5 10883.7 263.506   2
   3  -4  -5 11126.0 314.789   3
  -3  -1   5 10957.3 200.207   2
  -1   4   5 11339.4 311.443   3
   4  -3   5 11258.9 280.139   4
  -3   4   5 11174.4 184.481   4
   4  -1   5 10618.7 310.781   2
   3  -4  -5 10823.9 307.326   1
   4  -3   5 11633.5 323.870   2
  -4   1  -5 11302.1 324.546   2
   1  -4  -5 10590.4 312.820   1
   1  -4  -5 11287.0 317.070   3
   1   3  -5 11129.8 321.328   4
   3   1  -5 11358.5 320.142   4
  -1  -3   5 11648.9 273.541   2
   1  -4  -5 11163.5 302.669   2
  -4   3  -5 11197.3 178.898   3
  -3   4   5 10886.9 310.477   3
   3  -4  -6 11803.9 338.681   3
  -1   4   6 12153.6 322.258   2
  -4   1  -6 12645.2 356.413   2
   4  -3   6 12519.5 315.209   4
   4  -3   6 12179.1 345.240   2
  -3   4   6 12336.5 225.830   4
   1   3  -6 12326.4 352.521   4
   3   1  -6 12819.2 350.610   4
  -3  -1   6 12535.3 198.623   2
   3  -4  -6 12745.3 344.009   1
  -1   4   6 12166.2 331.399   3
   1  -4  -6 12231.0 323.541   2
  -4   3  -6 12041.4 150.253   3
  -3   4   6 12903.8 350.449   3
   3  -4  -6 12490.6 279.983   2
   1  -4  -6 12836.7 347.296   3
  -1   4   7 9295.91 287.780   2
   1  -4  -7 9381.54 305.753   3
   4  -3   7 9697.23 297.149   4
  -4   1  -7 9210.54 317.540   2
  -3   4   7 9413.63 222.174   4
   1  -4  -7 9765.34 295.712   2
   3   1  -7 8672.94 301.596   4
  -1   4   7 9219.32 295.981   3
  -3   4   7 9596.82 313.305   3
  -3  -1   7 9404.48 161.127   2
   1   3  -7 9874.27 327.446   4
   3  -4  -7 9267.43 306.284   1
  -4   1  -7 9395.67 171.773   3
   3  -4  -7 9521.21 247.105   2
  -1   4   8 8131.38 276.495   2
   1  -4  -8 7924.73 273.995   2
   3   1  -8 7915.85 301.276   4
   1   3  -8 7698.93 301.411   4
  -3   4   8 7823.32 294.216   3
  -4   1  -8 7198.16 292.463   2
  -3  -1   8 7870.41 134.686   2
   3  -4  -8 8052.79 229.171   2
  -1   4   8 7967.00 281.535   3
  -3   4   8 8158.15 226.608   4
  -4   1  -8 7704.51 135.885   3
  -3  -1   9 125.023 17.8033   2
  -1   4   9 213.854 62.2625   2
  -1   4   9 148.872 67.4745   3
  -4   1  -9 176.383 76.5477   2
  -3   4   9 158.190 69.6656   3
   1  -4  -9 130.620 59.9319   2
  -3  -1   9 245.089 22.9604   2
   1   3  -9 190.340 88.8579   4
  -1   4   9 90.9340 55.5552   4
   3  -4  -9 158.162 51.7990   2
  -3   4   9 159.804 51.1912   4
   3   1  -9 121.989 68.5961   4
  -1   4  10 18525.1 510.488   1
  -3  -1  10 18154.5 394.550   1
  -4   1 -10 18136.9 488.386   2
  -3   4  10 17326.7 386.912   4
   1   3 -10 17677.2 491.077   4
   1  -4 -10 17622.7 423.720   2
   3  -4 -10 18289.3 354.757   2
  -1   4  10 17821.5 442.323   3
  -3   4  10 16814.9 449.829   3
   3   1 -10 17966.0 481.432   4
  -1  -3  11 604.001 76.5874   2
  -1   4  11 681.313 97.7227   3
  -4   1 -11 552.434 108.565   2
  -3   4  11 583.505 100.479   3
   1  -4 -11 697.265 97.5887   2
  -1   4  11 667.877 125.558   1
   3  -4 -11 639.712 74.7387   2
   1   3 -11 689.938 121.471   4
   3   1 -11 593.171 109.532   4
  -3  -1  11 560.549 89.1536   1
   4  -1  11 539.834 102.144   1
  -3   4  12 909.271 122.680   3
  -1   4  12 699.786 107.448   3
   3  -4 -12 747.274 79.2250   2
  -1   4  12 786.287 132.309   1
   1   3 -12 722.537 127.279   4
   1  -4 -12 973.514 113.111   2
   3   1 -12 679.522 120.916   4
   4  -1  12 653.750 126.774   1
  -3  -1  12 764.614 102.816   1
  -3  -1  13 6877.52 295.666   1
   4  -1  13 6948.13 346.763   1
  -1   4  13 6901.44 354.992   1
   1   3 -13 6624.85 341.405   4
   1  -4 -13 7164.05 298.073   2
   3  -4 -13 7004.37 229.307   2
   3   1 -13 6279.23 325.642   4
  -1   4  13 6596.97 294.487   3
  -3   4  13 7167.60 322.657   3
  -3  -1  14 2469.82 192.059   1
   4  -1  14 2694.80 233.936   1
  -1   4  14 2551.43 231.614   1
   1  -4 -14 2586.14 187.593   2
   1   3 -14 2343.02 219.742   4
  -1   4  14 2328.60 183.295   3
  -3   4  14 2293.59 193.711   3
   3   1 -14 2659.96 224.796   4
  -3  -1  15 3329.09 223.506   3
  -3   4  15 3485.29 265.538   1
  -1   4  15 3333.34 275.306   1
   1   3 -15 3703.98 285.806   4
   3   1 -15 3084.83 252.625   4
   1  -4 -15 3373.83 216.603   2
  -1   4  15 2855.70 209.518   3
  -3   4  15 3108.04 230.191   3
   4  -1  15 3285.40 269.634   1
  -3  -1  15 3504.21 237.663   1
  -3   4  16-30.3140 74.2926   3
  -1   4  16 266.799 118.527   1
   3   1 -16 111.852 98.7831   4
  -3  -1  16 17.2650 76.7914   1
  -1  -3  17 199.691 111.935   1
  -3  -1  17 450.206 109.617   1
   0  -4   0 1827.24 128.693   2
   4  -4   0 1696.02 109.635   3
   4  -4   0 1495.37 45.3651   4
   4   0   0 1967.60 118.479   2
  -4   0   0 1864.27 114.085   2
   0  -4   0 1653.44 122.781   3
  -4   4   0 1760.42 116.660   3
   0  -4   1 11812.5 305.945   2
   4  -4   1 10910.8 263.502   3
   4  -4  -1 11293.2 289.432   3
  -4   0   1 11205.2 253.888   2
  -4   0  -1 11042.1 280.849   2
   4   0   1 11324.1 282.010   2
   4   0  -1 10997.9 255.728   2
   4   0   1 11206.5 176.577   1
   0  -4   1 10673.3 296.392   3
   0  -4  -1 11126.9 306.678   3
   4  -4   1 11358.3 169.560   4
  -4   4  -1 11156.3 266.097   3
  -4   4   1 11239.6 288.107   3
   0  -4  -1 11042.6 303.973   2
   4  -4   2 41109.1 488.972   3
   4  -4  -2 41937.1 576.917   3
   0  -4   2 42639.1 576.900   2
   4   0  -2 42183.1 466.297   2
   4  -4   2 42061.5 391.914   4
   0  -4   2 42031.1 585.542   3
   4   0   2 41334.7 405.748   1
  -4   0   2 42101.6 458.897   2
   4   0   2 42275.6 565.565   2
  -4   4  -2 42873.0 493.249   3
  -4   0  -2 41400.0 566.100   2
   0  -4  -2 41106.0 595.922   3
   0  -4  -2 41620.7 589.944   2
  -4   4   2 42342.1 572.192   3
   4  -4   3 17109.8 299.934   3
   0   4   3 17016.6 386.683   2
   0  -4   3 17122.5 370.137   2
   0  -4  -3 17326.5 383.092   1
   4  -4   3 16770.6 281.958   4
  -4   0  -3 17280.4 381.345   2
   4   0   3 16931.7 375.224   2
  -4   0   3 17368.6 277.381   2
   0  -4  -3 17275.6 385.883   2
   0   4  -3 17616.1 374.487   4
   0  -4  -3 17072.9 391.238   3
   4   0  -3 16656.5 279.429   2
  -4   4  -3 17620.3 304.322   3
   4   0   3 17292.6 291.515   1
  -4   4   3 16669.2 373.418   3
   0   4   4 5983.52 236.417   2
   4  -4   4 5963.03 186.370   4
   4   0   4 6065.97 235.803   2
   0  -4  -4 5708.79 229.100   1
  -4   0  -4 5755.63 231.966   2
  -4   0   4 5946.70 150.546   2
   0   4  -4 5704.46 226.175   4
   0  -4  -4 5326.44 223.775   2
   4  -4  -4 6015.25 219.032   1
   4   0   4 5839.73 190.984   1
  -4   4  -4 6031.03 168.976   3
   0  -4  -4 6096.57 238.708   3
   4   0  -4 5675.24 149.779   2
  -4   4   4 5527.60 226.932   3
   4   0   5 1715.12 115.722   1
   4   0  -5 1786.23 76.7997   2
  -4   4  -5 1939.27 92.0685   3
   0  -4  -5 1939.58 144.192   1
   0  -4  -5 1975.89 141.764   2
   0   4   5 1934.74 140.732   2
   4  -4  -5 1834.57 131.328   1
   4   0  -5 1914.76 139.057   4
  -4   0   5 1800.87 61.5657   1
   4  -4   5 2082.85 122.960   4
  -4   0   5 2022.82 79.0926   2
  -4   0  -5 1994.91 148.999   2
   0   4  -5 2054.45 149.798   4
   0   4   5 2081.18 143.227   3
   0  -4  -5 1830.46 137.848   3
  -4   4   5 2134.84 149.768   3
   4   0  -6 1206.57 119.974   4
   4  -4  -6 1110.90 84.4417   2
   4   0   6 1147.83 107.138   1
   0   4   6 1162.16 112.678   3
   0   4  -6 1126.73 118.426   4
   4  -4  -6 1242.01 114.479   1
  -4   4   6 1322.06 128.486   3
  -4   0  -6 1060.72 122.247   2
  -4   0   6 1108.47 50.2910   2
  -4   4   6 1040.13 65.8291   4
  -4   0   6 1133.11 62.9608   1
   0  -4  -6 1066.11 112.807   2
   4  -4   6 1007.67 96.7691   4
   0  -4  -6 1296.96 120.896   3
   4   0   7 251.557 65.2245   1
   4  -4  -7 306.352 53.4508   2
   4   0  -7 342.147 80.1192   4
   0   4   7 268.816 69.4869   3
  -4   0  -7 267.208 48.0225   3
   4  -4  -7 279.276 69.2778   1
  -4   0  -7 220.432 75.8136   2
  -4   4   7 242.827 62.4482   3
  -4   0   7 335.334 47.9657   1
   0   4  -7 210.381 79.5866   4
   0  -4  -7 172.925 68.5977   2
   4  -4   7 396.321 78.9562   4
  -4   4   7 250.801 44.8828   4
   0   4   8 66.2687 58.7678   3
   0   4  -8 117.830 81.6141   4
   4   0  -8 25.8669 64.0698   4
  -4   0  -8 82.6538 35.9286   3
   0  -4  -8 30.8000 57.4504   2
  -4   0  -8 143.002 78.4528   2
   4   0   8 71.9992 57.1736   1
  -4   0   8 126.680 40.3935   1
   4  -4  -8 103.754 40.2907   2
  -4   4   8 63.4428 36.1498   4
  -4   4   8 136.695 65.8278   3
   4   0   9 2081.32 164.862   1
   0   4   9 2081.15 157.037   3
  -4   0  -9 2070.51 175.613   2
   0   4  -9 2117.25 175.200   4
  -4   4   9 1874.91 120.199   4
   4  -4  -9 2260.03 110.035   2
   0  -4  -9 2239.87 168.292   2
   4   0  -9 2016.60 162.052   4
  -4   0   9 2259.66 126.453   1
  -4   0  -9 2142.02 102.678   3
  -4   4   9 2138.78 168.043   3
   4   0  10 12338.9 405.351   1
   0   4  10 12308.1 369.763   3
   4   0 -10 12160.8 394.923   4
   0  -4 -10 11959.1 381.832   2
  -4   0 -10 12564.1 423.311   2
   0   4 -10 11855.2 408.437   4
   0   4  10 12460.9 433.457   1
  -4   4  10 11882.9 313.117   4
   4  -4 -10 12448.5 246.728   2
  -4   0  10 11835.0 304.618   1
  -4   0 -10 12305.0 227.613   3
  -4   4  10 11803.5 395.944   3
   4   0  11 9058.36 368.959   1
  -4   0 -11 8903.57 370.907   2
  -4   4  11 9203.91 296.144   4
   4   0 -11 9426.98 365.004   4
   0  -4 -11 9888.99 357.207   2
   0   4 -11 8758.28 368.245   4
   4  -4 -11 10053.9 217.715   2
   0   4  11 9807.28 398.763   1
  -4   0  11 9200.94 288.913   1
   0   4  11 9204.94 327.457   3
  -4   4  11 9950.03 371.984   3
   4   0  12 2373.11 205.815   1
   0  -4 -12 2559.28 195.282   2
   0   4  12 3028.22 239.706   1
   4   0 -12 2807.28 212.972   4
   0   4  12 2360.13 174.910   3
  -4   0 -12 2299.28 198.053   2
  -4   0  12 2483.87 164.173   1
   0   4 -12 2506.02 212.565   4
  -4   4  12 2715.81 206.823   3
   4   0 -13 5669.93 307.661   4
   0   4  13 5180.01 317.398   1
  -4   0 -13 4958.26 297.720   2
   0  -4 -13 4989.74 272.203   2
  -4   0  13 5226.07 250.099   1
   0   4  13 5144.74 258.013   3
   4   0  13 5136.77 306.251   1
  -4   4  13 5001.48 284.951   3
   0   4 -13 5254.21 311.987   4
   0   4 -14 9604.85 433.218   4
  -4   4  14 9647.91 402.010   3
  -4   0  14 10342.9 404.985   3
   0   4  14 10315.9 461.282   1
   0  -4 -14 10727.1 402.668   2
  -4   0 -14 9871.33 429.924   2
   4   0 -14 10415.2 427.741   4
  -4   0  14 10526.2 371.748   1
   0   4  14 10146.1 367.905   3
   4   0  14 10087.2 439.967   1
  -4   0 -15 747.618 145.862   2
  -4   0  15 715.279 115.579   1
  -4   4  15 538.306 109.095   3
   0  -4 -15 714.607 123.010   2
  -4   0  15 642.438 121.258   3
   0   4 -15 858.815 150.817   4
   4   0  15 651.467 129.335   1
   0   4  15 950.955 158.765   1
   4   0 -15 611.614 124.238   4
  -4   4  16 124.215 86.3201   3
   0  -4 -16 282.443 93.0679   2
  -4   0  16 164.823 83.7615   3
   4   0 -16 184.455 93.6917   4
  -4   4  17 169.603 87.3303   3
  -2  -3 -17 587.075 130.813   2
  -5   3  17 583.368 128.012   3
  -5   2  17 800.858 158.981   3
  -3  -2 -16 101.825 94.4971   2
  -2  -3 -16 85.3016 81.5698   2
  -5   3  16 229.451 100.542   3
  -5   2  16 46.7206 64.2739   3
  -3  -2 -15 1892.09 205.773   2
  -2  -3 -15 1891.15 211.312   2
  -5   3  15 1662.01 184.769   3
  -5   2  15 1921.90 182.162   1
  -5   2  15 1827.24 195.499   3
  -2   5 -15 1960.52 210.742   4
   5  -2 -15 1707.37 182.327   4
   2   3  15 1785.29 208.834   1
   3   2  15 1551.50 197.238   1
   3   2  14 3603.29 275.785   1
  -5   2  14 3721.95 258.419   3
  -5   2  14 3522.95 222.775   1
   2   3  14 3986.78 293.242   1
   5  -2 -14 3579.33 243.010   4
  -2   5 -14 3464.64 270.074   4
  -3  -2 -14 3548.70 269.290   2
  -2  -3 -14 4403.26 293.374   2
  -5   3  14 3762.66 263.308   3
  -5   2  13 2465.03 208.363   3
  -5   2  13 2608.74 183.518   1
   2   3  13 2690.55 230.694   1
  -2   5 -13 2300.76 212.066   4
  -3  -2 -13 2765.38 234.383   2
   3   2  13 2545.78 221.032   1
  -5   3  13 2732.74 220.194   3
   5  -2 -13 2677.06 202.718   4
  -2  -3 -13 2452.33 218.150   2
  -5   2  12 1666.43 142.231   1
  -3  -2 -12 1360.68 161.007   2
  -5   3  12 1283.93 148.714   3
  -2  -3 -12 1603.33 173.726   2
  -5   2  12 1554.23 169.741   3
   5  -2 -12 1022.20 126.842   4
   2   3  12 1258.51 159.066   1
  -2   5 -12 1445.66 171.083   4
  -3   5 -12 1440.29 168.019   4
   5  -3 -12 1432.68 138.459   4
   3   2  12 1533.86 170.127   1
  -3  -2 -11 646.427 116.133   2
  -5   3  11 653.509 109.836   3
  -3   5 -11 450.093 99.1144   4
  -5   2  11 777.456 125.711   3
  -5   2  11 471.625 79.1291   1
  -2  -3 -11 540.980 108.457   2
  -2   5 -11 659.724 121.112   4
   2   3  11 512.972 112.258   1
   5  -3 -11 725.387 100.293   4
   5  -2 -11 430.509 87.6007   4
   3   2  11 725.776 121.524   1
  -5   3  10 7413.52 325.868   3
  -2   5 -10 7278.10 316.231   4
  -5   2  10 7292.26 324.012   3
   5  -2 -10 6495.80 269.506   4
   2   3  10 6938.76 323.135   1
  -2  -3 -10 7886.46 334.481   2
  -3   5 -10 6946.48 305.682   4
   5  -3 -10 7416.04 265.627   4
   3   2  10 6875.01 311.574   1
   2  -5  10 6845.21 216.507   3
  -3  -2 -10 7117.17 323.838   2
  -3  -2 -10 7208.51 254.999   3
   2  -5   9 702.484 78.1889   3
  -3   5  -9 749.267 103.620   4
  -3  -2  -9 913.141 98.0626   3
  -5   3   9 680.259 112.224   3
  -3  -2  -9 683.890 114.902   2
  -5   2   9 658.139 110.299   3
  -2  -3  -9 904.382 123.874   2
   2   3   9 1147.67 134.041   1
   5  -3  -9 908.064 96.1361   4
  -2   5  -9 672.270 104.314   4
   5  -2  -9 690.438 91.7363   4
   3   2   9 724.842 107.295   1
   3  -5   9 767.505 64.6584   3
   5  -3  -8 1309.39 103.206   4
  -2  -3  -8 1316.77 140.163   2
  -2   5  -8 1497.62 140.806   4
  -5   3   8 1433.93 145.711   3
  -3  -2  -8 1100.55 130.761   2
   2   3   8 1362.16 144.637   1
  -3   5  -8 1264.75 127.025   4
   3   2   8 1372.57 136.879   1
   5  -2  -8 1365.19 116.204   4
   2  -5   8 1264.11 99.2039   3
  -3  -2  -8 1293.53 111.731   3
  -2  -3  -8 1397.24 126.282   3
   3  -5   8 1403.28 90.9130   3
  -5   3   7 6784.18 285.474   3
   5  -3  -7 6977.96 227.098   1
   2   3   7 7210.50 288.625   1
  -3   5  -7 7338.35 269.025   4
   3   2   7 7288.59 279.195   1
  -2   5  -7 7335.56 276.613   4
   5  -2  -7 7277.95 244.273   4
  -2  -3  -7 6985.55 263.141   3
  -3  -2  -7 6887.34 291.258   2
  -2  -3  -7 6945.67 289.886   2
  -3  -2  -7 7320.77 255.159   3
   2  -5   7 7273.60 230.947   3
   5  -3  -7 7228.55 215.348   4
   3  -5   7 7102.40 201.124   3
   5  -3  -7 6848.19 117.279   2
  -5   3   6 19422.9 464.681   3
  -3   5  -6 20315.1 412.877   4
   5  -3  -6 19977.1 246.895   2
   3   2   6 20244.6 437.418   1
   2  -5   6 19518.9 377.885   3
  -2   5  -6 20442.7 431.257   4
   5  -3  -6 20902.0 338.750   4
   5  -2  -6 20138.0 384.267   4
   3  -5   6 20056.0 421.365   4
   2  -5   6 20777.6 448.638   4
  -3  -2  -6 19936.2 474.281   2
  -2  -3  -6 20036.0 469.905   2
  -3  -2  -6 20383.6 420.819   3
  -2  -3  -6 20071.8 438.153   3
   3  -5   6 20692.0 352.179   3
   5  -3  -6 19934.9 359.677   1
   3  -5   5 12549.3 312.250   4
  -2  -3  -5 12460.9 336.735   1
  -3  -2  -5 12651.4 365.988   2
   5  -3  -5 12312.5 220.089   2
  -5   3   5 12547.5 364.965   3
   3   2   5 13210.8 334.621   1
   5  -3  -5 12594.4 270.971   1
  -3   5  -5 12458.3 302.873   4
   5  -3  -5 12519.4 247.155   4
   5  -2  -5 12575.7 294.474   4
  -2  -3  -5 12184.7 340.302   3
   5  -2  -5 11942.0 190.135   2
  -2  -3  -5 12761.9 366.716   2
  -3  -2  -5 12129.9 325.048   3
   2  -5   5 12447.6 303.865   3
  -2   5  -5 12653.0 324.245   4
   3  -5   5 12305.9 280.231   3
  -5   3   4 2044.45 149.436   3
  -2  -3  -4 2069.76 151.414   2
   5  -2  -4 2200.58 82.4309   1
  -2   5  -4 2203.90 135.130   4
   3   2   4 2461.82 142.990   1
   5  -3  -4 2155.18 103.006   2
  -3  -2  -4 1933.54 124.855   1
  -3   5  -4 2234.28 124.007   4
  -2  -3  -4 2094.88 134.544   1
   5  -3  -4 2086.11 108.054   1
   5  -2  -4 2188.43 94.4660   2
   2  -5   4 2133.20 129.917   3
  -3  -2  -4 2254.44 157.606   2
   5  -3  -4 2069.05 98.4113   4
   5  -2  -4 2269.99 125.191   4
  -2  -3  -4 2136.78 145.471   3
   3  -5   4 2095.18 125.447   4
   3  -5   4 2023.99 119.696   3
  -5   3   3 9611.07 298.387   3
  -3  -2  -3 9256.86 242.702   1
   5  -3  -3 9650.26 221.650   1
  -2  -3  -3 9390.52 296.939   3
   5  -3  -3 9696.14 226.980   2
   5  -3  -3 9577.45 197.364   4
  -3   5  -3 10052.0 233.758   4
  -2   5  -3 9761.19 254.616   4
  -2  -3  -3 9479.42 302.530   2
   5  -2  -3 9392.56 212.841   2
   3   2   3 9693.40 306.091   2
  -3  -2  -3 9751.70 302.429   2
  -2  -3  -3 9829.13 270.552   1
   5  -2  -3 9450.88 156.157   1
  -3   5  -3 9929.09 265.301   3
   2  -5   3 10223.9 281.184   3
   3  -5   3 9301.52 257.256   3
   2   3   3 9158.00 299.645   2
  -3  -2  -2 17034.7 305.111   1
  -5   3   2 17768.2 389.103   3
   5  -2  -2 17737.6 312.270   2
   5  -3  -2 17098.3 317.445   2
  -2  -3  -2 17194.2 340.198   1
  -2   5  -2 17076.8 317.464   4
  -3  -2  -2 18024.7 394.505   2
  -2  -3  -2 17024.5 392.526   2
   2   3   2 17196.3 402.432   2
  -3   5  -2 17558.5 357.170   3
   2  -5   2 18154.4 380.190   3
   3   2   2 17942.8 397.831   2
  -3   5  -2 17555.4 282.559   4
   3  -5   2 17212.0 353.730   3
   2   3   1 4508.40 204.521   2
  -3  -2  -1 4636.20 198.985   2
  -5   3   1 4942.15 201.088   3
  -3  -2  -1 4609.08 148.796   1
  -2  -3  -1 5043.51 179.198   1
  -2   5  -1 4886.70 203.765   3
   5  -3  -1 4821.71 179.230   2
   5  -2  -1 4555.15 170.255   2
  -2   5  -1 5007.97 165.304   4
  -2  -3  -1 4711.60 204.304   2
  -3   5  -1 4409.77 188.998   3
  -3   5  -1 4717.68 132.868   4
   2  -5   1 4770.38 199.642   3
   3   2   1 4764.02 205.044   2
   3  -5   1 4765.91 192.696   3
  -5   3   0 1010.82 97.5087   3
   2   3   0 1078.14 103.141   2
  -2   5   0 1020.94 102.227   3
  -3   5   0 920.057 94.1709   3
   2  -5   0 883.914 95.0094   3
  -3  -2   0 1058.16 70.1527   1
   5  -3   0 966.064 87.9506   2
   3  -5   0 972.665 96.8510   3
  -3   5   0 1013.27 58.8783   4
  -2   5   0 951.008 77.5300   4
  -3  -2   0 977.195 94.7879   2
  -2  -3   0 1112.03 102.855   2
   5  -2   0 1030.54 91.0128   2
   3   2   0 1012.05 96.4957   2
  -5   3  -1 1285.58 97.8059   3
   2   3  -1 1129.87 105.197   2
  -2   5   1 1130.54 110.182   3
   5  -2   1 1320.45 103.827   2
  -3   5   1 1112.82 107.785   3
  -3  -2   1 1189.05 71.0373   1
  -3   5   1 1274.23 57.9315   4
   5  -3   1 1213.20 104.612   2
  -3  -2   1 1363.48 104.588   2
  -2  -3   1 1154.02 102.391   2
   2  -5  -1 1290.57 115.357   3
   3  -5  -1 1258.92 108.724   3
   3   2  -1 1130.40 101.304   2
  -2   5   2 10123.5 302.154   3
   3   2  -2 9925.70 267.980   2
  -5   3  -2 9882.91 249.117   3
   5  -3   2 9807.77 289.451   2
   2  -5  -2 9363.71 291.947   2
  -3   5   2 9836.52 147.668   4
   5  -2   2 10010.2 288.314   2
   2  -5  -2 9775.12 303.107   3
  -3   5   2 9740.01 294.887   3
  -2  -3   2 10194.9 279.373   2
  -3  -2   2 10309.1 264.015   2
   3  -5  -2 10092.7 300.644   3
   2  -5  -3 3255.15 177.870   2
  -5   3  -3 3408.08 139.608   3
   3   2  -3 2973.95 145.323   2
   3  -5  -3 3562.74 176.144   2
  -3   5   3 3230.88 178.317   3
   5  -2   3 3400.19 176.568   2
  -3  -2   3 3081.24 143.502   2
   5  -3   3 3237.87 173.788   2
  -2   5   3 3056.49 176.455   3
  -2  -3   3 3250.39 157.122   2
   2  -5  -3 3145.58 179.594   3
   3  -5  -3 3411.52 182.568   3
  -5   3  -4 4257.65 148.372   3
   3  -5  -4 4535.50 200.009   2
  -3   5   4 4236.99 211.485   3
  -2   5   4 4000.40 204.936   3
   2   3  -4 4373.67 220.909   4
   5  -2   4 4405.60 210.724   2
  -3  -2   4 4433.35 166.885   2
  -2  -3   4 4539.58 181.759   2
   2  -5  -4 4407.97 204.789   2
  -5   3  -5 6504.34 164.677   3
   3  -5  -5 5975.80 229.300   2
   5  -3   5 6551.80 228.430   4
  -3   5   5 6659.91 154.711   4
   2   3  -5 5733.42 255.558   4
   3   2  -5 6594.18 272.345   4
  -3  -2   5 6425.50 191.181   2
  -2   5   5 6233.98 255.289   3
  -3   5   5 6596.98 264.925   3
   2  -5  -5 6414.73 246.878   2
  -2  -3   5 6322.38 213.802   2
   5  -3   6 22943.2 453.724   4
   2   3  -6 24463.9 528.180   4
   3   2  -6 24151.9 525.899   4
  -3   5   6 23487.3 320.721   4
  -3  -2   6 24467.5 361.834   2
  -2   5   6 22910.8 495.723   3
  -3   5   6 23885.4 509.742   3
   2  -5  -6 22971.7 466.938   2
   3  -5  -6 24371.9 455.825   2
  -5   3  -6 24075.1 279.347   3
  -2  -3   6 23433.5 402.281   2
  -5   2  -7 5525.93 131.784   3
  -3   5   7 5268.05 169.412   4
   2   3  -7 5254.11 258.769   4
   3   2  -7 5481.11 262.306   4
  -3  -2   7 5491.93 168.112   2
  -2   5   7 5260.18 247.348   3
   2  -5  -7 5309.94 232.085   2
  -5   3  -7 5020.79 98.8742   3
  -3   5   7 6088.74 268.263   3
   3  -5  -7 5559.02 222.316   2
  -2  -3   7 5141.87 190.631   2
  -2  -3   8 1709.43 115.625   2
  -5   2  -8 1730.10 53.8795   3
   2   3  -8 1945.24 168.847   4
   3   2  -8 1750.13 163.306   4
  -2   5   8 1938.77 127.717   4
  -3   5   8 1703.62 108.587   4
   2  -5  -8 1739.39 140.050   2
  -3  -2   8 1804.98 96.5373   2
   3  -5  -8 1895.22 135.576   2
  -2   5   8 2167.64 166.640   3
  -3   5   8 1944.29 164.226   3
  -2  -3   9 7273.85 225.044   2
  -3   5   9 6666.13 225.433   4
   2  -5  -9 6995.00 272.086   2
   3  -5  -9 6819.98 249.906   2
   2   3  -9 6818.65 312.541   4
  -3  -2   9 7179.05 178.792   2
  -2   5   9 6589.45 287.422   3
   3   2  -9 6971.54 314.297   4
  -2   5   9 7110.35 252.421   4
  -3   5   9 6817.92 300.155   3
  -2  -3  10 6316.35 210.282   2
  -3   5  10 6030.05 229.596   4
   3   2 -10 6648.33 317.305   4
   2  -5 -10 6215.12 263.167   2
   3  -5 -10 6316.45 243.049   2
   2   3 -10 6480.50 315.167   4
  -3  -2  10 6216.77 159.063   2
  -2   5  10 6014.22 283.242   3
  -3   5  10 5842.08 286.677   3
  -2  -3  11 4071.31 170.104   2
  -3   5  11 4075.51 246.604   3
   2   3 -11 3989.82 263.104   4
   3  -5 -11 3798.05 194.329   2
   3   2 -11 4243.92 265.532   4
   2  -5 -11 3916.75 214.412   2
  -2   5  11 3623.06 228.389   3
   2   3 -12 132.765 81.5338   4
  -2   5  12 35.9059 68.0044   3
  -3   5  12 177.091 85.6121   3
   3   2 -12 136.987 82.9932   4
   3  -5 -12 116.251 57.1102   2
   2  -5 -12 236.094 69.8478   2
   2  -5 -13 481.698 90.3903   2
  -3  -2  13 462.523 91.0003   1
  -2   5  13 390.635 101.543   3
  -3   5  13 507.155 108.912   3
   3  -5 -13 545.495 85.8520   2
   5  -2  13 493.529 115.176   1
   2   3 -13 479.686 127.707   4
   3   2 -13 651.099 133.326   4
  -3  -2  14 4795.53 264.011   1
   5  -2  14 3866.85 281.282   1
   2   3 -14 4658.02 308.850   4
   3   2 -14 4032.40 287.866   4
   2  -5 -14 4159.93 233.581   2
  -2   5  14 4301.75 266.201   3
  -3   5  14 4827.62 286.342   3
  -2   5  15 536.565 120.918   3
  -3   5  15 412.716 103.800   3
   5  -2  15 725.019 150.101   1
   2   3 -15 543.545 135.095   4
   3   2 -15 602.382 141.932   4
  -3  -2  15 717.748 122.309   1
  -2   5  16 935.533 144.998   3
  -3   5  16 815.278 138.812   3
  -2  -3  16 544.128 126.921   1
  -2  -3  17 957.194 153.205   1
  -5   1  16 4577.91 306.158   3
  -4  -1 -16 4371.29 315.874   2
   5  -1 -16 4552.50 309.843   4
  -1  -4 -16 4180.91 290.000   2
  -5   4  16 4170.91 294.008   3
  -4  -1 -15 37.3371 85.9731   2
   4   1  15 123.677 86.1263   1
  -5   4  15-78.1888 83.0202   3
  -1  -4 -15 113.817 93.1519   2
  -5   1  15-73.7001 92.6169   3
  -1   5 -15-56.1705 76.5879   4
   5  -1 -15-41.0780 80.9336   4
  -4  -1 -14 487.011 111.870   2
   4   1  14 653.533 134.810   1
  -5   4  14 602.114 125.413   3
  -1  -4 -14 549.715 127.498   2
  -5   1  14 669.837 129.654   3
   1   4  14 739.247 153.069   1
  -1   5 -14 465.085 117.854   4
   5  -1 -14 454.975 116.537   4
  -4  -1 -13-70.5086 89.5948   2
  -5   4  13-49.2887 72.3408   3
   4   1  13 111.487 91.0779   1
   1   4  13 80.8520 86.0904   1
  -1  -4 -13 79.2819 93.8771   2
  -5   1  13-9.62076 66.9117   3
  -5   1  13-58.5376 60.4525   1
   5  -1 -13-34.9327 68.8011   4
  -1   5 -13 57.6657 76.3996   4
  -5   1  12 23424.8 612.306   3
   1   4  12 22928.9 645.220   1
  -5   1  12 23129.4 474.966   1
  -1   5 -12 22836.6 620.733   4
  -4  -1 -12 23646.5 634.929   2
   5  -1 -12 22761.7 577.336   4
  -1  -4 -12 23546.8 606.432   2
   4   1  12 23103.1 625.942   1
  -5   4  12 22497.3 603.110   3
  -5   1  11 312.988 71.2568   1
  -4  -1 -11 139.478 81.0496   2
  -5   4  11 137.114 82.0324   3
   4   1  11 120.867 71.7273   1
   1   4  11 313.961 110.358   1
  -1   5 -11 147.965 80.3727   4
   5  -1 -11 110.310 73.7766   4
  -1  -4 -11 300.275 98.5909   2
   1  -5  10 355.534 70.2614   3
  -1  -4 -10 295.426 87.9940   2
  -4  -1 -10 355.549 62.6382   3
  -4  -1 -10 318.271 97.5961   2
  -5   4  10 456.867 102.401   3
   4   1  10 349.180 81.4915   1
  -5   1  10 413.180 64.9815   1
  -1   5 -10 313.272 87.4258   4
   5  -4 -10 248.439 26.8141   2
   5  -1 -10 372.567 82.5929   4
   1  -5   9 82.2464 41.9575   3
  -4  -1  -9 45.3031 34.9441   3
  -5   4   9-10.5244 63.8302   3
   4   1   9 112.703 67.4757   1
  -4  -1  -9-7.99894 74.4353   2
  -5   1   9 99.1305 39.9035   1
  -1  -4  -9-28.3185 58.5683   2
   5  -4  -9 17.0762 19.7624   2
  -1   5  -9 153.065 66.1309   4
   5  -1  -9 53.6001 65.8175   4
   5  -4  -8 7500.95 274.815   1
   4  -5   8 8022.59 172.664   3
  -4  -1  -8 7420.11 242.484   3
   5  -1  -8 7376.14 283.735   4
  -1   5  -8 7617.08 310.130   4
  -4  -1  -8 6946.66 310.862   2
  -1  -4  -8 8080.85 320.306   2
   4   1   8 7593.10 295.506   1
   1  -5   8 7176.34 256.099   3
   5  -4  -8 7808.94 178.179   2
  -5   4   8 7685.39 319.815   3
   5  -4  -7 675.043 61.2803   2
   4  -5   7 913.553 69.2271   3
   1  -5   7 948.387 101.747   3
  -4  -1  -7 912.183 94.0239   3
   4   1   7 1085.12 117.827   1
  -5   4   7 972.700 125.020   3
  -4  -1  -7 767.609 115.032   2
   5  -4  -7 901.609 98.1775   1
   4  -5   7 816.511 95.5260   4
  -1   5  -7 944.145 118.327   4
   5  -1  -7 919.910 105.592   4
  -1  -4  -7 1008.91 119.827   2
  -5   4   6 1450.28 144.308   3
  -4  -1  -6 1216.20 132.499   2
   5  -4  -6 1397.67 75.5248   4
  -1   5  -6 1428.43 131.451   4
   4  -5   6 1344.80 114.196   4
   5  -1  -6 1404.97 126.582   4
   4  -5   6 1416.47 90.5752   3
   5  -4  -6 1292.12 110.928   1
  -1  -4  -6 1411.63 139.089   2
  -4  -1  -6 1264.47 105.894   3
   1  -5   6 1206.37 112.324   3
   4   1   6 1367.63 120.208   1
  -4   5  -5 98.3456 40.1831   3
   1  -5   5 50.3083 46.9521   3
  -5   4   5-29.8354 68.4406   3
   4  -5   5 105.044 37.6466   3
  -4  -1  -5 75.5922 58.6013   2
   4  -5   5 135.369 49.2140   4
   5  -4  -5 93.5458 23.5461   4
  -1  -4  -5 183.677 73.5565   2
   5  -1  -5 128.313 58.4763   4
   5  -4  -5 100.256 48.0862   1
   5  -1  -5 75.9583 24.9015   2
  -1   5  -5 92.1208 55.0562   4
   4   1   5 76.2926 51.9067   1
  -5   4   4 14733.9 389.058   3
   4  -5   4 14509.7 302.325   3
   5  -4  -4 14697.7 332.551   1
   5  -4  -4 14988.7 167.974   4
  -1   5  -4 14856.8 361.618   4
   4  -5   4 15081.6 306.556   4
  -1  -4  -4 15041.3 378.973   1
  -4  -1  -4 15189.0 397.058   2
   4   1   4 15024.6 323.629   1
   5  -1  -4 15255.9 256.701   2
  -1  -4  -4 14946.2 394.187   2
  -4   5  -4 15333.3 312.976   3
   1  -5   4 15342.8 368.164   3
   1  -5   3 260.865 60.5339   3
  -1  -4  -3 221.833 67.2032   3
  -5   1   3 219.957 49.6399   2
  -4   5  -3 160.238 50.6069   3
  -5   4   3 154.045 60.9163   3
   4  -5   3 115.815 43.3793   3
  -4  -1  -3 129.445 59.2640   2
   5  -4  -3 173.763 16.9414   4
   4   1   3 134.614 48.5090   2
   4   1   3 175.526 49.2492   1
   5  -1  -3 178.820 40.9583   2
   4  -5   3 224.565 48.1001   4
  -1   5  -3 328.266 72.8086   4
  -1  -4  -3 265.606 72.6099   2
  -1  -4  -3 206.767 63.0138   1
  -5   4   2 2107.74 144.463   3
   4  -5   2 2235.87 131.020   3
  -1  -4  -2 2243.02 155.432   2
   1   4   2 2259.93 154.859   2
  -1  -4  -2 2395.91 146.519   1
  -5   1   2 2401.59 120.658   2
  -1   5  -2 2495.81 144.228   4
   5  -1  -2 2407.18 121.745   2
   4  -5   2 2302.81 99.5251   4
   4   1   2 2303.11 151.623   2
  -1  -4  -2 2299.39 156.821   3
   1  -5   2 2160.46 145.452   3
  -4   5  -2 2239.50 130.823   3
  -4  -1  -2 2158.52 146.726   2
  -1  -4  -1 385.787 79.1704   3
   1  -5   1 533.053 86.0998   3
  -4   5  -1 520.584 73.9027   3
   1  -5   1 457.926 84.7909   2
  -5   1   1 488.506 67.9895   2
   1   4   1 559.352 86.6328   2
  -5   4   1 398.729 75.2982   3
   4  -5   1 470.062 69.8476   3
  -4  -1  -1 434.557 73.6866   2
   5  -1  -1 507.603 67.2214   2
   4   1   1 535.093 80.1947   2
  -1  -4  -1 401.194 85.1541   2
   4  -5   0 95607.7 881.264   3
   1  -5   0 96989.7 961.600   2
   5  -1   0 94292.2 830.056   2
  -5   1   0 96152.1 832.883   2
  -4  -1   0 96254.9 854.318   2
  -1  -4   0 96190.1 961.560   3
   4   1   0 94559.9 869.054   2
   1  -5   0 98167.8 948.777   3
  -4   5   0 96009.9 881.970   3
  -1  -4   0 94959.4 927.750   2
   5  -1   0 95638.4 416.876   1
   5  -4   0 96819.1 482.771   4
  -5   4   0 95400.8 853.605   3
   1  -5  -1-27.7755 60.9284   2
  -4  -1   1 16.6828 40.9477   2
   1  -5  -1 38.1204 52.4856   3
  -4   5   1 58.3935 49.7945   3
  -5   1  -1 116.022 59.9570   2
   5  -4   1 17.6740 23.8764   4
  -5   4  -1-28.6443 46.4671   3
   4  -5  -1 47.0682 49.5493   3
   5  -1   1-3.31557 22.8631   1
   4   1  -1-8.11998 37.6580   2
  -1  -4   1-13.1694 48.2787   2
   5  -1   1-23.2580 41.0038   2
   4  -5  -2 1679.69 129.098   3
   1  -5  -2 1793.73 141.281   3
   5  -4   2 1617.67 128.461   2
   5  -4   2 1828.64 92.5188   4
  -5   1  -2 1785.32 132.881   2
  -4  -1   2 1748.21 109.809   2
   5  -1   2 1791.65 129.065   2
  -1   5   2 1718.43 136.474   3
  -4   5   2 1685.39 135.203   3
   4   1  -2 1609.85 111.357   2
  -1  -4   2 2089.24 142.631   2
  -5   4  -2 1731.35 111.880   3
   1  -5  -2 1547.67 131.593   2
  -1  -4   3 213.448 65.5480   2
  -1   5   3 112.122 59.0426   3
   5  -4   3 178.625 60.3880   2
  -5   1  -3 199.358 69.6294   2
  -4   5   3 215.429 70.6001   3
  -5   4  -3 175.256 45.4501   3
  -4  -1   3 148.574 45.0372   2
   5  -4   3 162.291 43.4396   4
   5  -1   3 107.521 45.9044   2
   1  -5  -3 27.5202 58.9842   2
   4   1  -3 196.998 48.6530   2
  -1  -4   4 13675.2 343.214   2
   4   1  -4 13740.0 280.224   2
  -5   1  -4 13790.5 378.835   2
   5  -4   4 13482.4 292.517   4
  -4  -1   4 13870.0 272.396   2
  -1   5   4 14161.8 380.801   3
   1   4  -4 13623.0 379.149   4
   1  -5  -4 13118.2 365.891   2
  -4   5   4 14404.0 383.389   3
  -5   4  -4 14172.2 276.850   3
  -1  -4   5 727.964 92.0907   2
  -1   5   5 803.401 107.340   3
   4  -5  -5 872.486 92.1177   2
  -5   1  -5 854.662 115.811   2
  -4   5   5 771.879 103.825   3
   4   1  -5 1037.44 125.587   4
   5  -4   5 806.567 85.4569   4
   1   4  -5 880.855 114.393   4
   1  -5  -5 1051.90 112.997   2
  -4  -1   5 783.423 67.2612   2
  -5   4  -5 870.960 68.3431   3
   4  -5  -6 259.290 62.9709   2
  -1   5   6 271.724 76.4571   3
  -1  -4   6 232.422 65.9119   2
  -5   4  -6 168.086 34.8609   3
  -5   1  -6 259.141 80.1266   2
  -4   5   6 231.269 80.4518   3
  -4  -1   6 289.298 43.9963   2
   5  -4   6 138.361 52.1589   4
  -4   5   6 192.839 29.9263   4
   1   4  -6 94.9839 65.8634   4
   4   1  -6 284.281 80.5481   4
   1  -5  -6 340.243 81.6403   2
  -4  -1   6 232.815 33.5340   1
  -5   4  -7 176.587 26.3717   3
  -1   5   7 198.571 71.2048   3
  -1  -4   7 177.681 63.6350   2
  -4  -1   7 169.965 37.0910   1
  -5   1  -7 156.061 77.4273   2
  -4   5   7 223.115 83.9962   3
   5  -1   7 220.127 64.9097   1
  -4  -1   7 198.588 33.8412   2
   1  -5  -7 291.334 86.3629   2
  -4   5   7 162.656 36.5301   4
   1   4  -7 79.4918 73.4351   4
   4   1  -7 68.0888 78.2187   4
   4  -5  -7 208.406 55.9620   2
  -1  -4   8 6133.68 236.326   2
  -4  -1   8 6023.46 180.960   1
  -4   5   8 5931.18 179.216   4
   5  -1   8 5971.24 261.699   1
  -5   1  -8 6167.53 293.135   2
   1   4  -8 5861.40 283.734   4
  -4  -1   8 6263.79 125.732   2
   4   1  -8 6035.88 282.227   4
   1  -5  -8 5798.80 260.750   2
  -5   1  -8 5982.98 165.504   3
  -1   5   8 5992.26 269.131   3
   4  -5  -8 6273.35 222.274   2
  -4   5   8 5837.94 278.838   3
  -1   5   9 176.402 73.8439   3
  -5   1  -9 113.400 75.6820   2
  -5   1  -9 111.307 26.1788   3
  -1  -4   9 170.070 53.9520   2
  -4   5   9 90.4534 71.2072   3
   5  -1   9 153.565 62.4243   1
   1   4  -9 280.312 87.6636   4
   1  -5  -9 115.050 59.3139   2
   4   1  -9 205.331 83.3262   4
  -4   5   9 71.9596 36.9500   4
   4  -5  -9 44.8972 39.7484   2
  -4  -1   9 211.118 49.6964   1
   1   4 -10 169.754 79.2748   4
  -1   5  10 67.1001 55.9026   3
  -4  -1  10 70.9040 43.4628   1
   4  -5 -10 108.276 50.4413   2
  -5   1 -10 209.754 80.2253   2
  -4   5  10 37.4869 53.7741   3
   5  -1  10 8.22961 56.7645   1
   1  -5 -10 51.9469 56.2226   2
   4   1 -10 214.846 88.0164   4
  -4   5  10 16.5518 41.1890   4
   5  -1  11 88.6141 71.7120   1
  -1   5  11 27.3262 61.8830   3
  -5   1 -11 142.412 86.6764   2
  -4   5  11 133.906 69.1576   3
  -4  -1  11 68.8864 46.1363   1
   4  -5 -11 41.9315 38.1314   2
   1   4 -11-18.8686 80.0567   4
   4   1 -11 90.5259 67.5866   4
   1  -5 -11 116.686 73.4617   2
   5  -1  12 28899.8 691.814   1
  -5   1 -12 28076.5 697.318   2
   1   4 -12 28670.0 710.255   4
   4   1 -12 27533.7 677.996   4
   1  -5 -12 27925.4 620.252   2
  -1   5  12 27073.7 619.359   3
  -4   5  12 28098.7 668.985   3
  -4  -1  12 29010.7 541.711   1
  -1   5  13 0.93695 65.0428   3
  -4   5  13 129.647 83.5121   3
   1   4 -13-16.6097 64.8457   4
   4   1 -13 92.6372 88.7552   4
   5  -1  13-28.8221 84.8774   1
  -4  -1  13 64.2008 55.0106   1
   1  -5 -13 71.0857 67.2930   2
  -1   5  14 1.95742 71.5903   3
   4   1 -14 28.8695 73.0075   4
  -4   5  14 41.2193 70.3564   3
   1  -5 -14-29.2257 55.3533   2
   5  -1  14 69.9945 82.8784   1
  -4  -1  14 142.967 61.8886   1
   1   4 -14-3.82369 75.4180   4
  -1   5  15 109.061 81.9407   3
  -4   5  15 0.39147 76.8698   3
   5  -1  15-12.1448 95.0921   1
   1  -5 -15 23.1730 62.5316   2
   4   1 -15-51.7654 82.9925   4
  -4  -1  16 2282.15 208.555   3
  -4   5  16 1990.10 207.338   3
  -5   0   0 6491.69 233.134   2
   5   0   0 6414.31 232.458   2
  -5   5   0 6470.64 242.238   3
   0  -5   0 6146.27 255.136   2
   0  -5   1 16753.2 417.142   2
  -5   0  -1 16356.7 379.953   2
  -5   0   1 15997.7 346.747   2
   5   0   1 16063.3 378.639   2
   5   0  -1 16210.4 352.799   2
  -5   5  -1 16326.5 366.050   3
  -5   5   1 15929.4 387.530   3
   0  -5  -1 15947.5 412.405   2
   5  -5   1 15866.5 202.371   4
   0  -5   2 44709.5 677.684   2
   5   0   2 44476.8 433.292   1
   5   0   2 43675.9 643.477   2
  -5   0  -2 43632.0 644.899   2
  -5   0   2 43290.3 546.468   2
   5  -5   2 43564.8 407.625   4
   5   0  -2 43546.2 551.608   2
  -5   5  -2 42544.9 571.865   3
   0  -5  -2 43329.4 680.703   2
  -5   5   2 42411.7 645.588   3
   0  -5   3 8186.58 292.820   2
  -5   0   3 8085.67 225.106   2
  -5   0  -3 7780.18 285.558   2
   5  -5   3 7875.18 200.699   4
   0   5  -3 8292.68 288.972   4
   5   0  -3 8024.32 227.685   2
   5   0   3 7980.73 211.322   1
   0  -5  -3 7703.76 294.028   2
  -5   5  -3 8095.09 241.911   3
  -5   5   3 8094.00 293.978   3
   5  -5   4 660.636 75.0558   4
   0  -5   4 738.088 101.276   2
  -5   5  -4 576.690 70.0726   3
  -5   5   4 639.177 104.190   3
  -5   0   4 588.003 63.4792   2
  -5   0  -4 465.392 84.4021   2
   5   0   4 609.900 72.1899   1
   0   5  -4 723.835 109.114   4
   0  -5  -4 769.936 110.575   2
   5   0  -4 570.212 64.2715   2
   5   0  -5 438.238 54.4316   2
  -5   5  -5 522.936 63.2253   3
   0  -5   5 554.239 97.3698   2
  -5   0   5 496.452 54.9376   2
  -5   5   5 459.373 83.4510   3
  -5   0  -5 475.151 93.9141   2
   5  -5  -5 590.386 93.9641   1
   5   0   5 596.023 79.0778   1
   5  -5   5 531.930 73.6559   4
   0   5  -5 516.191 101.544   4
   0  -5  -5 712.559 108.088   2
   5   0  -5 468.310 96.8715   4
  -5   5  -6 86.7646 38.3659   3
   5  -5  -6 39.4652 47.3246   2
  -5   0   6 43.3578 26.7261   2
  -5   5   6 63.6564 61.1149   3
  -5   0  -6 49.2408 68.4290   2
   5  -5   6 80.8314 50.9509   4
   0  -5  -6 74.7374 72.8934   2
   0   5  -6 108.882 74.6185   4
   5   0  -6 224.901 76.1715   4
   5   0   6 57.5274 52.6029   1
   5  -5  -7 68.7109 44.0180   2
  -5   0  -7 55.9465 66.4716   2
  -5   5   7-66.2583 82.4389   3
   0  -5  -7 9.76547 62.3177   2
   0   5  -7 56.0284 67.9232   4
   5   0  -7 88.6638 64.6432   4
   5   0   7 55.0590 51.1674   1
  -5   0  -8-45.4175 37.9018   3
   0  -5  -8-66.9469 66.2363   2
  -5   0  -8 23.4647 68.1901   2
  -5   5   8-14.6974 54.8794   3
  -5   0   8-6.71051 23.9322   1
   0   5  -8 137.822 77.3355   4
   5   0  -8 0.79652 65.8659   4
   5   0   8-32.9370 51.8784   1
   5  -5  -8 60.8299 42.2027   2
   0   5  -9 2899.53 214.377   4
  -5   0   9 2858.79 123.220   1
  -5   0  -9 2827.37 138.325   3
  -5   0  -9 3100.57 225.996   2
   5   0  -9 3080.15 210.411   4
   0  -5  -9 3104.96 211.534   2
   5  -5  -9 2693.55 133.519   2
   5   0   9 2981.14 197.213   1
  -5   5   9 2863.86 211.728   3
  -5   0 -10 14558.7 487.870   2
   0   5 -10 14794.6 483.186   4
   5   0 -10 14455.3 456.672   4
  -5   0  10 15112.6 311.347   1
   0  -5 -10 15589.3 472.888   2
   5  -5 -10 14978.0 300.736   2
   5   0  10 14792.1 454.898   1
  -5   5  10 14669.7 479.288   3
   0  -5 -11 7060.59 330.369   2
  -5   0 -11 7495.19 360.409   2
   0   5 -11 7053.90 348.774   4
   5   0 -11 6810.05 327.482   4
  -5   0  11 7008.48 233.820   1
   5   0  11 6900.15 329.115   1
  -5   5  11 6922.65 339.101   3
   0  -5 -12 3480.64 241.640   2
   5   0 -12 3554.19 251.044   4
   0   5 -12 3135.99 245.354   4
  -5   0 -12 3286.42 249.918   2
   5   0  12 3332.79 244.040   1
  -5   5  12 3482.80 251.011   3
   0  -5 -13 3689.22 258.101   2
  -5   0 -13 3475.72 270.732   2
   5   0 -13 3427.46 254.237   4
   0   5 -13 3611.91 272.920   4
   5   0  13 3629.97 264.906   1
  -5   5  13 3362.70 253.736   3
  -5   0 -14 8807.86 431.877   2
   0   5 -14 8680.74 428.952   4
   5   0 -14 8591.06 406.698   4
   0  -5 -14 8170.47 384.906   2
   5   0  14 8773.31 425.421   1
  -5   5  14 8718.54 408.675   3
  -5   0 -15 761.963 145.440   2
  -5   5  15 711.415 143.704   3
   5   0 -15 512.099 128.401   4
   0  -5 -15 877.719 150.473   2
  -5   0  15 950.220 157.362   3
   5   0  15 605.845 137.270   1
  -5   0  16 242.993 102.243   3
  -3  -3 -15 144.458 105.228   2
  -6   3  15 36.9044 100.989   3
  -6   3  14 2084.36 208.429   3
   3   3  14 2667.33 251.908   1
  -3  -3 -14 2344.66 231.554   2
   6  -3 -14 2519.61 199.440   4
  -3   6 -14 2055.16 217.237   4
  -3  -3 -13 4.81014 77.2572   2
  -6   3  13-140.083 88.9488   3
  -3   6 -13-91.9097 95.4652   4
   6  -3 -13 72.1804 62.9501   4
   3   3  13 96.0121 88.5513   1
  -6   3  12 8039.55 380.383   3
   3   3  12 8654.53 403.473   1
  -3   6 -12 8431.68 384.368   4
   6  -3 -12 8356.91 324.950   4
  -3  -3 -12 8325.23 391.117   2
  -6   3  11 38.5458 67.7864   3
  -3  -3 -11 57.0332 67.0863   2
   3   3  11 68.3680 85.8876   1
  -3   6 -11 68.8307 77.8685   4
   6  -3 -11 3.77043 53.1162   4
  -6   3  10 9407.31 391.037   3
   3   3  10 9491.07 386.851   1
  -3   6 -10 9760.53 373.663   4
   6  -3 -10 9677.95 316.900   4
  -3  -3 -10 9751.18 399.131   2
   3   3   9 141.656 76.9092   1
  -6   3   9-5.39693 70.9983   3
  -3  -3  -9 107.969 74.4798   2
  -3   6  -9-28.6408 56.0719   4
   6  -3  -9-6.93759 44.6702   4
  -6   3   8 14557.8 459.409   3
   3   3   8 14507.7 440.313   1
  -3   6  -8 14727.8 415.689   4
   6  -3  -8 14897.7 352.191   4
  -3  -3  -8 15500.1 472.225   2
   3  -6   8 14357.5 334.328   3
   6  -3  -7 28.3864 38.5302   4
   6  -3  -7 1.08557 10.2696   2
   3  -6   7 34.4140 46.2357   3
  -6   3   7-6.29333 72.7558   3
  -3  -3  -7 63.0556 63.8589   2
  -3   6  -7-21.8529 53.1752   4
   6  -3  -6 1344.86 88.7665   1
  -6   3   6 1405.13 145.393   3
   6  -3  -6 1206.31 99.0642   4
   6  -3  -6 1278.00 70.3548   2
  -3   6  -6 1225.92 116.845   4
   3  -6   6 1244.33 108.663   3
  -3  -3  -6 1467.07 149.411   2
   6  -3  -5 16.4837 30.7525   1
   3  -6   5-5.19572 48.1999   3
  -3  -3  -5 15.8407 49.1057   1
   6  -3  -5-20.0474 32.4918   2
  -6   3   5 22.9350 60.8659   3
  -3  -3  -5-22.3734 67.2124   2
  -3   6  -5 45.3947 50.4930   4
   6  -3  -5 27.9190 40.5366   4
  -3  -3  -4 50355.5 660.456   1
   6  -3  -4 50927.6 558.559   4
  -3   6  -4 50633.6 615.062   4
   6  -3  -4 50014.2 530.053   2
  -3  -3  -4 50207.1 765.950   2
   6  -3  -4 51492.1 477.470   1
   3  -6   4 50801.1 670.415   3
  -3  -3  -3-11.6895 43.1633   1
   3  -6   3 27.9932 49.0548   3
   6  -3  -3-7.71964 35.4407   2
   6  -3  -3 27.1687 30.5796   1
  -3  -3  -3 54.7455 64.7348   2
  -3   6  -3 15.9799 36.3262   4
  -3   6  -2 7046.87 203.808   4
   6  -3  -2 6692.81 220.737   2
  -3  -3  -2 6715.21 269.353   2
  -3  -3  -2 6862.04 222.568   1
  -3   6  -2 6705.50 253.495   3
   3  -6   2 6425.10 248.757   3
  -3   6  -1 92.3722 60.2010   3
  -3  -3  -1 27.3396 37.8944   1
   3  -6   1-38.8401 60.9356   3
   6  -3  -1 44.8303 43.6794   2
  -3  -3  -1 1.68437 53.5293   2
  -3   6  -1 15.2721 38.2633   4
   3   3   0 2753.29 171.715   2
  -3  -3   0 2739.37 130.281   1
   6  -3   0 2769.37 156.121   2
  -3   6   0 2599.55 112.006   4
  -3  -3   0 2928.46 172.465   2
  -3   6   0 2874.97 176.750   3
   3   3  -1 15.7562 45.2827   2
  -3   6   1 24.4437 57.9395   3
   6  -3   1 50.1116 52.7422   2
  -3  -3   1 51.9594 38.7008   1
  -3  -3   1 72.0712 56.3398   2
  -3   6   1 7.49849 30.6778   4
   3   3  -2 6033.25 240.689   2
   3  -6  -2 6396.53 266.432   2
  -3  -3   2 5875.61 232.657   2
  -3   6   2 5802.16 253.001   3
   3  -6  -3 48.0463 64.3947   2
  -3   6   3-10.7861 66.7744   3
  -6   3  -3 12.6058 41.3957   3
  -3  -3   3-29.9917 50.4139   2
   3  -6  -4 38666.5 644.671   2
  -6   3  -4 39279.5 506.136   3
  -3  -3   4 38299.6 556.975   2
  -3   6   4 38269.9 663.994   3
  -3   6   5 85.5957 73.9027   3
  -6   3  -5 0.36944 33.2382   3
  -3  -3   5-23.3730 48.8419   2
   3   3  -5 117.885 81.4331   4
   3  -6  -5 7.68385 58.2425   2
  -6   3  -6 3449.67 133.092   3
   3   3  -6 3459.48 225.540   4
  -3  -3   6 3664.90 170.932   2
  -3   6   6 3521.39 215.055   3
   3  -6  -6 3419.81 197.930   2
  -3   6   7-30.2891 60.5428   3
  -6   3  -7-2.07985 23.4762   3
  -3   6   7-35.5595 31.5495   4
   3   3  -7 39.9605 85.5311   4
  -3  -3   7 8.74369 38.7609   2
   3  -6  -7 108.512 60.1248   2
  -3   6   8 22465.3 393.039   4
   3   3  -8 22503.3 582.287   4
   3  -6  -8 23529.7 517.797   2
  -3   6   8 22839.3 558.505   3
  -3  -3   8 23282.7 409.602   2
  -6   3  -8 21503.1 218.720   3
  -3   6   9 52.3821 67.2480   3
  -3   6   9 15.3228 40.8279   4
   3   3  -9 15.5402 75.6793   4
   3  -6  -9 89.5260 64.4466   2
  -3  -3   9 40.2873 39.4486   2
   3   3 -10 10484.8 424.092   4
   3  -6 -10 11151.9 366.448   2
  -3   6  10 9861.28 389.033   3
  -3  -3  10 10654.6 266.103   2
  -3   6  11 136.239 80.6381   3
   3  -6 -11-24.0584 51.5852   2
   3   3 -11-90.1991 94.5717   4
   3   3 -12 3095.94 250.365   4
  -3   6  12 3177.07 236.950   3
   3  -6 -12 3021.03 198.753   2
   3  -6 -13-45.1013 59.9608   2
  -3   6  13 8.48233 72.7337   3
   3   3 -13 107.562 101.208   4
   3   3 -14 4179.72 306.212   4
  -3   6  14 4266.45 285.096   3
  -3   6  15 98.0959 87.0879   3
  -3   6  16 7029.10 383.232   3
  -6   4  15 1392.12 183.690   3
  -2  -4 -15 980.277 159.649   2
  -6   2  15 1127.22 171.507   3
   6  -2 -15 1068.90 155.310   4
  -6   2  14 3160.21 260.783   3
   2   4  14 3035.59 267.561   1
  -2   6 -14 3153.61 265.596   4
   6  -2 -14 3055.06 230.908   4
  -4  -2 -14 2735.04 248.663   2
   4   2  14 2922.33 255.239   1
  -2  -4 -14 3411.48 268.003   2
  -6   4  14 3037.97 255.355   3
  -4  -2 -13 1172.81 168.273   2
  -6   4  13 1004.25 151.574   3
  -6   2  13 763.503 136.785   3
  -2  -4 -13 1074.57 159.614   2
   2   4  13 1133.04 175.941   1
  -2   6 -13 997.681 155.563   4
   6  -2 -13 1182.45 148.754   4
   4   2  13 1176.49 170.289   1
   4   2  12 939.710 148.357   1
  -4  -2 -12 742.592 138.410   2
  -6   4  12 757.973 134.515   3
  -6   2  12 971.807 142.833   3
   2   4  12 1097.49 169.706   1
  -2  -4 -12 927.120 147.847   2
   6  -2 -12 1075.78 134.879   4
  -2   6 -12 914.761 151.539   4
  -6   2  11 2297.32 205.899   3
  -6   4  11 1995.30 195.200   3
  -2   6 -11 2419.23 206.584   4
   6  -2 -11 2173.08 175.039   4
   4   2  11 2464.08 206.079   1
  -4  -2 -11 2371.61 216.607   2
  -2  -4 -11 2329.84 208.744   2
  -6   4  10 9824.91 403.030   3
  -6   2  10 10153.8 409.622   3
   6  -4 -10 9812.92 290.014   4
   4   2  10 9991.73 388.389   1
  -2   6 -10 9670.55 382.872   4
   6  -2 -10 9838.10 347.471   4
  -4  -2 -10 9875.08 410.477   2
  -2  -4 -10 10070.5 402.949   2
  -6   4   9 895.092 130.226   3
  -4  -2  -9 1035.88 143.267   2
  -2  -4  -9 777.885 123.786   2
  -2   6  -9 1013.29 134.749   4
  -4   6  -9 991.542 123.940   4
   6  -4  -9 947.502 86.8710   4
   4   2   9 993.433 128.923   1
   6  -2  -9 886.755 111.251   4
  -6   4   8 4410.21 256.437   3
  -4   6  -8 4154.20 220.732   4
   6  -4  -8 4017.65 195.736   1
   4   2   8 3683.34 218.225   1
  -2   6  -8 4122.73 234.395   4
   6  -4  -8 3912.24 106.729   2
   6  -2  -8 4028.99 207.805   4
  -4  -2  -8 4102.94 254.177   2
  -2  -4  -8 3701.21 238.103   2
   6  -4  -8 3944.12 162.405   4
   2  -6   8 3681.78 189.933   3
   6  -4  -8 3897.95 108.281   2
   4  -6   8 4081.66 161.420   3
   6  -2  -7 833.556 100.508   4
   6  -4  -7 809.223 63.6260   2
   6  -4  -7 931.864 96.9079   1
   2  -6   7 752.986 94.3713   3
  -6   4   7 1056.65 138.741   3
  -4  -2  -7 884.124 125.748   2
   6  -4  -7 761.051 59.7774   2
   6  -4  -7 816.932 72.8258   4
  -2  -4  -7 950.888 128.891   2
   4   2   7 874.367 112.444   1
  -4   6  -7 796.756 100.067   4
  -2   6  -7 1054.11 122.240   4
   4  -6   7 892.806 85.3293   3
  -6   4   6 10110.9 364.659   3
   4  -6   6 9442.07 299.649   4
  -4   6  -6 9627.41 295.409   4
   4   2   6 9831.92 321.199   1
   6  -4  -6 9884.57 222.659   2
   6  -4  -6 9626.10 211.470   4
  -2   6  -6 9967.13 326.440   4
   4  -6   6 10110.6 273.948   3
  -4  -2  -6 9661.99 362.016   2
  -2  -4  -6 9760.04 361.292   2
   6  -4  -6 9999.63 280.139   1
   6  -2  -6 9964.13 302.211   4
   6  -2  -6 9797.79 171.891   2
   2  -6   6 9570.47 303.785   3
  -6   4   5 13769.9 415.323   3
   4   2   5 14416.8 363.427   1
   6  -4  -5 14316.7 288.684   2
  -4   6  -5 14160.0 332.772   4
   6  -4  -5 14099.3 324.646   1
   6  -2  -5 14476.7 357.776   4
  -4  -2  -5 14723.9 429.376   2
  -2  -4  -5 13523.6 413.967   2
   6  -2  -5 14525.4 251.569   2
   2  -6   5 14558.2 375.658   3
   4  -6   5 13707.3 337.288   4
   6  -4  -5 14781.4 244.037   4
  -2   6  -5 14342.9 374.006   4
   4  -6   5 14167.7 334.263   3
  -4   6  -4 103.871 56.4279   3
   6  -4  -4 0.13653 34.6897   2
   4  -6   4-63.7292 43.9523   3
  -6   4   4-60.7816 70.6145   3
  -4  -2  -4-4.39766 64.7501   2
   6  -4  -4-6.95709 39.7846   1
   6  -2  -4 15.8630 29.5654   2
  -2   6  -4 13.5833 50.8254   4
  -4   6  -4 79.3225 48.2534   4
  -2  -4  -4 88.9271 65.5839   2
   6  -4  -4 15.6764 25.3865   4
   6  -2  -4 62.1626 62.5998   4
  -6   4   3 16054.5 418.880   3
  -2   6  -3 16171.6 362.937   4
   6  -4  -3 15474.4 335.879   2
  -4   6  -3 15631.9 296.977   4
  -4  -2  -3 15576.8 419.614   2
  -2  -4  -3 15853.2 384.444   1
   6  -2  -3 15597.3 313.119   2
  -2  -4  -3 15474.4 425.386   2
  -4   6  -3 15856.8 370.537   3
   6  -4  -3 15930.1 231.820   4
   4  -6   3 15877.7 369.374   3
  -6   4   2 13239.4 369.028   3
   6  -4  -2 12457.7 312.081   2
  -4   6  -2 12545.7 240.491   4
  -2   6  -2 12487.0 308.846   4
   6  -2  -2 12744.0 300.041   2
  -4  -2  -2 11932.3 357.656   2
  -2  -4  -2 11855.1 322.159   1
  -2  -4  -2 12733.8 378.592   2
  -4   6  -2 12832.9 342.619   3
   4  -6   2 12874.6 342.068   3
  -4   6  -1 380.981 77.4408   3
  -4  -2  -1 310.351 45.8200   1
   6  -4  -1 273.857 61.3527   2
   4  -6   1 300.092 65.4116   3
  -6   4   1 314.911 76.1370   3
   6  -2  -1 297.741 58.4244   2
  -2  -4  -1 280.422 77.5449   2
  -4  -2  -1 367.800 77.2848   2
  -2  -4  -1 340.427 71.0189   1
  -4   6  -1 378.342 41.9870   4
  -2   6  -1 405.097 67.7013   4
  -4   6   0 127.479 67.7426   3
   6  -4   0 142.573 57.1372   2
   2  -6   0 118.101 66.1548   2
  -6   4   0 218.711 67.1889   3
  -4  -2   0 132.393 34.0755   1
   6  -2   0 202.687 56.6417   2
  -4  -2   0 252.447 66.1767   2
  -4   6   0 146.915 25.3642   4
  -2   6   0 260.508 66.5458   4
  -2  -4   0 147.719 72.2775   2
   4   2   0 119.372 56.5872   2
  -6   4  -1 1150.72 107.649   3
  -2   6   1 1189.29 124.394   3
   2  -6  -1 1078.02 121.280   2
  -4   6   1 1101.59 117.957   3
   6  -4   1 967.897 105.833   2
   6  -2   1 1079.46 105.794   2
  -4   6   1 916.135 36.4187   4
  -4  -2   1 1078.68 105.820   2
  -2  -4   1 1112.26 120.943   2
  -4  -2   1 1121.80 66.5866   1
   4   2  -1 1031.77 108.189   2
  -6   4  -2 16409.9 358.875   3
   4   2  -2 16430.8 381.443   2
   2  -6  -2 16165.1 429.717   2
  -4  -2   2 16736.0 225.408   1
  -4  -2   2 16383.5 367.233   2
  -2   6   2 16559.4 428.184   3
  -4   6   2 16903.0 423.539   3
  -2  -4   2 16257.9 400.453   2
  -6   4  -3 6201.37 212.446   3
   2  -6  -3 7032.83 288.846   2
   4   2  -3 6234.12 230.482   2
  -4  -2   3 6272.49 136.512   1
  -6   2  -3 6462.60 265.672   2
   6  -4   3 6519.69 207.554   4
  -4  -2   3 6630.90 229.314   2
  -2   6   3 6216.40 271.211   3
  -4   6   3 6650.75 277.961   3
  -2  -4   3 6472.48 252.872   2
   4  -6  -4 12012.2 353.286   2
  -6   2  -4 11834.2 374.353   2
   6  -4   4 12175.3 302.799   4
   2   4  -4 12486.4 395.915   4
  -4  -2   4 12549.3 304.200   2
  -2   6   4 11832.4 373.721   3
  -4   6   4 12701.9 389.040   3
  -2  -4   4 12113.5 341.297   2
   2  -6  -4 12521.3 379.643   2
  -6   4  -4 12511.7 285.243   3
   4  -6  -5 3880.19 205.946   2
  -6   2  -5 3834.74 228.099   2
   6  -4   5 3427.12 174.045   4
   2   4  -5 3520.87 221.242   4
   4   2  -5 3250.10 215.655   4
  -4  -2   5 3540.85 160.002   2
  -2   6   5 3766.11 220.048   3
  -4   6   5 4086.41 232.501   3
   2  -6  -5 3676.35 212.733   2
  -2  -4   5 3551.77 189.042   2
  -6   4  -5 3778.33 150.500   3
  -6   2  -6 13052.7 420.718   2
   6  -4   6 12269.8 343.229   4
  -4   6   6 12848.0 193.792   4
   2   4  -6 13263.4 428.843   4
   4   2  -6 12844.7 418.921   4
  -4  -2   6 13269.0 291.019   2
  -2   6   6 12767.0 405.039   3
  -4   6   6 13073.0 417.825   3
   2  -6  -6 13125.1 396.048   2
  -6   4  -6 13568.6 257.873   3
  -2  -4   6 13514.0 353.997   2
   4  -6  -6 13016.6 364.535   2
  -4  -2   7 5096.04 175.330   2
   4   2  -7 5077.34 273.457   4
  -4   6   7 5198.00 146.112   4
   2   4  -7 5002.87 272.733   4
  -2   6   7 5007.55 260.620   3
   2  -6  -7 5384.59 261.136   2
  -6   4  -7 5400.48 141.308   3
  -4   6   7 5210.48 273.046   3
   4  -6  -7 5607.66 241.813   2
  -2  -4   7 5375.50 224.182   2
  -2   6   8 350.850 92.0740   3
  -4   6   8 243.087 88.1003   3
  -4  -2   8 231.522 46.4727   2
  -4   6   8 236.384 42.8353   4
   2   4  -8 353.539 102.625   4
   4   2  -8 369.765 98.0051   4
   2  -6  -8 338.067 79.3974   2
   4  -6  -8 259.273 66.2247   2
  -2  -4   8 227.677 58.3450   2
  -6   2  -9 5412.81 116.052   3
  -4  -2   9 5743.50 161.267   2
   4   2  -9 5187.32 292.055   4
   2   4  -9 5279.33 295.764   4
   2  -6  -9 5524.59 273.928   2
  -2   6   9 5487.77 286.192   3
   4  -6  -9 5617.38 243.585   2
  -4   6   9 5548.98 296.639   3
  -2  -4   9 5535.50 226.451   2
   2   4 -10 5698.72 316.082   4
   4   2 -10 5003.33 295.735   4
   2  -6 -10 4361.65 247.169   2
   4  -6 -10 5177.78 235.843   2
  -2   6  10 5191.67 283.166   3
  -4   6  10 5498.49 300.847   3
  -2  -4  10 5047.46 216.872   2
  -4  -2  11 1953.30 135.420   1
   6  -2  11 1967.34 186.334   1
   2   4 -11 1941.45 195.998   4
   4   2 -11 2078.23 202.596   4
   2  -6 -11 1801.00 170.989   2
   4  -6 -11 2154.13 156.245   2
  -2   6  11 1860.62 184.154   3
  -4   6  11 1977.13 189.888   3
  -2  -4  11 2087.19 143.251   2
  -4  -2  12 888.950 104.461   1
  -2   6  12 963.535 139.001   3
  -4   6  12 907.569 136.472   3
   2  -6 -12 1008.47 132.930   2
   4  -6 -12 837.815 102.508   2
   6  -2  12 787.961 124.664   1
   2   4 -12 991.823 158.493   4
   4   2 -12 1122.82 162.338   4
  -2   6  13 958.161 142.834   3
  -4   6  13 1025.40 155.089   3
   2  -6 -13 879.572 126.879   2
   6  -2  13 1043.97 152.300   1
   2   4 -13 808.858 143.116   4
   4   2 -13 971.845 160.124   4
   6  -2  14 4210.06 303.132   1
   2   4 -14 4079.83 306.652   4
   4   2 -14 3658.17 288.697   4
   2  -6 -14 4561.91 269.613   2
  -2   6  14 3980.33 274.270   3
  -4   6  14 3903.05 281.665   3
  -2   6  15 256.340 87.5033   3
  -4   6  15 407.167 109.292   3
  -1  -5 -15 840.222 149.338   2
  -6   1  15 959.329 155.774   3
   6  -1 -15 913.467 147.918   4
  -6   1  14 5060.24 330.648   3
   5   1  14 4848.38 323.180   1
  -5  -1 -14 4802.13 336.983   2
   6  -1 -14 4701.15 302.167   4
  -1  -5 -14 4818.55 318.716   2
  -6   5  14 4939.08 325.370   3
   5   1  13 1029.80 158.870   1
  -5  -1 -13 1091.62 171.442   2
  -6   5  13 795.118 144.309   3
  -6   1  13 778.763 135.508   3
  -1  -5 -13 832.103 147.713   2
  -1   6 -13 942.797 155.203   4
   6  -1 -13 858.013 137.159   4
   5   1  12 1118.47 158.227   1
  -5  -1 -12 1075.16 165.823   2
  -6   5  12 1323.99 174.895   3
  -1  -5 -12 1345.46 186.415   2
  -1   6 -12 1136.62 163.527   4
   6  -1 -12 923.343 132.289   4
  -1   6 -11 2272.10 212.342   4
  -5  -1 -11 2331.24 220.335   2
   6  -1 -11 2243.65 188.221   4
   5   1  11 2297.27 201.451   1
  -1  -5 -11 2105.22 202.949   2
  -6   5  11 2243.10 210.497   3
  -1   6 -10 9129.66 388.013   4
  -5  -1 -10 9307.13 407.056   2
   5   1  10 8704.64 363.470   1
  -1  -5 -10 9793.31 403.843   2
   6  -1 -10 9713.48 372.061   4
  -6   5  10 9937.84 410.381   3
  -1   6  -9 7423.86 336.993   4
  -5  -1  -9 6609.26 334.139   2
   6  -1  -9 6971.63 306.868   4
   5   1   9 6755.31 303.732   1
  -1  -5  -9 6548.89 322.240   2
   6  -5  -9 6852.40 187.839   2
  -6   5   9 6951.70 336.870   3
  -5  -1  -8 723.175 95.8142   3
  -6   5   8 748.738 126.104   3
  -5  -1  -8 807.747 127.705   2
  -1  -5  -8 711.478 117.901   2
  -1   6  -8 761.147 119.973   4
   6  -1  -8 606.634 103.010   4
   6  -5  -8 848.706 76.8442   2
   5   1   8 679.050 101.663   1
   6  -5  -7 2995.99 144.157   2
   5  -6   7 2974.48 136.665   3
  -1   6  -7 3028.86 204.967   4
  -5  -1  -7 2908.55 215.696   2
   5   1   7 2656.13 176.292   1
   6  -1  -7 3092.58 195.668   4
  -1  -5  -7 3350.88 222.922   2
  -5  -1  -7 3040.96 174.664   3
  -6   5   7 2941.01 213.409   3
   6  -1  -6 3872.25 120.936   2
   5  -6   6 4110.95 169.428   3
   5   1   6 4133.92 205.268   1
  -1   6  -6 4037.51 225.346   4
  -5  -1  -6 3892.92 239.004   2
   5  -6   6 3790.56 187.605   4
   6  -1  -6 3707.57 209.123   4
  -1  -5  -6 4354.88 250.058   2
   6  -5  -6 4190.67 209.134   1
  -6   5   6 3743.35 232.565   3
  -5   6  -5 135.895 53.8494   3
  -6   5   5 77.5887 64.7950   3
  -5  -1  -5 125.529 71.2037   2
   5  -6   5 19.5468 36.9734   3
   6  -5  -5 109.893 61.2582   1
  -1  -5  -5-10.2448 65.5075   2
   5   1   5 83.5605 54.7376   1
  -1   6  -5 74.7428 55.9355   4
   5  -6   5 36.7537 41.3183   4
   6  -1  -5 177.545 78.9277   4
   6  -1  -5 20.5388 29.1450   2
  -5   6  -4 728.546 90.8377   3
  -6   5   4 414.553 90.2783   3
   5  -6   4 436.651 69.1594   3
  -5  -1  -4 350.096 89.1536   2
   6  -5  -4 516.447 84.0361   1
   5   1   4 539.216 72.6767   1
  -1  -5  -4 460.077 102.242   2
  -1   6  -4 276.696 79.7638   4
   5  -6   4 621.496 74.5547   4
   6  -1  -4 620.888 66.9346   2
   5  -6   3 2985.72 163.087   3
   1  -6   3 3362.14 206.671   2
  -6   1   3 2710.83 142.911   2
  -5  -1  -3 2893.18 189.428   2
  -1   6  -3 2886.39 174.501   4
   5  -6   3 2913.07 129.938   4
   6  -1  -3 2983.67 148.426   2
  -1  -5  -3 2995.58 197.937   2
  -5   6  -3 3197.43 171.145   3
  -6   5   3 3012.98 194.408   3
   5  -6   2 11400.4 321.167   3
   1  -6   2 11330.3 371.595   2
  -6   1   2 10681.2 287.547   2
  -5  -1  -2 10922.8 345.965   2
  -1   6  -2 11270.7 326.609   4
   6  -1  -2 10721.6 287.632   2
  -1  -5  -2 10536.1 359.414   2
  -5   6  -2 10826.9 315.655   3
  -6   5   2 11120.1 351.220   3
   5  -6   1 16481.1 397.897   3
   1  -6   1 16313.4 442.778   2
  -6   1   1 16464.8 371.396   2
  -5  -1  -1 16654.5 411.780   2
  -1   6  -1 17047.1 392.973   4
   6  -1  -1 16700.7 375.725   2
  -5   6  -1 16396.6 399.668   3
  -1  -5  -1 15958.1 433.649   2
  -6   5   1 16184.4 410.513   3
   1  -6   0 9170.95 336.572   2
  -6   1   0 8921.99 290.093   2
   6  -5   0 8908.02 136.311   4
  -5  -1   0 8846.11 292.279   2
   6  -1   0 9282.59 291.604   2
   5   1   0 9278.30 304.328   2
  -5   6   0 9397.21 313.350   3
  -1  -5   0 9143.55 327.100   2
  -6   5   0 9604.91 306.678   3
   1  -6  -1 3219.37 206.062   2
  -6   1  -1 2546.37 165.714   2
   6  -5   1 2851.84 99.9264   4
  -5  -1   1 2892.23 166.109   2
   6  -1   1 3011.25 95.5732   1
   5   1  -1 2947.81 171.215   2
  -5   6   1 2755.76 177.921   3
  -1  -5   1 2819.39 186.778   2
  -6   5  -1 3226.47 175.462   3
  -6   1  -2 28766.8 553.200   2
   6  -5   2 28527.2 358.391   4
  -5  -1   2 29820.2 494.681   2
   6  -1   2 30245.3 359.445   1
  -5   6   2 28869.0 569.031   3
   5   1  -2 28690.9 501.168   2
  -6   5  -2 29505.7 501.366   3
  -1  -5   2 29806.8 571.067   2
   1  -6  -2 29685.9 599.511   2
  -6   1  -3 832.978 115.512   2
  -5   6   3 732.157 111.810   3
   6  -1   3 787.852 73.1592   1
  -6   5  -3 752.115 85.9875   3
  -5  -1   3 831.151 86.8880   2
   6  -5   3 649.941 65.8066   4
   1   5  -3 836.086 126.615   4
   1  -6  -3 704.036 112.610   2
  -1  -5   3 797.102 105.188   2
   5   1  -3 636.867 83.1724   2
  -1  -5   4 2.06448 59.4161   2
   5   1  -4 118.255 50.0083   2
  -6   1  -4 79.9318 73.5558   2
  -5   6   4 253.441 86.0017   3
  -6   5  -4 150.954 49.1765   3
  -5  -1   4 183.416 56.0593   2
   6  -1   4 79.1055 44.2859   1
   6  -5   4 91.6784 38.2847   4
   1   5  -4 355.081 105.627   4
   1  -6  -4 119.107 81.3071   2
  -1  -5   5 6796.74 276.571   2
   5  -6  -5 7312.68 270.277   2
   6  -1   5 7934.39 253.352   1
  -6   1  -5 7148.95 308.081   2
   6  -5   5 7244.58 240.932   4
   1   5  -5 7783.18 322.920   4
  -5  -1   5 7448.21 219.071   2
   5   1  -5 6799.73 302.925   4
  -1   6   5 6864.93 301.458   3
   1  -6  -5 7614.98 317.439   2
  -6   5  -5 7485.22 222.480   3
  -5   6   5 6881.83 304.855   3
  -1  -5   6 871.939 111.332   2
  -1   6   6 733.783 110.660   3
   5  -6  -6 846.017 99.3934   2
  -6   1  -6 766.633 123.862   2
  -5   6   6 844.953 123.104   3
   6  -5   6 770.569 92.2821   4
  -5  -1   6 782.725 71.8942   2
   1   5  -6 838.428 127.854   4
   5   1  -6 938.484 130.195   4
   1  -6  -6 643.018 108.565   2
   6  -1   6 753.293 91.5923   1
  -6   5  -6 854.708 75.7882   3
  -1  -5   7 4397.00 227.784   2
   6  -1   7 4659.71 224.022   1
  -6   1  -7 3984.29 249.435   2
  -5  -1   7 3853.41 91.8138   1
  -5  -1   7 4718.90 146.883   2
   1   5  -7 4518.95 261.015   4
   5   1  -7 4380.50 256.167   4
  -1   6   7 4734.90 259.335   3
  -6   5  -7 4405.56 140.926   3
   1  -6  -7 4383.41 248.229   2
  -5   6   7 4541.59 262.393   3
   5  -6  -7 4735.70 215.903   2
  -6   1  -8 660.587 72.7332   3
  -1   6   8 924.584 126.316   3
  -1  -5   8 935.484 110.984   2
  -6   1  -8 596.439 115.277   2
  -5   6   8 920.096 131.898   3
  -5  -1   8 864.535 55.8415   2
  -5  -1   8 757.232 54.7789   1
   1  -6  -8 876.806 122.300   2
   5   1  -8 796.910 130.949   4
   6  -1   8 678.201 103.159   1
   1   5  -8 940.809 138.879   4
   5  -6  -8 836.242 95.3625   2
  -1   6   9 917.065 136.726   3
  -1  -5   9 849.764 108.348   2
  -6   1  -9 925.375 138.353   2
  -5   6   9 707.827 121.124   3
   6  -1   9 610.435 101.214   1
   1  -6  -9 717.477 118.563   2
  -5  -1   9 804.645 66.1489   1
   1   5  -9 907.398 139.062   4
   5   1  -9 799.186 129.974   4
   5  -6  -9 697.675 87.4527   2
  -1  -5  10 11484.7 365.316   2
   6  -1  10 11581.4 414.729   1
  -6   1 -10 11355.4 452.008   2
   1   5 -10 12358.9 461.992   4
   5   1 -10 11662.6 440.728   4
   1  -6 -10 11595.7 420.454   2
  -1   6  10 11966.1 427.805   3
   5  -6 -10 12282.0 332.576   2
  -5   6  10 12022.0 448.739   3
  -1  -5  11 1563.04 142.522   2
  -1   6  11 1604.13 172.535   3
  -6   1 -11 1444.60 179.261   2
  -5   6  11 1530.25 177.619   3
   6  -1  11 1500.67 164.205   1
   1  -6 -11 1739.47 172.128   2
   1   5 -11 1443.44 176.480   4
   5   1 -11 1398.12 174.583   4
   5   1 -12 1938.86 202.050   4
  -6   1 -12 1657.80 194.732   2
  -5   6  12 1869.91 196.714   3
   6  -1  12 1857.97 188.365   1
   1  -6 -12 1603.52 172.769   2
   1   5 -12 1900.91 204.777   4
  -1   6  12 1988.98 188.632   3
   6  -1  13 1842.75 198.142   1
  -5   6  13 1985.42 208.158   3
   5   1 -13 2240.65 222.462   4
   1  -6 -13 2407.53 219.550   2
   1   5 -13 1920.69 207.097   4
  -1   6  13 2501.02 215.524   3
   5   1 -14 4209.36 303.419   4
   1  -6 -14 4168.54 285.943   2
  -1   6  14 3811.52 267.382   3
  -5   6  14 3651.43 279.290   3
   6  -1  14 3756.26 285.838   1
  -1   6  15 886.120 139.733   3
   1  -6 -15 914.697 146.811   2
  -6   0   0 48014.7 694.447   2
  -6   6   0 48529.8 722.345   3
   0  -6   0 49195.7 791.914   2
  -6   6  -1 111.560 63.9566   3
  -6   6   1 109.481 67.4861   3
  -6   0   1 118.522 61.8554   2
  -6   0  -1 133.310 69.4342   2
   6   0  -1 159.862 59.0074   2
   0  -6  -1 53.9928 75.9833   2
   0  -6   1 113.412 71.8185   2
   0  -6   2 275.874 81.4022   2
  -6   6  -2 284.635 71.8384   3
  -6   6   2 369.218 90.9858   3
   6  -6   2 237.866 38.8445   4
  -6   0   2 215.188 56.3440   2
  -6   0  -2 143.225 67.3876   2
   0   6  -2 445.003 102.446   4
   6   0  -2 235.822 59.5527   2
   0  -6  -2 319.906 102.200   2
   0  -6   3 273.222 87.5152   2
  -6   6  -3 370.393 78.1489   3
  -6   6   3 191.809 73.5537   3
  -6   0   3 246.152 58.9287   2
  -6   0  -3 357.633 86.9870   2
   6   0   3 204.346 45.6804   1
   6  -6   3 255.364 45.8090   4
   0   6  -3 291.634 90.2328   4
   0  -6  -3 247.331 90.8564   2
   6   0  -3 292.114 63.6397   2
   0  -6   4 6947.24 301.366   2
  -6   0   4 7246.06 228.851   2
   6   0   4 7377.39 229.203   1
   6  -6   4 7073.65 216.280   4
   0   6  -4 7149.17 302.686   4
  -6   0  -4 7365.83 313.272   2
   0  -6  -4 6944.37 316.870   2
  -6   6  -4 7186.07 248.078   3
   6   0  -4 7107.80 230.616   2
  -6   6   4 7640.00 321.233   3
   6   0  -5 99.8606 41.4536   2
   6   0   5 115.278 50.2248   1
   0  -6   5 169.200 75.5044   2
  -6   6  -5 108.972 46.1598   3
  -6   0   5 86.8122 42.5053   2
  -6   6   5 96.7100 74.1863   3
  -6   0  -5 51.1598 63.6181   2
   6  -6   5 59.0988 38.1514   4
   0   6  -5 182.021 74.0227   4
   0  -6  -5 179.279 78.5902   2
   6   0  -5 175.616 80.3669   4
  -6   6  -6 400.209 64.9164   3
   0  -6   6 358.269 88.5494   2
  -6   0   6 272.316 45.6368   2
   6  -6  -6 307.397 60.4441   2
   6   0   6 409.334 74.4334   1
  -6   0  -6 455.034 106.521   2
  -6   6   6 267.458 94.5493   3
   6  -6   6 409.998 72.1689   4
   0  -6  -6 278.172 79.9100   2
   0   6  -6 277.732 78.7175   4
   6   0  -6 269.152 83.1445   4
   6  -6  -7 10.3347 46.1359   2
   0  -6   7 2.48845 66.1416   2
  -6   0  -7 135.217 87.9737   2
  -6   6   7 92.4655 80.6256   3
   6   0   7 26.5828 49.0046   1
   0  -6  -7 76.9172 72.4131   2
   0   6  -7 134.255 84.7518   4
   6   0  -7-3.86017 68.2706   4
   0  -6   8 13006.5 415.910   2
  -6   0  -8 11878.2 449.243   2
   0   6  -8 12776.4 448.746   4
   6   0  -8 12893.4 440.660   4
   6   0   8 12818.6 393.720   1
   0  -6  -8 12832.1 448.384   2
  -6   6   8 12935.5 460.640   3
   6  -6  -8 12930.9 334.749   2
   0  -6   9 146.725 75.3170   2
  -6   0  -9 109.206 88.7504   2
  -6   6   9 253.283 98.9839   3
   6   0   9 57.2992 66.3503   1
   0  -6  -9 108.132 86.9293   2
   0   6  -9 83.6572 89.3293   4
   6   0  -9 10.7562 72.7618   4
   6  -6  -9 185.487 54.5301   2
  -6   0 -10 189.747 87.1469   2
   0  -6  10 55.4563 70.3325   2
  -6   6  10 231.824 91.5602   3
   6   0  10 98.4247 63.2641   1
   0   6 -10 60.2201 67.4710   4
   6   0 -10 118.236 84.0315   4
   0  -6 -10-28.6016 88.4760   2
  -6   0 -11 100.709 90.6786   2
  -6   6  11-78.6803 79.5490   3
   6   0  11-8.19304 70.2879   1
   0  -6 -11-81.1085 102.987   2
   0   6 -11 61.1221 82.7963   4
   6   0 -11 28.7966 77.7052   4
  -6   0 -12 11697.3 501.284   2
   0   6 -12 10696.3 466.672   4
   6   0 -12 11629.5 464.555   4
   0  -6 -12 10807.8 455.718   2
   6   0  12 10875.7 443.111   1
  -6   6  12 10801.8 466.279   3
  -6   0 -13 36.3397 78.3683   2
  -6   6  13 46.6678 88.6908   3
   6   0  13 46.9331 85.5881   1
   0  -6 -13-58.4722 101.105   2
   0   6 -13-67.6138 94.2498   4
   6   0 -13-48.6324 84.7926   4
   6   0  14-48.7215 87.1791   1
   0  -6 -14 126.090 89.2109   2
   6   0 -14 83.6760 72.3299   4
   0  -6 -15-161.364 100.844   2
  -7   4  13 2590.24 240.942   3
   4   3  13 2599.20 243.921   1
  -7   3  13 2362.37 237.551   3
  -3   7 -13 2324.15 222.985   4
  -3  -4 -13 2352.67 231.753   2
  -4  -3 -13 2507.46 246.548   2
  -7   4  12 279.824 98.2764   3
  -4  -3 -12 238.026 83.9202   2
  -7   3  12 235.741 108.428   3
  -3  -4 -12 176.150 87.9546   2
   4   3  12 313.280 112.254   1
  -3   7 -12 373.998 118.435   4
  -7   4  11 733.955 139.255   3
  -4  -3 -11 860.144 152.670   2
  -7   3  11 704.817 138.847   3
  -3  -4 -11 706.784 138.945   2
   4   3  11 810.954 140.116   1
  -4   7 -11 798.993 140.445   4
  -3   7 -11 754.993 149.550   4
   7  -3 -11 705.302 104.698   4
  -7   4  10 7451.38 372.643   3
  -7   3  10 7288.68 369.651   3
   4   3  10 7031.57 346.318   1
  -4   7 -10 6795.59 325.115   4
  -3   7 -10 6567.47 325.477   4
   7  -3 -10 6777.67 283.091   4
  -4  -3 -10 6850.35 361.970   2
  -3  -4 -10 6606.78 348.486   2
  -7   4   9 80.6727 85.3243   3
  -7   3   9 60.4610 71.9695   3
   4   3   9 17.0879 67.9528   1
  -4  -3  -9 23.9893 80.1170   2
  -3  -4  -9-0.36318 61.5216   2
  -4   7  -9 173.091 82.1756   4
   7  -4  -9 18.9117 47.0786   4
  -3   7  -9 52.9994 67.2266   4
   7  -3  -9 6.04006 50.6359   4
  -7   4   8 6597.27 333.862   3
  -7   3   8 7331.20 353.091   3
  -4   7  -8 6511.06 286.798   4
  -3   7  -8 6667.61 297.630   4
   7  -4  -8 6615.93 224.764   4
  -4  -3  -8 7336.41 353.946   2
  -3  -4  -8 6547.41 331.875   2
   7  -3  -8 7110.83 268.789   4
  -7   4   7 2853.68 217.815   3
  -7   3   7 2640.19 213.747   3
  -4   7  -7 3179.86 194.504   4
  -3   7  -7 3127.98 198.951   4
   7  -4  -7 3181.30 149.249   4
   7  -3  -7 3316.64 179.438   4
  -4  -3  -7 2990.33 223.403   2
  -3  -4  -7 2993.55 222.087   2
  -7   4   6 15142.5 475.841   3
  -4   7  -6 15592.2 393.919   4
  -3   7  -6 14558.3 400.422   4
   7  -4  -6 15924.9 313.676   4
   7  -3  -6 14931.1 364.129   4
   7  -4  -6 15785.4 293.164   2
  -4  -3  -6 14738.3 469.766   2
  -3  -4  -6 15027.5 480.353   2
   7  -3  -6 15540.8 263.312   2
   4  -7   6 15679.2 390.807   3
   7  -4  -6 15175.5 321.534   1
  -7   4   5 9514.98 369.928   3
  -4   7  -5 9516.73 288.796   4
  -3   7  -5 9258.08 305.851   4
   7  -4  -5 9859.68 240.707   4
   7  -4  -5 9304.64 247.663   2
   7  -3  -5 10033.1 292.464   4
  -4  -3  -5 9535.54 374.820   2
   7  -3  -5 9888.98 240.601   2
  -3  -4  -5 9653.07 375.958   2
   7  -4  -5 9421.56 246.910   1
   7  -4  -4 206.503 48.9198   2
  -7   4   4 182.756 80.8338   3
   7  -3  -4 140.024 42.1428   2
  -4  -3  -4 140.256 75.9230   2
  -3  -4  -4 160.036 70.0998   2
  -4   7  -4 180.396 56.5555   4
  -3   7  -4 147.860 55.3787   4
   7  -4  -4 160.779 43.5958   4
   7  -3  -4 273.334 64.7207   4
   7  -4  -4 160.876 45.2001   1
   7  -3  -4 125.549 23.9223   1
  -7   4   3 5065.27 259.104   3
  -4  -3  -3 4703.89 198.942   1
   7  -4  -3 4805.09 175.257   1
  -4   7  -3 5320.21 189.255   4
  -3   7  -3 5144.19 207.181   4
   7  -4  -3 5317.28 174.170   4
   7  -3  -3 5249.81 202.067   2
  -4  -3  -3 5547.05 272.481   2
  -3  -4  -3 5246.85 266.429   2
   7  -3  -3 4923.31 122.928   1
  -4   7  -3 5317.78 243.188   3
   7  -4  -3 5090.97 205.134   2
  -3  -4  -3 5375.24 229.684   1
  -7   4   2 3603.85 213.154   3
  -4  -3  -2 3656.51 166.379   1
   7  -3  -2 3546.34 113.874   1
  -4   7  -2 3576.39 146.012   4
   7  -4  -2 3404.52 176.298   2
  -3   7  -2 3639.94 167.346   4
   7  -3  -2 3500.38 176.046   2
  -4  -3  -2 3746.63 220.983   2
  -3  -4  -2 3648.77 184.740   1
  -3  -4  -2 3501.65 217.535   2
  -4   7  -2 3596.88 206.296   3
  -7   4   1 2335.07 170.345   3
  -3   7  -1 2326.43 128.832   4
   7  -3  -1 2285.99 150.099   2
  -4   7  -1 2321.74 107.772   4
   7  -4  -1 2320.67 152.558   2
  -3  -4  -1 2330.88 143.904   1
  -4  -3  -1 2191.85 169.316   2
  -3  -4  -1 2383.86 178.324   2
  -4   7  -1 2305.58 171.233   3
  -4  -3  -1 2302.16 127.618   1
  -3   7   0 443.169 92.0804   3
  -4   7   0 413.567 90.5336   3
  -7   4   0 233.750 66.2414   3
  -4  -3   0 302.744 51.2369   1
  -4  -3   0 424.303 86.9435   2
  -4   7   0 348.268 46.3847   4
  -3  -4   0 347.316 83.2367   2
  -3  -4   0 328.539 63.5187   1
  -3   7   0 418.834 64.0515   4
  -3   7   1 1226.09 138.213   3
  -4   7   1 1024.21 126.673   3
   3  -7  -1 1447.80 152.785   2
  -3  -4   1 1322.14 106.883   1
  -7   4  -1 1242.74 118.511   3
  -4   7   1 1340.18 67.6858   4
  -3   7   1 1608.98 101.708   4
  -4  -3   1 1308.89 129.606   2
  -4  -3   1 1400.59 90.7953   1
  -3  -4   1 1317.09 133.943   2
  -7   4  -2 9989.91 309.640   3
   3  -7  -2 10521.7 373.316   2
  -4  -3   2 9523.08 220.571   1
  -4   7   2 9906.92 160.704   4
  -3   7   2 10314.2 242.933   4
  -4  -3   2 9526.48 317.533   2
  -3  -4   2 9564.00 328.120   2
  -3   7   2 9675.91 355.915   3
  -4   7   2 9765.62 356.351   3
  -7   4  -3 1312.44 113.592   3
   3  -7  -3 1394.17 148.228   2
  -3   7   3 1240.49 139.535   3
  -4   7   3 1449.25 153.306   3
   4  -7  -3 1273.63 135.864   2
  -4  -3   3 1486.10 89.9118   1
  -4   7   3 1385.40 58.2238   4
  -4  -3   3 1292.17 119.655   2
  -3  -4   3 1402.46 134.126   2
  -7   4  -4 10138.0 287.634   3
   4  -7  -4 9805.20 353.864   2
  -4   7   4 9654.03 152.221   4
  -4   7   4 9256.62 152.669   4
  -4  -3   4 10205.4 312.525   2
  -3   7   4 9750.96 367.229   3
  -3  -4   4 10158.7 326.655   2
  -4   7   4 10139.2 375.124   3
   3  -7  -4 10311.3 371.913   2
  -7   4  -5 3676.69 165.972   3
   4  -7  -5 3655.93 221.877   2
  -7   3  -5 4007.35 177.772   3
  -4   7   5 3620.46 102.390   4
   3   4  -5 3673.10 245.735   4
   4   3  -5 3748.83 248.625   4
  -4  -3   5 3857.70 189.874   2
  -3   7   5 3505.21 231.469   3
  -3  -4   5 3692.46 198.587   2
  -4   7   5 3648.73 235.217   3
   3  -7  -5 3819.51 232.864   2
  -7   3  -6 19909.5 372.257   3
  -4   7   6 18920.1 257.141   4
   3   4  -6 20047.5 562.355   4
   4   3  -6 19357.7 551.152   4
  -4  -3   6 18771.7 404.357   2
  -3   7   6 19095.0 531.291   3
  -3  -4   6 19599.7 443.791   2
  -4   7   6 19595.6 538.131   3
   3  -7  -6 18619.9 503.509   2
   4  -7  -6 19186.7 493.126   2
  -7   4  -6 19456.3 352.260   3
  -7   3  -7 4696.65 167.807   3
   3   4  -7 3961.41 261.635   4
   4   3  -7 4483.33 280.166   4
  -4  -3   7 4554.33 195.923   2
  -3   7   7 4496.36 268.736   3
  -3  -4   7 4793.24 219.218   2
  -4   7   7 4439.05 266.402   3
   3  -7  -7 4707.15 259.288   2
   4  -7  -7 4783.23 253.534   2
  -7   4  -7 4701.02 157.199   3
  -3   7   8 89.2428 79.9014   3
  -4   7   8-44.1573 72.7899   3
  -4  -3   8 76.7017 43.4310   2
   3   4  -8 79.9136 81.9665   4
   4   3  -8 35.6866 87.3972   4
   3  -7  -8 89.2331 67.3890   2
  -3  -4   8 27.9874 47.8188   2
   4  -7  -8-76.7621 64.2630   2
   3   4  -9 4465.05 291.368   4
   4   3  -9 4087.40 275.334   4
   3  -7  -9 4287.63 251.153   2
  -3   7   9 4121.25 267.634   3
   4  -7  -9 4090.17 234.950   2
  -4   7   9 3871.47 258.211   3
  -3  -4   9 4533.79 209.973   2
  -3   7  10 1338.97 161.320   3
  -4   7  10 940.351 144.432   3
   3  -7 -10 1074.03 135.909   2
   3   4 -10 1243.59 169.442   4
   4   3 -10 1296.37 168.821   4
   4  -7 -10 1168.28 131.990   2
  -3   7  11 2048.65 204.526   3
  -4   7  11 1985.43 200.409   3
   3   4 -11 2284.07 224.159   4
   4   3 -11 1925.29 210.307   4
   3  -7 -11 2076.14 182.740   2
   4  -7 -11 2133.02 176.697   2
  -3   7  12 256.913 105.886   3
  -4   7  12 245.109 96.7630   3
   3  -7 -12 177.487 73.1707   2
   3   4 -12 316.553 113.608   4
   4   3 -12 327.025 100.850   4
  -3   7  13 55.8319 91.3170   3
  -4   7  13 210.864 96.2940   3
   7  -3  13 155.214 104.086   1
   3  -7 -13 23.0905 61.1695   2
  -3   7  14 4184.04 299.007   3
  -7   2  13-9.57001 85.8896   3
  -2  -5 -13 125.384 94.6527   2
  -2   7 -13 48.5911 75.3712   4
   7  -2 -13 114.024 79.6548   4
   5   2  13-5.11358 74.0070   1
  -7   2  12 3631.12 280.778   3
   5   2  12 3337.27 261.577   1
  -2   7 -12 3711.65 276.197   4
   7  -2 -12 3650.25 247.630   4
  -5  -2 -12 3582.22 287.558   2
  -2  -5 -12 3672.67 278.585   2
  -7   5  12 3519.24 278.465   3
  -7   5  11 116.242 102.309   3
  -5  -2 -11-41.2581 85.4625   2
  -7   2  11-62.3126 75.4923   3
  -2  -5 -11 129.349 84.8549   2
   5   2  11 136.579 90.3873   1
  -2   7 -11 147.471 104.393   4
   7  -2 -11 41.2990 58.3711   4
  -7   5  10 231.888 101.082   3
  -5  -2 -10 144.099 89.4723   2
  -2  -5 -10 0.77113 65.9054   2
   5   2  10 34.1816 69.0514   1
  -2   7 -10 141.511 95.7353   4
   7  -2 -10 22.2759 62.5033   4
  -7   5   9 192.812 88.3816   3
  -5  -2  -9 86.8632 83.4358   2
  -2  -5  -9 148.183 79.3951   2
   5   2   9 185.542 85.1286   1
  -2   7  -9 55.4532 72.8358   4
   7  -2  -9 155.673 77.6977   4
  -7   5   8 22261.3 607.782   3
   5   2   8 22842.1 551.177   1
  -2   7  -8 23440.6 579.323   4
   7  -2  -8 23077.1 532.161   4
  -5  -2  -8 23563.5 637.635   2
  -2  -5  -8 22861.1 620.476   2
  -7   5   7 118.585 80.7361   3
  -5  -2  -7 384.776 98.8393   2
   5   2   7 302.648 83.2154   1
  -2  -5  -7 188.086 79.1386   2
  -2   7  -7 390.647 93.2136   4
   7  -2  -7 185.965 64.8371   4
   7  -5  -6 69.5792 40.9237   2
   7  -5  -6 124.020 55.5641   1
  -7   5   6 91.6220 61.0913   3
   5  -7   6 106.798 43.9100   3
  -5  -2  -6 84.7384 65.8952   2
  -2  -5  -6 55.4620 69.2769   2
  -2   7  -6 315.577 89.5800   4
   7  -2  -6 109.695 64.5010   4
   7  -5  -5 132.897 45.9011   2
  -7   5   5 217.937 89.3597   3
   5  -7   5 112.987 52.6416   3
  -5  -2  -5 113.177 65.4544   2
   7  -5  -5 174.417 23.0474   4
  -2  -5  -5 59.6740 69.8057   2
  -2   7  -5 61.9353 58.0994   4
   7  -2  -5 208.253 46.0676   2
   7  -2  -5 354.875 81.5180   4
   7  -5  -5 117.790 48.9450   1
  -7   5   4 10817.1 386.158   3
   7  -5  -4 9796.52 301.474   1
   7  -5  -4 9981.54 292.045   2
   7  -5  -4 9755.21 127.681   4
  -2   7  -4 10647.7 336.114   4
  -5  -2  -4 10408.1 383.630   2
   7  -2  -4 10187.5 268.942   2
  -2  -5  -4 10778.2 395.278   2
  -5   7  -4 10445.3 326.593   3
  -5   7  -3 146.993 58.1084   3
   7  -5  -3 51.9069 43.2797   2
  -7   5   3 77.4863 68.2016   3
  -5  -2  -3 23.6999 63.9619   2
   7  -2  -3 60.1558 42.6579   2
   7  -5  -3 77.3735 14.9671   4
  -2  -5  -3 9.94645 66.6229   2
  -2   7  -3 26.4626 52.0070   4
  -5   7  -2 165.811 72.6530   3
   2  -7   2 103.000 65.6520   2
  -7   5   2 211.072 80.5721   3
  -5  -2  -2 105.522 62.7130   2
   7  -2  -2 105.444 45.9906   2
  -2  -5  -2 199.635 81.4280   2
   7  -5  -2 126.069 22.1619   4
  -2   7  -2 118.230 55.6295   4
  -5   7  -1 85.1288 68.9643   3
   2  -7   1 167.398 86.5653   2
  -7   5   1 194.396 70.3389   3
  -5  -2  -1 97.3541 63.9352   2
   7  -2  -1 111.409 55.7462   2
   7  -5  -1 107.346 24.1995   4
  -2  -5  -1 227.752 73.9431   2
  -2   7  -1 179.837 62.3382   4
   2  -7   0 15703.5 465.702   2
   7  -5   0 16004.7 244.726   4
  -2   7   0 17278.9 383.343   4
  -5  -2   0 16998.6 434.350   2
  -2  -5   0 16443.8 458.874   2
  -5   7   0 16499.4 442.084   3
   7  -2   0 15865.8 182.122   1
  -7   5   0 15728.7 417.001   3
   2  -7  -1 184.724 92.2053   2
   7  -2   1-18.5509 24.7655   1
  -5   7   1-6.45640 65.0345   3
  -7   5  -1 10.0170 49.6866   3
  -5  -2   1 6.87709 49.5657   2
   7  -5   1-0.29681 28.0336   4
  -2  -5   1-6.05139 60.8727   2
   2  -7  -2 36.0653 68.3937   2
  -5   7   2 86.1913 69.3899   3
  -7   5  -2-39.9380 50.8459   3
  -5  -2   2 38.0176 51.0237   2
   7  -5   2-29.9192 35.9626   4
  -2  -5   2-20.6011 53.4367   2
  -2   7   3 110.852 79.2109   3
   5   2  -3 83.9213 55.9493   2
  -7   2  -3-16.4927 62.4155   2
  -5   7   3 46.3583 56.1465   3
  -7   5  -3 123.490 53.8257   3
  -5  -2   3 35.4662 45.1811   2
   7  -5   3 72.4547 37.7649   4
  -2  -5   3 33.3856 63.2600   2
   2  -7  -3 134.757 79.1867   2
   5   2  -4 19609.0 428.346   2
   5  -7  -4 19152.2 483.367   2
  -7   2  -4 18417.8 503.208   2
   7  -5   4 18391.0 378.483   4
   2   5  -4 19064.8 530.386   4
  -5  -2   4 19402.4 413.894   2
  -2   7   4 17933.7 506.491   3
  -5   7   4 19209.4 518.028   3
  -2  -5   4 18799.8 474.980   2
   2  -7  -4 17915.4 502.109   2
  -7   5  -4 19178.7 399.048   3
  -2   7   5 388.899 98.4596   3
   5  -7  -5 656.819 103.487   2
  -7   2  -5 744.661 124.755   2
  -5   7   5 621.138 111.217   3
  -7   5  -5 496.476 70.0401   3
  -5  -2   5 492.797 74.4977   2
   7  -5   5 437.187 73.6509   4
   2   5  -5 598.045 114.010   4
   5   2  -5 502.604 105.911   4
   2  -7  -5 642.041 114.784   2
  -2  -5   5 406.486 83.9594   2
   5  -7  -6 245.345 80.5555   2
  -2   7   6 376.944 108.416   3
  -7   2  -6 312.968 98.0532   2
  -5   7   6 404.302 106.031   3
  -7   5  -6 282.088 52.2829   3
  -5  -2   6 196.005 20.4242   1
  -5  -2   6 338.212 61.7079   2
   2   5  -6 268.132 99.2320   4
   5   2  -6 384.172 105.475   4
   2  -7  -6 253.994 86.6953   2
  -2  -5   6 208.338 63.2866   2
  -2   7   7-7.51705 73.4244   3
  -7   5  -7 8.37848 27.3175   3
  -5   7   7-7.08096 58.8526   3
   7  -2   7 17.0190 59.1112   1
  -5  -2   7 24.8316 37.3269   2
   2   5  -7 178.344 98.9294   4
   5   2  -7 167.181 99.5509   4
   2  -7  -7-8.49102 73.2561   2
  -2  -5   7-4.17132 55.6741   2
   5  -7  -7 121.627 67.3274   2
   7  -2   8 14434.8 424.688   1
   2   5  -8 15896.9 528.557   4
   5   2  -8 14932.1 505.609   4
  -2   7   8 15354.7 499.770   3
   2  -7  -8 14922.8 477.631   2
  -5   7   8 14421.8 494.221   3
   5  -7  -8 15177.7 428.810   2
  -2  -5   8 15644.5 425.383   2
   7  -2   9 104.301 68.7014   1
  -2   7   9 142.870 92.1744   3
  -5   7   9 208.922 84.0567   3
   2  -7  -9-72.7279 84.3878   2
   2   5  -9 61.9201 84.8725   4
   5   2  -9 32.5391 67.1328   4
   5  -7  -9 128.164 55.0877   2
  -2  -5   9 80.5076 66.9482   2
  -2   7  10 707.175 124.234   3
  -5   7  10 1126.32 161.129   3
   7  -2  10 693.051 121.280   1
   2  -7 -10 1002.95 143.944   2
   2   5 -10 1079.78 153.097   4
   5   2 -10 1065.60 151.764   4
   5  -7 -10 790.494 106.745   2
  -2  -5  10 887.337 110.782   2
   7  -2  11-70.0598 80.3885   1
  -2   7  11 51.3907 72.3877   3
  -5   7  11 76.0846 65.3146   3
   2  -7 -11 115.661 96.9395   2
   2   5 -11-19.6863 85.4613   4
   5   2 -11-22.8902 75.9459   4
   5   2 -12 3669.87 285.977   4
   7  -2  12 3495.41 260.115   1
   2   5 -12 3941.54 298.443   4
   2  -7 -12 3493.28 261.910   2
  -2   7  12 3246.84 254.795   3
  -5   7  12 3289.39 265.837   3
  -2   7  13 11.9531 71.1016   3
  -5   7  13-55.4453 97.7463   3
   2  -7 -13 6.34849 89.9357   2
   7  -2  13-48.8766 81.1695   1
   5   2 -13 38.4876 96.1052   4
  -2   7  14 82.1233 90.2057   3
   7  -1 -14 2002.28 211.885   4
  -1  -6 -13 861.881 157.523   2
   7  -1 -13 759.816 139.065   4
   6   1  13 738.428 133.661   1
  -7   6  12 473.018 122.625   3
  -1  -6 -12 433.741 118.002   2
  -1   7 -12 668.896 134.557   4
   7  -1 -12 442.055 108.853   4
   6   1  12 256.140 92.7852   1
  -6  -1 -11 1505.77 189.554   2
  -7   6  11 1224.62 174.331   3
  -1  -6 -11 1267.01 171.085   2
  -1   7 -11 987.757 145.623   4
   7  -1 -11 1355.19 162.219   4
   6   1  11 1457.57 165.817   1
  -6  -1 -10 4970.65 322.819   2
  -1   7 -10 5469.19 321.184   4
   6   1  10 5293.21 290.789   1
   7  -1 -10 5097.00 294.933   4
  -1  -6 -10 5338.83 322.272   2
  -7   6  10 5189.79 321.879   3
   6   1   9 2658.12 204.477   1
  -6  -1  -9 2856.76 244.108   2
  -1   7  -9 2679.96 222.850   4
   7  -1  -9 2935.05 223.369   4
  -1  -6  -9 3030.21 245.350   2
  -7   6   9 2721.28 232.781   3
  -7   6   8 40.3845 86.7207   3
  -6  -1  -8-66.2645 77.1093   2
  -1  -6  -8 8.05447 78.0655   2
  -1   7  -8 234.661 102.888   4
   7  -1  -8-3.10073 70.4274   4
   6   1   8 18.3971 58.2983   1
   7  -6  -7 7590.33 259.930   2
   6   1   7 7461.75 294.385   1
  -6  -1  -7 7727.47 365.349   2
  -1   7  -7 7548.64 342.127   4
   7  -1  -7 7680.23 331.474   4
  -1  -6  -7 7431.80 357.105   2
  -7   6   7 7389.24 356.101   3
   1  -7   6 9253.49 375.359   2
   6   1   6 9240.57 310.593   1
  -6  -1  -6 9139.36 386.546   2
  -1   7  -6 9198.91 361.583   4
   7  -1  -6 8672.22 348.519   4
  -1  -6  -6 8691.42 378.829   2
  -6   7  -6 9268.31 287.727   3
  -7   6   6 8835.80 379.601   3
   1  -7   5 5006.10 277.447   2
   6   1   5 4723.93 209.845   1
  -6  -1  -5 4687.29 274.705   2
  -1   7  -5 4909.90 260.694   4
   7  -1  -5 4949.63 264.961   4
  -1  -6  -5 5267.81 292.765   2
  -6   7  -5 5059.35 220.394   3
  -7   6   5 4580.99 271.191   3
   1  -7   4 3638.34 237.032   2
  -6  -1  -4 3799.71 242.047   2
  -1   7  -4 4071.03 231.324   4
  -1  -6  -4 3525.16 237.698   2
  -6   7  -4 3731.13 199.850   3
   7  -1  -4 3680.17 172.771   2
  -7   6   4 3822.79 241.079   3
   1  -7   3 50.0279 74.9721   2
  -7   1   3 31.0416 44.9093   2
  -6   7  -3 195.095 71.5522   3
  -7   6   3 93.9050 68.6444   3
  -6  -1  -3 14.6016 60.6828   2
   7  -1  -3 129.062 46.7095   2
  -1   7  -3 180.986 76.8031   4
  -1  -6  -3 58.8332 73.9552   2
   1  -7   2 12782.6 437.874   2
  -7   1   2 12324.4 345.110   2
  -6  -1  -2 12681.9 406.565   2
  -1   7  -2 12279.0 376.852   4
   7  -1  -2 12573.5 348.810   2
  -1  -6  -2 11618.2 415.380   2
  -6   7  -2 12520.1 375.116   3
  -7   6   2 12501.3 407.690   3
   1  -7   1 155.239 88.5266   2
  -7   1   1 73.7451 55.5398   2
  -6   7  -1 156.171 69.2113   3
  -7   6   1 219.939 70.8206   3
  -6  -1  -1 175.237 67.2370   2
  -1   7  -1 188.191 70.4833   4
  -1  -6  -1 175.913 86.1735   2
   1  -7   0 1275.55 146.079   2
  -6  -1   0 1243.32 126.306   2
  -7   1   0 1333.48 131.250   2
  -1  -6   0 1450.54 151.024   2
  -6   7   0 1430.09 143.667   3
  -7   6   0 1697.42 152.256   3
  -7   1  -1 8333.74 320.535   2
   7  -6   1 7816.34 143.623   4
  -6  -1   1 7527.04 289.057   2
  -6   7   1 7781.62 322.214   3
  -1  -6   1 8595.58 346.293   2
  -7   6  -1 7944.08 300.439   3
   1  -7  -1 8065.08 347.306   2
  -7   1  -2 4483.55 244.383   2
   7  -1   2 4857.19 141.167   1
   7  -6   2 4737.04 142.952   4
  -6  -1   2 4645.12 221.652   2
  -6   7   2 5130.62 267.639   3
  -1  -6   2 4561.28 257.387   2
  -7   6  -2 4868.38 232.682   3
   1  -7  -2 5033.19 277.625   2
  -7   1  -3 8229.25 339.585   2
   7  -6   3 8672.17 221.605   4
  -6  -1   3 8549.13 285.885   2
   1   6  -3 9335.99 369.954   4
   7  -1   3 8619.22 219.891   1
  -6   7   3 8409.64 349.496   3
  -7   6  -3 8457.04 290.392   3
   1  -7  -3 8701.69 364.329   2
  -1  -6   3 8595.54 346.344   2
   6   1  -3 8852.31 296.475   2
   6   1  -4 266.444 61.9055   2
  -7   1  -4 231.236 81.5234   2
  -7   6  -4 313.128 69.7072   3
  -6   7   4 349.045 88.7410   3
  -6  -1   4 345.582 67.2595   2
   7  -1   4 347.925 60.9683   1
   1   6  -4 415.934 105.063   4
   1  -7  -4 430.926 99.4502   2
  -1  -6   4 349.083 90.8600   2
   6   1  -5 3814.20 178.582   2
  -7   1  -5 3697.69 245.482   2
  -6  -1   5 3729.80 174.725   2
   1   6  -5 4215.74 260.198   4
   6   1  -5 3915.61 254.258   4
   7  -1   5 4089.74 188.342   1
   1  -7  -5 3766.17 248.165   2
  -7   6  -5 4030.33 188.999   3
  -6   7   5 3981.31 255.770   3
  -1  -6   5 3909.88 234.583   2
   6  -7  -6 13913.0 404.315   2
  -7   1  -6 13342.0 464.990   2
  -6  -1   6 13381.0 304.444   2
   1   6  -6 13934.6 471.463   4
   6   1  -6 13651.2 470.573   4
   1  -7  -6 13159.9 458.366   2
  -7   6  -6 13448.4 316.126   3
   7  -1   6 13402.6 363.224   1
  -6   7   6 13058.0 461.026   3
  -1  -6   6 12755.6 417.057   2
   6  -7  -7 2963.26 190.430   2
  -7   1  -7 2459.76 212.919   2
   1   6  -7 2816.65 222.254   4
   6   1  -7 2914.80 225.441   4
   1  -7  -7 2355.32 205.268   2
  -7   6  -7 2881.01 136.082   3
   7  -1   7 2897.19 183.796   1
  -6   7   7 2787.28 224.927   3
  -1  -6   7 2961.58 206.324   2
  -1  -6   8 3226.90 215.018   2
  -7   1  -8 2865.90 238.851   2
   1   6  -8 3692.44 261.558   4
   6   1  -8 3721.16 260.755   4
   1  -7  -8 3637.66 253.090   2
   7  -1   8 3796.86 221.430   1
  -6   7   8 3592.14 257.561   3
   6  -7  -8 3681.96 207.818   2
  -1  -6   9 1442.44 149.753   2
  -7   1  -9 1209.40 165.616   2
  -6   7   9 1142.02 156.984   3
   1  -7  -9 1414.31 173.211   2
   1   6  -9 1285.06 170.809   4
   6   1  -9 1327.29 166.152   4
   7  -1   9 1270.58 142.312   1
   6  -7  -9 1231.18 123.462   2
  -1  -6  10 4214.39 248.663   2
  -7   1 -10 3938.26 289.826   2
   1   6 -10 4342.93 298.603   4
   6   1 -10 3709.53 271.048   4
   1  -7 -10 4236.60 290.933   2
   7  -1  10 4050.07 251.309   1
  -6   7  10 3894.96 281.114   3
  -1  -6  11 284.965 87.1911   2
  -7   1 -11 279.220 108.187   2
   1  -7 -11 397.144 135.721   2
  -6   7  11 304.353 112.477   3
   1   6 -11 489.978 125.337   4
   6   1 -11 282.762 112.179   4
   7  -1  11 304.452 92.0107   1
  -6   7  12 769.161 140.726   3
   1  -7 -12 909.709 159.072   2
   1   6 -12 683.160 144.562   4
   6   1 -12 550.237 133.708   4
   7  -1  12 642.503 125.730   1
   1  -7 -13 398.807 107.399   2
   7  -1  13 494.762 119.687   1
   6   1 -13 274.588 104.727   4
   1  -7 -14 2108.56 215.541   2
  -7   7   0 13.7500 59.3058   3
  -7   0   0 30.3028 52.0526   2
   0  -7   0 109.106 87.8718   2
  -7   7  -1 71.7152 64.7870   3
  -7   7   1 51.7716 63.3080   3
  -7   0   1 61.6013 65.7031   2
  -7   0  -1-41.1478 63.0088   2
   0  -7  -1 95.4417 70.0925   2
   0  -7   1-55.7724 68.1469   2
  -7   0   2 5877.43 253.316   2
  -7   0  -2 5905.92 289.516   2
   0   7  -2 6090.66 294.769   4
  -7   7  -2 5770.39 266.496   3
   0  -7  -2 5781.35 307.342   2
  -7   7   2 5754.60 291.344   3
   0  -7   2 6029.74 309.022   2
  -7   0   3 7753.58 278.323   2
  -7   0  -3 8479.98 352.855   2
   0   7  -3 7810.85 335.795   4
  -7   7  -3 8336.14 307.977   3
   0  -7  -3 8095.72 366.520   2
  -7   7   3 7740.28 343.160   3
   0  -7   3 7997.04 353.591   2
   0  -7   4 3529.54 239.640   2
   7   0   4 3438.37 160.598   1
  -7   0   4 3553.88 180.160   2
  -7   0  -4 3387.34 237.192   2
   0   7  -4 3615.17 240.027   4
   0  -7  -4 3878.27 262.644   2
  -7   7  -4 3550.12 197.770   3
  -7   7   4 3367.08 236.356   3
   0  -7   5 5081.15 284.378   2
   7   0   5 5324.98 215.839   1
  -7   0   5 4936.56 198.905   2
  -7   0  -5 5131.81 294.264   2
   0   7  -5 5239.40 289.931   4
   7   0  -5 4647.60 279.097   4
   0  -7  -5 4707.28 284.287   2
  -7   7  -5 4964.03 224.634   3
  -7   7   5 4372.78 276.466   3
   0  -7   6 8655.98 371.953   2
   7  -7  -6 8387.31 315.829   2
  -7   0  -6 8088.56 376.808   2
   7   0   6 8355.07 289.670   1
   0   7  -6 7846.05 360.085   4
   7   0  -6 8531.89 375.346   4
   0  -7  -6 8404.73 384.595   2
  -7   7  -6 8269.67 271.953   3
  -7   7   6 8155.18 376.470   3
   7  -7  -7 1432.31 134.811   2
   0  -7   7 1198.36 150.110   2
  -7   0  -7 1149.49 159.768   2
  -7   7   7 784.065 130.299   3
   0  -7  -7 1026.54 152.254   2
   0   7  -7 1344.28 165.372   4
   7   0  -7 1111.97 149.910   4
   7   0   7 1126.95 121.072   1
   0  -7   8 634.937 117.591   2
  -7   0  -8 496.091 119.019   2
  -7   7   8 714.015 137.295   3
   0  -7  -8 505.524 119.092   2
   0   7  -8 656.933 130.375   4
   7   0  -8 578.960 124.258   4
   7   0   8 659.814 106.672   1
   7  -7  -8 544.409 84.7967   2
   0  -7   9 2012.65 186.176   2
  -7   7   9 1844.37 204.951   3
  -7   0  -9 2143.22 220.720   2
   7   0  -9 1919.63 194.228   4
   7   0   9 2041.81 175.357   1
   0   7  -9 1859.24 197.215   4
   0  -7  -9 2166.44 212.877   2
   0  -7  10 3970.20 259.974   2
  -7   0 -10 3870.12 294.191   2
   0   7 -10 4003.08 287.993   4
   7   0 -10 3808.23 276.945   4
   7   0  10 3853.91 248.539   1
   0  -7 -10 4016.73 287.631   2
  -7   7  10 3674.60 281.755   3
   7   0  11 787.356 124.889   1
   0  -7  11 1058.63 148.616   2
   0  -7 -11 625.692 133.627   2
   0   7 -11 831.922 156.189   4
   7   0 -11 791.408 149.824   4
   7   0  12 385.603 111.678   1
   0  -7 -12 217.379 90.9359   2
   7   0 -12 148.161 96.3415   4
   7   0  13 414.963 110.001   1
  -4   8 -13 93.4521 95.1170   4
  -4   8 -12 5430.56 326.148   4
  -8   4  11-73.0307 87.2532   3
  -4  -4 -11 87.0517 91.2365   2
  -4   8 -11-66.6565 105.553   4
  -8   4  10-72.8858 84.4456   3
  -4  -4 -10 16.1701 77.0626   2
  -4   8 -10 164.357 91.8846   4
  -8   4   9-15.2863 85.9718   3
  -4  -4  -9 87.3915 93.4567   2
  -4   8  -9 110.030 82.2344   4
  -8   4   8 10942.3 455.229   3
  -4   8  -8 10754.8 380.962   4
  -4  -4  -8 11213.2 461.330   2
  -8   4   7 24.0269 74.0009   3
  -4  -4  -7-41.5206 75.0475   2
  -4   8  -7-29.3633 57.0537   4
  -8   4   6 1447.04 169.236   3
  -4  -4  -6 1266.14 158.444   2
   8  -4  -6 1300.15 107.661   4
  -4   8  -6 1244.84 126.527   4
  -8   4   5 101.713 86.5873   3
  -4  -4  -5 4.15913 68.7866   2
  -4   8  -5 44.7305 44.9014   4
   8  -4  -5-61.9000 55.2441   4
  -8   4   4 8738.55 370.597   3
  -4   8  -4 8622.39 278.697   4
   8  -4  -4 8884.13 263.006   4
  -4  -4  -4 8957.60 378.841   2
  -8   4   3-99.2370 73.6448   3
   8  -4  -3 48.8328 41.8066   2
  -4  -4  -3 57.6666 68.3854   2
  -4   8  -3-11.8404 37.4367   4
   8  -4  -3 13.7564 45.1472   4
  -8   4   2 3206.08 220.812   3
  -4   8  -2 3315.29 156.265   4
  -4  -4  -2 3165.56 221.966   2
  -4  -4  -2 3989.87 198.318   1
  -4   8  -1 132.554 62.7764   3
  -8   4   1-7.66001 63.8593   3
  -4  -4  -1-32.1740 67.8975   2
  -4  -4  -1-52.8898 46.2820   1
  -4   8  -1-15.5328 30.8461   4
  -8   4   0 22513.0 538.599   3
  -4   8   0 23234.4 359.887   4
  -4  -4   0 21373.1 541.089   2
  -4  -4   0 22183.8 419.225   1
  -4   8   0 22603.1 564.767   3
  -4   8   1 7.34118 61.5394   3
   4  -8  -1-3.23384 71.7456   2
  -8   4  -1 67.5392 60.8515   3
  -4  -4   1 3.58288 62.0272   2
  -4   8   1 10.3316 26.2588   4
  -4  -4   1 22.0559 35.7265   1
  -4   8   2 866.910 130.302   3
   4  -8  -2 932.557 131.272   2
  -8   4  -2 626.448 97.4021   3
  -4   8   2 773.157 60.7633   4
  -4  -4   2 763.488 110.478   2
  -4  -4   2 763.378 77.8456   1
   4  -8  -3 59.1288 75.6603   2
  -4   8   3 39.5230 65.7018   3
  -8   4  -3 7.85761 49.1793   3
  -4  -4   3 29.0038 63.9479   2
  -4   8   3-41.2707 28.5251   4
   4  -8  -4 13602.0 458.017   2
  -8   4  -4 13677.6 370.308   3
  -4   8   4 13562.6 233.253   4
  -4  -4   4 12412.3 384.227   2
  -4   8   4 12888.1 451.718   3
  -4   8   5 32.2105 91.0165   3
  -8   4  -5 11.5739 42.4747   3
  -4  -4   5 23.5844 53.1557   2
   4   4  -5 83.8631 79.4415   4
   4  -8  -5 5.47027 70.2115   2
  -4   8   6 175.728 88.1410   3
  -8   4  -6 319.850 62.5278   3
  -4  -4   6 210.080 69.8341   2
   4   4  -6 228.290 97.8312   4
   4  -8  -6 288.147 99.9652   2
  -4   8   7 70.2320 85.2821   3
  -4  -4   7 41.8550 53.2933   2
   4   4  -7 96.5434 86.9961   4
   4  -8  -7 6.57676 71.3291   2
   4   4  -8 6061.31 354.853   4
  -4  -4   8 5799.01 246.840   2
  -4   8   8 5880.30 332.975   3
   4  -8  -8 6355.11 321.314   2
  -4   8   9-148.147 98.2045   3
   4   4  -9-13.4282 73.7110   4
   4  -8  -9 91.8441 81.2583   2
  -4   8  10 43.2890 80.5658   3
   4   4 -10-32.4511 90.2397   4
   4  -8 -10-16.9221 78.0348   2
  -4   8  11-95.8889 81.3151   3
   4  -8 -11-15.5735 70.8563   2
   4   4 -11 87.4741 88.2950   4
  -3   8 -12-19.9978 81.6290   4
  -8   3  11 643.063 145.990   3
  -3  -5 -11 540.347 133.127   2
  -3   8 -11 606.284 144.969   4
  -8   5  10 3949.54 296.403   3
  -8   3  10 3622.31 285.418   3
  -3   8 -10 3957.72 272.827   4
  -5  -3 -10 3675.87 284.431   2
  -3  -5 -10 3711.65 289.725   2
  -8   5   9 5520.50 338.868   3
  -8   3   9 5249.24 331.898   3
  -3   8  -9 5131.09 292.644   4
   8  -3  -9 5687.22 268.981   4
  -5  -3  -9 5587.02 342.908   2
  -3  -5  -9 5286.33 326.486   2
  -8   5   8 1200.88 167.202   3
  -5  -3  -8 1188.90 165.729   2
  -8   3   8 1385.77 180.045   3
  -3  -5  -8 1266.14 167.620   2
  -3   8  -8 873.698 130.920   4
   8  -3  -8 1342.96 132.200   4
  -8   5   7 2227.67 210.530   3
  -8   3   7 1842.29 192.967   3
  -5   8  -7 1950.18 159.236   4
  -3   8  -7 2115.03 178.959   4
   8  -3  -7 1779.43 147.283   4
  -5  -3  -7 2011.45 203.228   2
  -3  -5  -7 2040.25 205.339   2
  -8   5   6 9539.57 408.018   3
  -5   8  -6 10217.9 321.730   4
  -3   8  -6 9950.62 353.996   4
   8  -3  -6 10230.8 336.458   4
  -5  -3  -6 10196.7 424.753   2
  -3  -5  -6 10485.4 433.696   2
  -8   5   5 22.0410 72.6572   3
  -5  -3  -5 56.1848 70.1399   2
  -3  -5  -5 14.1215 58.7108   2
  -5   8  -5 26.7453 41.6377   4
  -3   8  -5 94.9817 54.1017   4
   8  -3  -5 59.8815 57.3260   4
  -8   5   4 1423.65 163.145   3
  -5   8  -4 1742.48 121.255   4
  -5  -3  -4 1723.65 175.296   2
  -3   8  -4 1643.23 138.643   4
   8  -3  -4 1765.63 144.496   4
  -3  -5  -4 1876.86 186.845   2
  -8   5   3 4209.81 255.680   3
  -5   8  -3 4738.46 176.089   4
  -3   8  -3 4622.44 216.414   4
  -5  -3  -3 4688.59 271.712   2
  -3  -5  -3 4898.75 283.453   2
  -5   8  -3 4668.75 249.458   3
  -8   5   2 4066.11 246.376   3
  -5   8  -2 4108.02 147.997   4
  -3   8  -2 4217.92 200.331   4
   8  -5  -2 4111.66 140.862   4
  -5  -3  -2 4201.88 252.501   2
  -3  -5  -2 4461.11 263.992   2
  -5   8  -2 3905.67 233.150   3
  -8   5   1 6046.05 287.171   3
   3  -8   1 6485.99 322.338   2
  -5   8  -1 5994.78 153.871   4
  -3   8  -1 6025.45 228.331   4
  -5  -3  -1 5730.92 285.669   2
  -3  -5  -1 5704.55 294.303   2
  -5   8  -1 5886.79 286.415   3
  -5   8   0 109.721 69.5727   3
   3  -8   0 323.568 97.0888   2
  -8   5   0 207.359 83.7583   3
  -5  -3   0 125.763 71.8837   2
  -3  -5   0 301.324 91.1365   2
  -3   8   0 173.487 54.5992   4
   3  -8  -1 734.036 126.825   2
  -5   8   1 373.426 94.0442   3
  -8   5  -1 523.642 99.6602   3
  -5  -3   1 584.847 100.716   2
  -3  -5   1 672.394 112.847   2
  -3   8   1 580.986 75.9031   4
  -8   5  -2 13737.1 394.096   3
   3  -8  -2 14038.9 473.259   2
  -3   8   2 14668.8 329.581   4
  -5  -3   2 14040.8 411.649   2
  -3   8   2 14356.1 468.208   3
  -3  -5   2 14313.3 440.290   2
  -5   8   2 14149.0 461.073   3
  -3   8   3 1722.50 172.990   3
   5  -8  -3 2109.20 187.051   2
  -5  -3   3 1844.83 155.015   2
  -3  -5   3 2224.59 180.409   2
  -5   8   3 1783.21 174.266   3
  -8   5  -3 2023.39 151.726   3
   3  -8  -3 2343.55 203.395   2
  -3   8   4 454.810 103.504   3
   5  -8  -4 703.277 119.824   2
  -5   8   4 562.682 114.696   3
  -8   5  -4 398.324 78.0509   3
  -5  -3   4 395.061 81.0619   2
  -3  -5   4 615.571 103.029   2
   3   5  -4 729.660 132.705   4
   3  -8  -4 485.065 105.706   2
   5  -8  -5 5664.76 292.037   2
   3   5  -5 5252.12 310.317   4
   5   3  -5 5111.28 310.796   4
  -5  -3   5 4993.13 231.564   2
  -3   8   5 4963.96 292.129   3
  -3  -5   5 5591.30 270.375   2
  -5   8   5 5095.36 295.009   3
   3  -8  -5 4860.05 282.859   2
  -8   5  -5 5385.72 221.637   3
  -8   3  -6 3963.36 191.016   3
   3   5  -6 3853.52 276.647   4
   5   3  -6 3939.80 272.408   4
  -5  -3   6 4115.84 206.339   2
  -3   8   6 4000.97 268.139   3
  -3  -5   6 4291.32 233.752   2
  -5   8   6 3602.49 255.091   3
   3  -8  -6 3899.52 260.947   2
  -8   5  -6 3990.66 180.937   3
   5  -8  -6 4070.17 251.680   2
   3   5  -7 3571.39 268.839   4
   5   3  -7 3387.24 262.023   4
  -5  -3   7 3574.05 186.176   2
  -3   8   7 3387.08 251.267   3
  -3  -5   7 3428.40 208.639   2
  -5   8   7 3446.85 252.920   3
   3  -8  -7 3615.77 252.363   2
   5  -8  -7 3575.79 233.895   2
  -3   8   8 2039.76 200.908   3
  -5   8   8 2089.04 207.452   3
   3   5  -8 2071.82 210.792   4
   5   3  -8 2319.39 222.835   4
   3  -8  -8 2068.67 200.198   2
  -3  -5   8 1738.46 152.640   2
   5  -8  -8 1995.60 179.719   2
  -3   8   9 524.965 126.450   3
  -5   8   9 735.942 142.805   3
   3   5  -9 784.981 147.360   4
   5   3  -9 628.815 137.302   4
   3  -8  -9 844.954 145.189   2
   5  -8  -9 673.562 116.615   2
   8  -3  10 5457.22 302.131   1
   3   5 -10 5472.10 348.337   4
   5   3 -10 5455.50 346.783   4
   3  -8 -10 5361.44 318.399   2
  -3   8  10 5653.04 342.277   3
   5  -8 -10 5681.14 294.623   2
  -5   8  10 5193.48 332.655   3
  -3   8  11-26.3921 87.0392   3
  -5   8  11 85.1788 76.4017   3
   8  -3  11 14.8626 63.5127   1
   3  -8 -11 128.296 113.380   2
   5   3 -11-34.3564 94.8230   4
   8  -3  12 84.1471 74.8966   1
   3  -8 -12 311.105 110.445   2
   8  -3  13 1076.87 163.825   1
   6   2  12 26.9086 75.0015   1
   6   2  11 1450.52 181.390   1
  -2   8 -11 1760.08 203.098   4
   8  -2 -11 1765.11 181.613   4
  -8   6  10 1291.04 186.764   3
  -6  -2 -10 1427.67 194.226   2
   6   2  10 1402.96 165.429   1
  -2  -6 -10 1735.47 209.762   2
  -2   8 -10 1403.85 179.914   4
   8  -2 -10 1422.10 157.715   4
   6   2   9 2540.29 207.777   1
  -6  -2  -9 2259.14 231.290   2
   8  -2  -9 2428.58 198.759   4
  -2  -6  -9 2423.66 237.180   2
  -2   8  -9 2327.84 217.775   4
  -8   6   9 2499.93 236.081   3
  -8   6   8-88.9877 89.0596   3
  -6  -2  -8-72.7922 85.7691   2
  -2  -6  -8-37.2304 77.9161   2
  -2   8  -8 157.881 96.9244   4
   8  -2  -8 3.65138 61.4770   4
  -2   8  -7 5313.12 288.681   4
  -6  -2  -7 4884.93 309.767   2
   8  -2  -7 4791.35 264.459   4
  -2  -6  -7 5269.88 317.372   2
  -8   6   7 5192.37 311.732   3
  -2   8  -6 12472.4 425.015   4
  -6  -2  -6 11079.9 451.895   2
   8  -2  -6 11558.6 401.018   4
  -2  -6  -6 11572.2 462.298   2
  -8   6   6 12152.0 466.334   3
   2  -8   5 4050.19 267.292   2
  -2   8  -5 3416.36 222.590   4
  -6  -2  -5 3911.35 266.161   2
   8  -2  -5 3730.75 232.640   4
  -2  -6  -5 3230.85 244.909   2
  -8   6   5 3387.56 245.981   3
   2  -8   4 7920.46 367.922   2
  -2   8  -4 7743.92 313.785   4
  -6  -2  -4 7420.74 349.185   2
  -2  -6  -4 7651.84 365.593   2
  -6   8  -4 7395.34 301.904   3
  -8   6   4 7532.59 352.254   3
  -6   8  -3-30.9079 56.0657   3
   2  -8   3 71.3183 78.6438   2
  -8   6   3 5.15015 59.3784   3
  -6  -2  -3 10.6841 70.8399   2
  -2  -6  -3-77.6273 82.6012   2
  -2   8  -3 10.3317 57.4494   4
   2  -8   2 7716.73 359.381   2
  -2   8  -2 7687.42 296.021   4
  -6  -2  -2 7385.05 333.678   2
  -2  -6  -2 8220.62 367.161   2
  -6   8  -2 8109.17 329.368   3
  -8   6   2 7635.74 338.189   3
   2  -8   1-33.6980 75.7781   2
  -6   8  -1-17.1189 70.4227   3
  -8   6   1-59.4827 75.1882   3
  -6  -2  -1 103.149 70.6359   2
  -2  -6  -1 88.0614 68.3492   2
  -2   8  -1 46.3002 53.8847   4
   2  -8   0 219.206 86.4210   2
  -6   8   0 232.062 84.6746   3
  -8   6   0 280.536 85.9754   3
  -6  -2   0 289.730 80.1307   2
  -2  -6   0 533.156 111.032   2
  -2   8   0 400.655 78.3123   4
  -6  -2   1 3386.74 210.379   2
  -2   8   1 3519.17 194.078   4
  -2  -6   1 3136.83 224.521   2
  -6   8   1 3343.01 224.389   3
  -8   6  -1 3546.95 220.433   3
   2  -8  -1 3889.88 256.933   2
  -6  -2   2 1338.19 136.202   2
  -2  -6   2 1785.53 169.526   2
  -6   8   2 1637.85 168.179   3
  -8   6  -2 1597.85 144.655   3
   2  -8  -2 1323.11 163.856   2
  -6  -2   3 6504.84 275.845   2
   2   6  -3 6945.44 345.232   4
  -6   8   3 6568.55 326.930   3
  -2  -6   3 6697.48 320.585   2
  -8   6  -3 6648.02 273.898   3
   2  -8  -3 6880.14 344.602   2
   8  -2   4 121.809 47.3470   1
  -6   8   4 156.850 87.9417   3
   6  -8  -4-10.4763 70.7049   2
  -8   6  -4-61.4564 51.3293   3
  -6  -2   4 85.5670 51.9989   2
   2   6  -4 237.818 111.792   4
  -2  -6   4 261.231 93.8417   2
   2  -8  -4 105.542 83.1699   2
   8  -2   5 5561.80 223.897   1
   6  -8  -5 5749.37 290.592   2
   2   6  -5 5715.78 323.961   4
  -6  -2   5 5719.03 241.310   2
   6   2  -5 5609.13 323.413   4
  -6   8   5 5566.13 313.339   3
  -2  -6   5 5493.02 288.220   2
   2  -8  -5 6151.89 327.988   2
  -8   6  -5 5722.02 235.540   3
   8  -2   6 12488.2 357.718   1
   6  -8  -6 12047.4 420.646   2
   2   6  -6 12757.9 486.521   4
   6   2  -6 11666.2 468.915   4
   2  -8  -6 11989.6 459.006   2
  -6   8   6 12741.3 476.900   3
  -2  -6   6 12773.2 428.617   2
   8  -2   7 1843.14 151.677   1
  -6   8   7 1259.20 173.220   3
   2   6  -7 2000.80 208.803   4
   6   2  -7 1887.33 205.229   4
   2  -8  -7 1680.28 187.149   2
  -2  -6   7 1851.65 174.295   2
   6  -8  -7 1827.20 169.311   2
   8  -2   8 4171.48 237.070   1
   2   6  -8 4247.52 298.337   4
   6   2  -8 4042.63 293.012   4
   2  -8  -8 4346.46 291.041   2
  -6   8   8 3785.28 280.580   3
  -2  -6   8 4338.84 255.291   2
   6  -8  -8 4311.95 251.169   2
  -2   8   9 114.050 82.1542   3
  -6   8   9 284.689 117.144   3
   8  -2   9 49.1593 59.3304   1
   2  -8  -9 77.5012 93.6344   2
   2   6  -9 95.0209 75.3330   4
   6   2  -9 72.9026 93.6338   4
   6  -8  -9 122.934 67.3098   2
  -2  -6   9 108.067 66.9083   2
   8  -2  10 4044.35 262.841   1
   2   6 -10 4139.31 309.751   4
   6   2 -10 3931.25 297.360   4
   2  -8 -10 4082.83 287.298   2
  -2   8  10 3727.21 279.099   3
  -6   8  10 3247.98 270.057   3
  -2   8  11 505.569 129.130   3
   8  -2  11 458.137 105.678   1
   2  -8 -11 385.512 123.755   2
   6   2 -11 446.004 133.958   4
   8  -2  12 364.882 116.936   1
   2  -8 -12 292.852 101.676   2
   2  -8 -13 972.557 158.550   2
   8  -2  13 1058.56 165.152   1
   1  -8  12 3768.16 285.393   2
   8  -1 -12 3718.09 282.490   4
   1  -8  11-122.176 92.0595   2
   8  -1 -11 52.2216 75.5410   4
   1  -8  10 402.666 109.974   2
  -1  -7 -10 550.663 133.792   2
   7   1  10 504.067 109.375   1
  -1   8 -10 287.583 93.0169   4
   8  -1 -10 350.786 107.945   4
   1  -8   9 17.0695 71.4869   2
  -7  -1  -9 74.4985 77.3419   2
  -8   7   9 167.254 92.9137   3
  -1  -7  -9-0.88293 72.1927   2
   8  -1  -9 196.668 97.8710   4
   1  -8   8 6762.93 357.076   2
  -7  -1  -8 6546.90 377.004   2
  -1   8  -8 6328.32 346.573   4
   8  -1  -8 6995.68 355.192   4
  -1  -7  -8 6424.83 366.046   2
  -8   7   8 6562.14 369.312   3
   1  -8   7-66.7318 72.2458   2
  -8   7   7-11.4827 68.7181   3
  -7  -1  -7 42.9925 80.3757   2
  -1  -7  -7-21.9972 83.5665   2
  -1   8  -7-39.5612 101.270   4
   8  -1  -7 62.0127 66.4958   4
  -7   8  -6 103.448 55.9623   3
   1  -8   6 11.3533 79.2457   2
  -8   7   6 155.656 95.5893   3
  -7  -1  -6 0.38951 65.8781   2
  -1  -7  -6-44.4008 85.9439   2
  -1   8  -6 93.5368 97.2588   4
   8  -1  -6 65.3895 80.0183   4
   1  -8   5 91.7478 89.8573   2
  -7   8  -5 151.717 66.1871   3
  -8   7   5 285.727 98.5166   3
  -7  -1  -5 149.131 81.7979   2
  -1  -7  -5 131.869 85.2297   2
  -1   8  -5-33.4962 86.0768   4
   8  -1  -5 111.434 81.4178   4
   1  -8   4 21630.3 618.773   2
  -7  -1  -4 20320.9 585.396   2
  -1   8  -4 20408.4 550.233   4
  -1  -7  -4 20084.6 603.384   2
  -7   8  -4 20905.3 506.393   3
  -8   7   4 20646.2 593.231   3
   1  -8   3 100.143 93.3516   2
  -7   8  -3 198.527 80.9557   3
  -8   7   3 55.8600 69.8442   3
  -7  -1  -3 26.2370 69.8515   2
  -1  -7  -3 103.572 75.6374   2
  -1   8  -3 125.006 86.2929   4
  -8   1   2 5255.76 248.301   2
  -7  -1  -2 5425.65 291.832   2
  -1   8  -2 6197.22 295.943   4
  -1  -7  -2 5592.24 315.500   2
  -7   8  -2 6012.12 287.521   3
  -8   7   2 5600.54 302.986   3
   1  -8   2 6093.49 330.513   2
  -8   1   1 56.5866 61.5745   2
  -7   8  -1-60.5413 68.6913   3
  -8   7   1 62.4111 76.3411   3
  -7  -1  -1 4.85587 63.7999   2
  -1   8  -1 22.3958 66.2109   4
  -1  -7  -1-46.2886 73.2428   2
   1  -8   1 27.6897 81.6290   2
  -8   1   0 3647.47 227.285   2
  -7  -1   0 4027.36 241.239   2
  -1   8   0 3639.57 225.598   4
  -7   8   0 3652.95 238.256   3
  -1  -7   0 3564.70 251.825   2
  -8   7   0 3767.59 237.826   3
   1  -8   0 3886.12 266.176   2
  -8   1  -1-14.7459 60.9726   2
  -7   8   1 150.120 84.5236   3
  -8   7  -1 153.701 72.1377   3
  -7  -1   1 29.8870 62.4669   2
  -1  -7   1-5.25770 62.1232   2
   1  -8  -1 11.0792 80.2497   2
  -8   1  -2 7862.66 349.068   2
  -7  -1   2 7565.36 304.116   2
   1   7  -2 8612.16 379.289   4
  -7   8   2 7613.53 353.986   3
  -1  -7   2 7554.32 355.952   2
  -8   7  -2 7873.08 321.599   3
   1  -8  -2 8224.15 385.465   2
  -8   1  -3 267.768 103.535   2
  -7   8   3 288.086 86.4423   3
  -8   7  -3 224.712 68.7011   3
  -7  -1   3 269.770 70.4953   2
   1   7  -3 329.828 111.151   4
   1  -8  -3 323.192 112.671   2
  -1  -7   3 131.168 74.9229   2
  -8   1  -4 14164.7 488.666   2
  -7  -1   4 15279.7 398.593   2
   1   7  -4 15373.8 517.344   4
   1  -8  -4 15370.2 527.387   2
  -8   7  -4 15287.9 417.409   3
  -7   8   4 14953.7 512.437   3
  -1  -7   4 15051.5 495.493   2
  -8   1  -5 41.2395 75.3990   2
  -8   7  -5 28.6138 51.3722   3
  -7   8   5 175.304 103.122   3
   7  -8  -5 238.740 90.6493   2
   1   7  -5 174.606 93.2697   4
   7   1  -5 167.925 89.6241   4
   1  -8  -5-32.0418 82.1968   2
  -1  -7   5 33.4441 68.3541   2
   7  -8  -6 1597.67 157.769   2
  -8   1  -6 1468.17 174.784   2
  -7   8   6 1212.50 163.808   3
   1   7  -6 1612.53 186.985   4
   1  -8  -6 1618.96 185.863   2
   7   1  -6 1830.62 202.688   4
  -1  -7   6 1327.11 157.721   2
   7  -8  -7 8.74771 53.8699   2
  -8   1  -7 176.326 101.057   2
  -7   8   7 227.542 105.664   3
   1  -8  -7 79.1914 87.1612   2
   1   7  -7 28.3228 93.7794   4
   7   1  -7 150.981 95.4334   4
  -1  -7   7 106.401 70.4270   2
  -8   1  -8 9834.00 457.289   2
   1   7  -8 9971.26 447.603   4
   7   1  -8 9253.62 434.409   4
   1  -8  -8 10361.7 456.849   2
  -7   8   8 10303.2 462.140   3
  -1  -7   8 9889.56 405.608   2
  -8   1  -9 35.6657 81.2713   2
  -7   8   9 110.279 81.0966   3
   1  -8  -9 183.177 91.0270   2
   1   7  -9 132.328 94.7342   4
   7   1  -9 195.072 97.7250   4
  -1  -7   9 78.1069 65.1354   2
   1  -8 -10 280.660 104.016   2
   7   1 -10 327.484 95.8702   4
  -1  -7  10 398.839 112.156   2
   1  -8 -11 325.897 110.780   2
   7   1 -11 10.8042 80.3485   4
  -8   0   0 90.8156 74.8688   2
   0  -8   0 144.160 89.0932   2
  -8   0   1 3607.69 228.409   2
  -8   0  -1 3549.96 238.394   2
   0   8  -1 3702.03 249.379   4
  -8   8  -1 3543.66 236.402   3
   0  -8  -1 3194.50 252.756   2
  -8   8   1 3364.21 244.339   3
   0  -8   1 3724.58 265.791   2
  -8   0   2 5400.30 268.397   2
  -8   0  -2 5989.53 318.855   2
   0   8  -2 6684.29 334.472   4
  -8   8  -2 5203.67 275.941   3
   0  -8  -2 5386.10 324.584   2
  -8   8   2 5647.83 317.628   3
   0  -8   2 5593.51 326.166   2
  -8   8  -3 949.434 121.915   3
  -8   0   3 922.760 113.165   2
  -8   8   3 789.066 132.786   3
  -8   0  -3 806.610 131.697   2
   0   8  -3 1189.77 171.998   4
   0  -8  -3 1036.57 157.997   2
   0  -8   3 1052.20 151.183   2
  -8   8  -4 797.383 108.199   3
  -8   8   4 908.232 141.696   3
  -8   0  -4 799.187 138.133   2
   0   8  -4 492.149 122.558   4
   0  -8  -4 557.699 122.601   2
   0  -8   4 809.694 137.829   2
  -8   0  -5 2328.12 221.662   2
   8   0  -5 2278.57 219.401   4
   0  -8  -5 2081.77 210.362   2
   0   8  -5 2442.29 232.451   4
  -8   8  -5 2163.40 164.979   3
  -8   8   5 2323.51 220.971   3
   0  -8   5 2319.30 217.221   2
   8  -8  -6 6321.90 302.771   2
  -8   0  -6 6020.60 353.733   2
   0   8  -6 6322.34 348.571   4
   8   0  -6 6054.44 346.046   4
   0  -8  -6 6509.77 370.473   2
  -8   8   6 6106.60 356.595   3
   0  -8   6 5960.22 336.982   2
   0  -8   7 1467.25 172.387   2
  -8   0  -7 1133.91 176.911   2
  -8   8   7 1242.42 181.194   3
   0  -8  -7 1421.69 190.104   2
   0   8  -7 1320.60 178.699   4
   8   0  -7 1128.96 166.620   4
   0  -8   8 970.014 151.277   2
  -8   0  -8 828.041 161.235   2
   0  -8  -8 1093.41 163.909   2
   0   8  -8 1364.48 173.663   4
   8   0  -8 1053.86 163.571   4
   0  -8   9 397.920 116.549   2
   0   8  -9 185.483 81.2266   4
   8   0  -9 258.127 110.960   4
   0  -8  10 2220.47 217.633   2
   8   0 -10 2162.43 225.370   4
  -4   9 -11 3169.85 252.146   4
  -4   9 -10 3500.25 259.330   4
  -5   9  -9 711.618 122.007   4
  -4   9  -9 645.213 128.863   4
  -9   5   8 43.0283 92.1097   3
  -9   4   8 183.702 97.4196   3
  -5  -4  -8 17.1686 84.3624   2
  -4  -5  -8 191.021 99.7026   2
  -5   9  -8 110.391 67.8106   4
  -4   9  -8 18.2072 61.4508   4
  -9   5   7 69.0148 82.4056   3
  -9   4   7 52.9085 72.5139   3
  -5  -4  -7 109.952 90.6263   2
  -4  -5  -7 65.7834 78.3286   2
  -5   9  -7 130.825 66.4556   4
  -4   9  -7 36.5710 55.1308   4
  -9   5   6 1024.59 154.090   3
  -9   4   6 1137.29 163.089   3
  -5  -4  -6 1000.08 160.952   2
  -4  -5  -6 1059.43 157.117   2
  -4   9  -6 1024.84 124.040   4
  -9   5   5 1739.07 194.357   3
  -9   4   5 1443.47 179.298   3
  -5  -4  -5 1157.28 160.350   2
  -4  -5  -5 1471.89 180.605   2
  -4   9  -5 1311.28 130.135   4
  -9   5   4 1225.08 167.039   3
  -9   4   4 1117.64 158.116   3
  -5  -4  -4 1159.38 155.611   2
  -4  -5  -4 939.798 149.595   2
  -4   9  -4 914.291 105.416   4
  -9   5   3 1392.54 164.879   3
  -9   4   3 1589.30 180.684   3
  -4   9  -3 1716.53 135.651   4
  -5  -4  -3 1846.39 185.880   2
  -4  -5  -3 1341.54 167.665   2
  -9   5   2 13041.8 464.070   3
  -9   4   2 13747.6 479.700   3
  -4   9  -2 13345.9 339.385   4
  -5  -4  -2 13348.9 473.926   2
  -4  -5  -2 12476.1 463.923   2
  -9   5   1 2227.31 198.141   3
  -9   4   1 2116.99 193.471   3
  -5   9  -1 2003.53 187.918   3
   4  -9   1 2159.22 206.104   2
  -5  -4  -1 2244.69 199.347   2
  -4  -5  -1 2029.85 193.314   2
  -5   9   0 570.635 122.342   3
   4  -9   0 734.607 137.554   2
  -9   5   0 492.324 108.674   3
  -9   4   0 629.204 110.865   3
  -5  -4   0 435.651 100.540   2
  -4  -5   0 630.959 118.031   2
  -9   5  -1 5301.81 279.451   3
  -9   4  -1 5367.24 280.065   3
   4  -9  -1 5685.45 325.612   2
   5  -9  -1 5431.99 319.687   2
  -5  -4   1 5317.47 287.985   2
  -4  -5   1 5094.29 287.379   2
  -5   9   1 5272.31 301.284   3
  -9   5  -2 7661.38 320.305   3
   4  -9  -2 8096.54 385.900   2
  -9   4  -2 7753.01 328.326   3
   5  -9  -2 8281.01 386.083   2
  -5  -4   2 7582.75 336.223   2
  -4  -5   2 7955.40 352.534   2
  -4   9   2 8392.77 385.102   3
  -5   9   2 7598.15 368.235   3
  -9   5  -3 3124.24 203.796   3
   4  -9  -3 3391.19 258.157   2
  -9   4  -3 2880.87 195.602   3
   5  -9  -3 3141.77 245.775   2
  -5  -4   3 2986.10 208.454   2
  -4  -5   3 2890.41 213.523   2
  -4   9   3 3102.27 242.453   3
  -5   9   3 3148.10 244.005   3
   4  -9  -4 1267.92 164.432   2
   5  -9  -4 1027.42 153.166   2
  -4   9   4 1261.05 165.259   3
  -5   9   4 1133.89 155.167   3
  -9   5  -4 1066.13 118.004   3
  -9   4  -4 1123.25 123.263   3
  -5  -4   4 989.403 124.890   2
  -4  -5   4 1050.85 141.058   2
   4   5  -4 1276.45 178.361   4
   5  -9  -5 344.065 112.471   2
  -4   9   5 297.950 104.069   3
  -5   9   5 398.992 108.209   3
  -9   5  -5 292.334 70.4474   3
  -9   4  -5 284.122 69.9014   3
  -5  -4   5 353.866 92.2463   2
  -4  -5   5 375.038 93.1773   2
   4   5  -5 478.948 135.807   4
   5   4  -5 302.405 117.564   4
   4  -9  -5 425.048 123.592   2
  -4   9   6 1644.20 194.902   3
  -5   9   6 1790.69 200.753   3
  -5  -4   6 1919.32 159.149   2
   4   5  -6 1450.93 186.731   4
   5   4  -6 1818.75 212.831   4
  -4  -5   6 2350.13 183.980   2
   4  -9  -6 2118.47 217.970   2
   5  -9  -6 2281.96 223.918   2
  -4   9   7 132.484 91.0972   3
  -5   9   7 192.419 101.071   3
  -4  -5   7 128.247 61.3941   2
   4   5  -7 90.5959 96.6865   4
   5   4  -7 62.5387 93.5860   4
   4  -9  -7 266.979 137.382   2
   5  -9  -7 161.050 102.878   2
  -4   9   8 216.074 104.115   3
  -5   9   8 176.713 107.272   3
   4   5  -8 148.835 113.478   4
   5   4  -8 7.59114 78.4490   4
   4  -9  -8 246.724 124.712   2
   5  -9  -8 66.5817 87.2157   2
   4  -9  -9 598.072 139.796   2
   5  -9  -9 555.141 132.057   2
   4  -9 -10 4060.81 290.518   2
   5  -9 -10 3810.97 268.925   2
   4  -9 -11 2900.68 245.696   2
  -3   9 -11 158.210 91.9340   4
  -3   9 -10 583.063 120.577   4
  -3   9  -9 317.022 113.818   4
  -9   3   8 6149.65 372.522   3
  -3   9  -8 6110.05 325.345   4
  -6  -3  -8 6451.61 379.425   2
  -3  -6  -8 6378.20 378.187   2
  -9   6   8 6663.54 380.865   3
  -9   6   7-3.02390 81.5386   3
  -6  -3  -7 11.8134 69.9507   2
  -3   9  -7-28.0824 77.4720   4
  -9   6   6 115.436 90.3420   3
  -6  -3  -6 241.556 115.786   2
  -3  -6  -6 248.597 110.060   2
  -3   9  -6 48.8702 63.1894   4
  -9   6   5 475.957 106.663   3
  -6  -3  -5 747.700 134.175   2
  -3  -6  -5 533.460 124.077   2
  -3   9  -5 518.409 98.6637   4
   9  -3  -5 431.076 91.0856   4
   3  -9   4 12015.9 486.318   2
  -3   9  -4 11794.0 384.862   4
  -6  -3  -4 11905.3 470.451   2
   9  -3  -4 11921.2 394.641   4
  -3  -6  -4 11295.8 463.900   2
  -9   6   4 11514.7 457.583   3
  -6   9  -3-100.741 81.0884   3
   3  -9   3-82.7801 74.8753   2
  -9   6   3 102.012 77.6439   3
  -6  -3  -3 58.1510 87.1907   2
  -3  -6  -3 12.4407 74.3661   2
  -3   9  -3 16.5694 53.1832   4
  -6   9  -2 327.659 99.0596   3
   3  -9   2 145.173 93.1290   2
  -9   6   2 197.761 103.625   3
  -6  -3  -2 161.265 76.7578   2
  -3  -6  -2 83.8097 72.6803   2
  -3   9  -2 177.478 60.6819   4
   3  -9   1-54.2401 64.9961   2
  -6   9  -1 51.1636 70.2143   3
  -9   6   1-96.5713 82.5399   3
  -6  -3  -1-109.765 79.4887   2
  -3  -6  -1 65.0991 84.8197   2
  -3   9  -1-28.6128 56.1312   4
   3  -9   0 12120.8 481.084   2
  -3   9   0 13140.0 359.731   4
  -6  -3   0 12544.5 439.568   2
  -3  -6   0 12859.7 471.596   2
  -6   9   0 13001.7 463.121   3
  -9   6   0 12514.2 436.366   3
   3  -9  -1 155.224 86.9362   2
  -6   9   1 379.524 124.222   3
  -9   6  -1 372.110 102.590   3
  -6  -3   1 140.245 72.5467   2
  -3  -6   1 130.197 79.2774   2
  -3   9   1 45.6755 44.3597   4
   3  -9  -2 120.293 96.8262   2
  -6   9   2 170.443 92.1084   3
  -9   6  -2 268.405 82.0213   3
  -6  -3   2 228.947 80.2791   2
  -3  -6   2 360.144 98.2293   2
  -6   9   3 299.522 99.4181   3
   6  -9  -3 531.935 131.883   2
  -9   6  -3 386.900 85.3523   3
  -6  -3   3 413.714 93.4658   2
  -3  -6   3 425.148 98.8188   2
   3  -9  -3 588.678 128.756   2
   6  -9  -4 6455.37 341.475   2
   3   6  -4 6960.70 376.276   4
  -6  -3   4 6879.03 299.164   2
  -3  -6   4 6830.39 331.470   2
  -6   9   4 6549.05 353.802   3
   3  -9  -4 6820.41 366.750   2
  -9   6  -4 6685.04 284.193   3
   6  -9  -5 101.942 91.0303   2
  -6   9   5 20.3032 66.3796   3
  -6  -3   5-1.01813 47.4489   2
  -3  -6   5 17.0110 65.4326   2
   3   6  -5 11.6357 90.9907   4
   6   3  -5 187.582 116.834   4
   3  -9  -5-39.7641 81.6778   2
   6  -9  -6-30.3828 92.8586   2
  -6   9   6 124.829 96.3668   3
  -3  -6   6 47.1978 66.6767   2
   3   6  -6-111.688 92.0759   4
   6   3  -6 151.934 97.7961   4
   3  -9  -6 91.4735 92.6992   2
  -3   9   7 510.724 122.732   3
  -6   9   7 623.917 136.306   3
   3   6  -7 793.852 151.337   4
   6   3  -7 868.150 166.371   4
  -3  -6   7 718.694 118.404   2
   3  -9  -7 657.850 127.748   2
   6  -9  -7 616.481 133.387   2
   3   6  -8 8033.62 432.171   4
   6   3  -8 8343.62 440.424   4
  -3   9   8 7976.72 412.200   3
  -3  -6   8 7865.03 348.887   2
   3  -9  -8 8206.13 409.718   2
  -6   9   8 7738.51 410.825   3
   6  -9  -8 7938.39 372.945   2
   3  -9  -9 37.9851 80.3631   2
   6  -9  -9 41.2060 77.9661   2
   3  -9 -10 789.080 143.723   2
   3  -9 -11 229.328 101.866   2
   2  -9   9 1603.18 202.426   2
  -2   9  -9 1182.33 165.048   4
   2  -9   8 24.1543 81.3243   2
  -2   9  -8 101.985 96.6691   4
   2  -9   7 1343.73 179.259   2
  -9   7   7 1264.78 177.283   3
  -7  -2  -7 1460.77 189.629   2
  -2  -7  -7 1348.58 182.320   2
  -2   9  -7 1634.64 193.621   4
   9  -2  -7 1182.61 153.376   4
   2  -9   6 7790.68 404.161   2
  -2   9  -6 7597.61 360.802   4
  -7  -2  -6 7996.81 411.055   2
   9  -2  -6 8319.00 369.635   4
  -2  -7  -6 8480.69 423.340   2
  -9   7   6 8137.76 410.833   3
   2  -9   5 4156.11 296.721   2
  -2   9  -5 3308.82 234.264   4
  -7  -2  -5 3590.58 274.279   2
   9  -2  -5 3504.53 244.867   4
  -2  -7  -5 3533.65 275.244   2
  -9   7   5 3818.78 278.441   3
   2  -9   4 4283.31 296.373   2
  -7  -2  -4 4953.26 310.703   2
  -2   9  -4 4985.76 277.745   4
   9  -2  -4 4603.01 276.838   4
  -2  -7  -4 5086.18 326.141   2
  -7   9  -4 4509.78 256.914   3
  -9   7   4 4393.62 291.345   3
   2  -9   3 2645.22 243.188   2
  -7  -2  -3 2689.99 227.509   2
  -2   9  -3 2692.66 202.421   4
  -2  -7  -3 2767.51 241.005   2
  -7   9  -3 2638.06 205.612   3
  -9   7   3 2589.16 228.731   3
   2  -9   2 7979.09 399.745   2
  -7  -2  -2 7706.09 366.840   2
  -2   9  -2 8033.15 330.646   4
  -2  -7  -2 7873.70 393.317   2
  -7   9  -2 7797.13 349.389   3
  -9   7   2 8131.51 384.996   3
   2  -9   1 76.7109 90.2921   2
  -7   9  -1 25.5343 75.2730   3
  -9   7   1-59.9379 83.1813   3
  -7  -2  -1 3.42368 66.5326   2
  -2  -7  -1 21.6806 76.8656   2
  -2   9  -1 95.8145 64.7326   4
  -7   9   0 243.512 115.275   3
  -9   7   0 149.091 94.2830   3
  -7  -2   0 56.4977 70.9491   2
  -2  -7   0 15.4182 70.7454   2
  -2   9   0 60.3145 55.5493   4
   2  -9   0 44.4889 90.4350   2
  -7   9   1 547.943 124.259   3
  -9   7  -1 393.969 102.714   3
  -7  -2   1 291.859 84.8469   2
  -2  -7   1 231.380 84.7536   2
  -2   9   1 383.694 84.4489   4
   2  -9  -1 458.384 120.586   2
  -7   9   2 1758.63 185.802   3
  -7  -2   2 1602.77 159.127   2
  -2   9   2 1649.56 148.719   4
  -2  -7   2 1734.63 184.488   2
   2  -9  -2 1473.98 177.554   2
  -9   7  -2 1792.70 169.863   3
  -7  -2   3 4908.04 260.109   2
   2   7  -3 5852.14 341.556   4
  -2  -7   3 5767.12 323.152   2
  -7   9   3 5348.42 316.163   3
  -9   7  -3 5324.74 268.237   3
   2  -9  -3 5478.55 336.768   2
  -7   9   4 250.250 97.4626   3
   7  -9  -4 516.202 128.523   2
  -9   7  -4 133.644 54.9358   3
  -7  -2   4 401.024 87.8858   2
   2   7  -4 65.7995 100.551   4
  -2  -7   4 320.048 91.6477   2
   2  -9  -4 307.807 112.526   2
   7  -9  -5 3838.48 267.224   2
   2   7  -5 3967.80 289.391   4
   7   2  -5 4459.70 319.858   4
  -7   9   5 3734.00 280.954   3
  -2  -7   5 3760.83 263.354   2
   2  -9  -5 3551.56 278.315   2
   7  -9  -6 6520.76 338.915   2
   2   7  -6 7059.61 389.814   4
   7   2  -6 6764.93 390.083   4
   2  -9  -6 7388.26 396.088   2
  -7   9   6 6913.26 385.684   3
  -2  -7   6 6498.50 338.810   2
   7  -9  -7 492.955 107.728   2
  -7   9   7 381.362 108.206   3
   2   7  -7 359.327 121.713   4
   7   2  -7 326.008 112.300   4
   2  -9  -7 371.103 118.629   2
  -2  -7   7 358.780 100.857   2
   2  -9  -8 2096.01 223.094   2
   7   2  -8 1798.78 217.751   4
  -2  -7   8 1877.74 186.808   2
   9  -1  -9 523.101 126.087   4
   1  -9   8 155.744 104.480   2
  -1   9  -8 88.3455 88.7374   4
   9  -1  -8-16.3747 86.3972   4
   1  -9   7 1686.19 201.741   2
  -1   9  -7 1504.06 190.824   4
   9  -1  -7 1485.96 185.340   4
   1  -9   6 3316.30 271.323   2
  -8  -1  -6 2963.06 262.547   2
  -1   9  -6 2917.26 246.866   4
   9  -1  -6 2907.54 247.128   4
   1  -9   5 953.994 161.133   2
  -9   8   5 603.048 134.309   3
  -8  -1  -5 682.765 136.868   2
  -1  -8  -5 732.517 139.896   2
  -1   9  -5 1105.70 164.094   4
   9  -1  -5 1287.28 177.207   4
   1  -9   4 2036.30 214.298   2
  -9   8   4 2051.41 213.602   3
  -8  -1  -4 1975.85 205.137   2
  -1   9  -4 2233.06 209.576   4
  -1  -8  -4 2634.16 247.529   2
  -8   9  -4 2175.93 185.278   3
  -8   9  -3 1007.07 137.103   3
  -9   8   3 1248.02 171.725   3
  -8  -1  -3 1012.55 156.033   2
  -1  -8  -3 1301.96 178.711   2
  -1   9  -3 1211.71 167.836   4
   1  -9   3 1220.51 170.813   2
  -8  -1  -2 6620.95 348.257   2
  -1   9  -2 7014.46 340.336   4
  -1  -8  -2 6672.50 373.830   2
  -8   9  -2 6472.90 326.944   3
  -9   8   2 6315.48 347.324   3
   1  -9   2 6741.07 379.817   2
  -8   9  -1 1938.32 193.524   3
  -9   8   1 1947.50 213.876   3
  -8  -1  -1 1482.57 166.689   2
  -1   9  -1 1840.74 178.531   4
  -1  -8  -1 1890.79 210.840   2
   1  -9   1 2086.15 218.059   2
  -9   1   0 399.029 102.686   2
  -8   9   0 701.441 145.154   3
  -9   8   0 458.569 113.928   3
  -8  -1   0 364.950 97.0579   2
  -1   9   0 428.702 106.109   4
  -1  -8   0 659.649 138.476   2
   1  -9   0 260.889 100.310   2
  -8   9   1 1946.97 209.754   3
  -9   8  -1 1893.29 180.732   3
  -9   1  -1 2221.65 201.179   2
  -8  -1   1 2340.04 198.057   2
  -1   9   1 2297.72 192.422   4
  -1  -8   1 2104.56 215.708   2
   1  -9  -1 2048.24 210.852   2
  -9   1  -2 3268.32 246.880   2
  -8  -1   2 3498.01 229.475   2
   1   8  -2 3942.26 282.882   4
  -8   9   2 3965.01 279.195   3
  -1  -8   2 3750.81 279.453   2
  -9   8  -2 3660.92 243.544   3
   1  -9  -2 3944.14 293.428   2
  -9   1  -3 2593.60 222.420   2
   1   8  -3 2474.29 230.002   4
  -8   9   3 2388.85 221.240   3
  -9   8  -3 2305.71 191.190   3
   1  -9  -3 2792.41 252.288   2
  -1  -8   3 2499.62 227.785   2
  -9   1  -4-24.9325 94.6149   2
  -8   9   4 50.5247 77.0918   3
   1   8  -4-5.44463 91.9143   4
   1  -9  -4 64.4158 88.0936   2
  -1  -8   4-44.7894 74.4436   2
  -9   1  -5 414.523 119.302   2
  -8   9   5 511.113 133.599   3
   8  -9  -5 386.757 107.073   2
   1   8  -5 646.734 141.586   4
   1  -9  -5 580.006 143.858   2
   8   1  -5 516.899 133.139   4
  -1  -8   5 565.334 130.818   2
   8  -9  -6 3574.15 252.352   2
  -9   1  -6 3864.55 294.527   2
   1   8  -6 4018.59 299.230   4
   8   1  -6 4104.06 309.304   4
  -1  -8   6 3999.75 289.174   2
   1   8  -7 133.516 96.2650   4
   8   1  -7 261.335 103.935   4
  -1  -8   7 301.370 107.693   2
  -1  -8   8 2298.51 220.386   2
  -1  -8   9 2066.81 214.271   2
  -9   0   0 26666.7 670.859   2
   0   9   0 27712.4 711.000   4
  -9   9   0 25723.8 685.205   3
   0  -9   0 27012.2 768.532   2
  -9   0   1 119.284 77.8647   2
  -9   9  -1 39.4106 82.0119   3
  -9   0  -1 44.1865 77.0747   2
  -9   9   1 216.312 103.065   3
   0   9  -1-24.9368 93.0320   4
   0  -9   1 83.5438 85.7973   2
  -9   9  -2 53.4485 90.3917   3
  -9   0  -2 52.8012 75.4962   2
  -9   9   2 124.047 83.4807   3
   0   9  -2-34.6288 107.012   4
   0  -9   2 52.7914 95.7687   2
  -9   9  -3 85.5027 72.2719   3
  -9   0  -3 54.2123 92.5507   2
  -9   9   3-63.4767 70.1170   3
   0   9  -3 39.4186 95.3627   4
   0  -9   3-86.7479 88.8946   2
  -9   0  -4 1254.43 182.764   2
   0   9  -4 1180.69 174.992   4
   0  -9   4 1340.46 186.725   2
   0   9  -5-63.0836 94.0477   4
   9   0  -5 171.913 120.279   4
   0  -9   5-24.7924 82.5041   2
   0   9  -6-120.884 114.601   4
   9   0  -6 170.109 116.508   4
   9   0  -7 182.324 118.455   4
 -10   5   5 135.147 97.4994   3
  -5  -5  -5 139.558 97.4207   2
 -10   5   4 5046.87 321.736   3
  -5  -5  -4 5562.85 346.711   2
 -10   5   3-110.654 72.0258   3
  -5  -5  -3 58.8241 77.6875   2
 -10   5   2 476.936 113.614   3
  -5  -5  -2 748.812 138.750   2
   5 -10   1 56.0584 70.8347   2
  -5  -5  -1-59.2434 83.2334   2
 -10   5   0 22943.4 624.969   3
   5 -10   0 23949.3 713.444   2
  -5  -5   0 22307.9 641.400   2
   5 -10  -1 133.086 98.5400   2
 -10   5  -1 110.753 87.9721   3
  -5  -5   1 77.8466 73.9810   2
   5 -10  -2 498.472 118.826   2
  -5  10   2 433.765 122.565   3
 -10   5  -2 541.259 111.958   3
  -5  -5   2 501.837 115.666   2
   5 -10  -3-74.7426 71.5636   2
  -5  10   3-102.973 99.8766   3
 -10   5  -3-142.348 81.2336   3
  -5  -5   3-5.25803 65.3023   2
   5   5  -4 4649.92 333.938   4
  -5  -5   4 4336.79 270.931   2
  -5  10   4 4573.77 316.613   3
   5 -10  -4 4276.20 304.346   2
  -5  -5   5 121.374 71.4331   2
   5 -10  -5 74.0609 79.5080   2
   5 -10  -6 298.650 106.608   2
   5 -10  -7-52.5136 77.9232   2
   5 -10  -8 2318.15 229.610   2
   5 -10  -9 109.006 79.3203   2
 -10   6   5 956.653 163.603   3
 -10   4   5 553.214 137.927   3
  -6  -4  -5 611.431 137.727   2
   4 -10   4 260.921 100.102   2
 -10   6   4 196.196 96.6455   3
 -10   4   4 197.567 99.9742   3
  -6  -4  -4 167.613 107.356   2
  -4  -6  -4 170.966 84.5300   2
   4 -10   3 1210.14 183.958   2
 -10   6   3 1586.77 191.415   3
 -10   4   3 1486.67 187.839   3
  -6  -4  -3 1146.15 167.641   2
  -4  -6  -3 1404.37 182.562   2
 -10   6   2 7791.50 384.217   3
 -10   4   2 7386.80 379.145   3
   4 -10   2 7820.85 415.526   2
  -6  -4  -2 7268.36 379.061   2
  -4  -6  -2 7818.04 397.518   2
 -10   6   1 2841.65 246.360   3
   4 -10   1 2467.87 244.255   2
 -10   4   1 2542.00 231.710   3
  -6  10  -1 2441.38 232.071   3
  -6  -4  -1 2674.32 232.091   2
  -4  -6  -1 2729.03 234.206   2
   4 -10   0 2377.89 238.274   2
  -6  10   0 1826.06 197.753   3
 -10   6   0 1482.77 178.123   3
 -10   4   0 1683.22 194.526   3
  -6  -4   0 1575.28 175.924   2
  -4  -6   0 2008.38 207.466   2
   4 -10  -1 1292.79 185.360   2
  -6  10   1 1064.71 157.913   3
   6 -10  -1 1750.45 204.094   2
 -10   6  -1 967.815 141.080   3
 -10   4  -1 1323.44 175.473   3
  -6  -4   1 1487.65 170.874   2
  -4  -6   1 1046.73 155.214   2
   4 -10  -2 6487.24 378.281   2
 -10   4  -2 6038.37 316.312   3
   6 -10  -2 6271.62 360.633   2
  -6  -4   2 5176.73 298.944   2
  -4  -6   2 5905.38 332.519   2
  -6  10   2 6354.02 362.695   3
 -10   6  -2 5340.66 288.358   3
   6 -10  -3 1139.35 172.664   2
  -6  10   3 1002.92 159.707   3
 -10   6  -3 1002.76 131.095   3
 -10   4  -3 1199.15 146.320   3
  -6  -4   3 853.406 129.203   2
  -4  -6   3 976.261 149.191   2
   4 -10  -3 916.300 154.321   2
   6 -10  -4 4.73905 78.7541   2
  -6  10   4 72.4220 67.3649   3
  -6  -4   4 209.170 77.0335   2
  -4  -6   4 41.5880 68.4555   2
   4   6  -4 167.374 108.183   4
   4 -10  -4-43.2358 91.6892   2
   6 -10  -5 473.484 115.821   2
  -4  -6   5 496.900 112.731   2
   4 -10  -5 565.806 132.421   2
  -4  -6   6 1720.41 179.443   2
   4 -10  -6 2110.59 224.244   2
   6 -10  -6 1864.48 198.353   2
   6 -10  -7 88.3633 87.4179   2
   6 -10  -8 313.868 103.357   2
 -10   7   4-38.0707 80.1523   3
  -7  -3  -4-156.076 94.7932   2
 -10   7   3 2129.92 210.714   3
  -7  -3  -3 2217.61 226.485   2
  -3  -7  -3 2014.62 213.541   2
  -7  10  -3 2605.49 232.766   3
   3 -10   2 4262.36 313.974   2
  -7  -3  -2 3419.95 263.312   2
  -3  -7  -2 4085.07 300.442   2
  -7  10  -2 4030.85 281.138   3
 -10   7   2 3411.40 263.829   3
   3 -10   1 2048.21 223.740   2
  -7  10  -1 1792.01 197.396   3
 -10   7   1 1962.17 214.900   3
  -7  -3  -1 1991.41 204.195   2
  -3  -7  -1 2036.18 212.978   2
   3 -10   0 774.282 147.975   2
  -7  10   0 810.976 138.456   3
 -10   7   0 805.529 152.427   3
  -7  -3   0 760.661 138.756   2
  -3  -7   0 807.119 147.073   2
  -7  10   1 321.890 107.778   3
 -10   7  -1 486.621 121.100   3
  -7  -3   1 487.555 112.015   2
  -3  -7   1 410.782 118.148   2
   3 -10  -1 514.264 132.553   2
  -7  -3   2 3518.02 246.846   2
  -3  -7   2 3981.79 287.232   2
  -7  10   2 4480.83 305.984   3
 -10   7  -2 3899.33 251.408   3
   3 -10  -2 4047.53 307.041   2
  -7  10   3-147.386 88.1440   3
   7 -10  -3-75.7986 97.9728   2
  -7  -3   3 59.2433 79.3764   2
  -3  -7   3 74.2649 82.9397   2
   3   7  -3 211.469 105.546   4
   3 -10  -3-30.9430 73.1846   2
   7 -10  -4 730.829 134.176   2
  -3  -7   4 392.944 118.478   2
   7 -10  -5 1309.70 186.133   2
  -3  -7   5 1288.60 165.910   2
  -3  -7   6 2978.13 243.355   2
   7 -10  -6 3080.74 255.049   2
   7 -10  -7 4405.52 300.253   2
  -2  10  -6 126.673 90.7994   4
  -2  10  -5-24.3032 76.6319   4
  -2  10  -4 8946.67 394.572   4
  -8  10  -3 97.8442 98.9046   3
 -10   8   3 166.977 104.435   3
  -8  -2  -3 167.908 98.0058   2
  -8  10  -2 591.035 127.327   3
 -10   8   2 144.748 68.2087   3
  -8  -2  -2 467.003 121.135   2
  -8  10  -1 48.2453 83.7046   3
  -8  -2  -1-17.0371 74.2691   2
  -8  -2   0 4956.02 307.882   2
  -8  10   0 6037.33 346.686   3
 -10   8   0 5415.25 324.822   3
  -8  10   1-27.3106 77.0780   3
 -10   8  -1 50.4112 98.1397   3
  -8  -2   1-132.375 73.6528   2
  -8  10   2 385.003 118.683   3
 -10   8  -2 391.330 109.201   3
  -2  -8   2 317.061 109.492   2
   2   8  -2 718.301 149.417   4
  -2  -8   3 106.612 82.5798   2
   8 -10  -4 6684.13 373.369   2
  -2  -8   4 5997.68 354.494   2
   8 -10  -5 288.983 109.991   2
  -2  -8   5 289.277 98.0403   2
  -2  -8   6-40.4330 89.2153   2
  -2  -8   7 42.6694 75.9970   2
  -1  10  -5 256.500 113.599   4
  -1  10  -4 74.6158 83.6756   4
  10  -1  -4 206.380 106.544   4
  -1  10  -3 1204.58 164.719   4
  -9  -1  -2 5265.52 334.277   2
  -1  10  -2 5302.34 317.457   4
  -9  10  -2 5009.86 311.403   3
  -9  10  -1 1239.67 165.569   3
 -10   9   1 1495.97 185.999   3
  -9  -1  -1 1431.05 177.721   2
  -1  10  -1 1825.21 193.889   4
  -9  10   0 931.136 158.625   3
 -10   9   0 918.099 149.951   3
  -9  -1   0 910.755 147.412   2
   1   9   0 1173.54 176.265   4
   1   9  -1 2510.91 247.683   4
  -9  10   1 2854.17 249.008   3
 -10   9  -1 2478.72 223.796   3
 -11   6   1 124.318 86.4241   3
 -11   5   1 51.4969 78.6553   3
 -11   6   0 452.185 113.451   3
 -11   5   0 318.126 107.549   3
  -6  -5   0 679.305 132.937   2
 -11   6  -1 607.829 121.839   3
 -11   5  -1 817.523 141.401   3
  -6  -5   1 698.312 140.698   2
  -5  -6   1 598.913 134.009   2
  -6  -5   2 5114.77 319.617   2
  -5  -6   2 5808.07 342.761   2
  -6  -5   3 2096.17 210.015   2
  -5  -6   3 2160.14 213.438   2
  -5  -6   4 314.625 111.846   2
 -11   7   1 88.1209 89.9767   3
 -11   4   0 7405.92 389.150   3
  -7  -4   0 7809.56 405.560   2
 -11   7   0 7474.84 383.469   3
 -11   7  -1 260.207 99.5977   3
 -11   4  -1 347.526 107.437   3
  -7  -4   1 121.436 92.5327   2
 -11   4  -2 743.649 127.805   3
  -4  -7   4 3789.38 285.119   2
 -11   8   0 122.137 76.6962   3
  -8  -3   0 125.451 89.9026   2
   0   0   0    0.00    0.00   0

TITL DMA_FeFe_temp_1_160_00 in P-31c
REM P-31c (#163 in standard setting)
CELL 0.71073   8.260262   8.260262  13.846614  90.0000  90.0000 120.0000
ZERR    3.00   0.000253   0.000253   0.000388   0.0000   0.0000   0.0000
LATT  1
SYMM -y, x-y, z
SYMM -x+y,-x, z
SYMM -y,-x,-z+1/2
SYMM -x+y, y,-z+1/2
SYMM  x, x-y,-z+1/2
SFAC C H N O Fe
UNIT 24.00 60.00 3.00 18.00 6.00
TREF
HKLF 4
END
;
_shelx_hkl_checksum              51527
loop_
_space_group_symop_operation_xyz
'x, y, z'
'-y, x-y, z'
'-x+y, -x, z'
'-y, -x, -z+1/2'
'-x+y, y, -z+1/2'
'x, x-y, -z+1/2'
'-x, -y, -z'
'y, -x+y, -z'
'x-y, x, -z'
'y, x, z-1/2'
'x-y, -y, z-1/2'
'-x, -x+y, z-1/2'
loop_
_atom_site_label
_atom_site_type_symbol
_atom_site_fract_x
_atom_site_fract_y
_atom_site_fract_z
_atom_site_U_iso_or_equiv
_atom_site_adp_type
_atom_site_occupancy
_atom_site_site_symmetry_order
_atom_site_calc_flag
_atom_site_refinement_flags_posn
_atom_site_refinement_flags_adp
_atom_site_refinement_flags_occupancy
Fe1 Fe 0.3333 0.6667 0.2500 0.01184(12) Uani 1 6 d S T P
Fe2 Fe 0.0000 1.0000 0.0000 0.01005(12) Uani 1 6 d S T P
O1 O 0.11391(15) 0.65801(16) 0.16653(8) 0.0255(3) Uani 1 1 d . . .
O2 O -0.01291(14) 0.79341(14) 0.08181(7) 0.0176(2) Uani 1 1 d . . .
C1 C 0.1246(2) 0.7889(2) 0.11842(10) 0.0196(3) Uani 1 1 d . . .
H1 H 0.2428 0.8918 0.1084 0.023 Uiso 1 1 calc R U .
C2 C 0.3333 0.6667 0.8673(7) 0.069(3) Uani 0.5 3 d DS T P
H2A H 0.4591 0.7698 0.8644 0.104 Uiso 0.1667 1 calc R U P
H2B H 0.3224 0.5855 0.9196 0.104 Uiso 0.1667 1 calc R U P
H2C H 0.2487 0.7129 0.8775 0.104 Uiso 0.1667 1 calc R U P
C21 C 0.3333 0.6667 0.6866(7) 0.069(3) Uani 0.5 3 d DS T P
H21A H 0.4621 0.7114 0.6710 0.104 Uiso 0.1667 1 calc R U P
H21B H 0.3133 0.7709 0.6939 0.104 Uiso 0.1667 1 calc R U P
H21C H 0.2554 0.5872 0.6356 0.104 Uiso 0.1667 1 calc R U P
N1 N 0.2870(14) 0.5620(12) 0.7758(4) 0.032(2) Uiso 0.1667 1 d D . P
H1A H 0.3442 0.4949 0.7755 0.038 Uiso 0.1667 1 calc R U P
H1B H 0.1646 0.4817 0.7755 0.038 Uiso 0.1667 1 calc R U P
loop_
_atom_site_aniso_label
_atom_site_aniso_U_11
_atom_site_aniso_U_22
_atom_site_aniso_U_33
_atom_site_aniso_U_23
_atom_site_aniso_U_13
_atom_site_aniso_U_12
Fe1 0.01077(16) 0.01077(16) 0.0140(2) 0.000 0.000 0.00538(8)
Fe2 0.00935(15) 0.00935(15) 0.0115(2) 0.000 0.000 0.00467(8)
O1 0.0240(6) 0.0208(6) 0.0317(6) 0.0072(5) -0.0075(5) 0.0112(5)
O2 0.0166(5) 0.0156(5) 0.0213(5) 0.0047(4) -0.0020(4) 0.0086(4)
C1 0.0177(7) 0.0179(7) 0.0233(7) 0.0045(6) -0.0006(6) 0.0091(6)
C2 0.0378(15) 0.0378(15) 0.133(10) 0.000 0.000 0.0189(8)
C21 0.0378(15) 0.0378(15) 0.133(10) 0.000 0.000 0.0189(8)
loop_
_atom_type_symbol
_atom_type_description
_atom_type_scat_dispersion_real
_atom_type_scat_dispersion_imag
_atom_type_scat_source
C C 0.0033 0.0016 'International Tables Vol C Tables 4.2.6.8 and 6.1.1.4'
H H 0.0000 0.0000 'International Tables Vol C Tables 4.2.6.8 and 6.1.1.4'
O O 0.0106 0.0060 'International Tables Vol C Tables 4.2.6.8 and 6.1.1.4'
N N 0.0061 0.0033 'International Tables Vol C Tables 4.2.6.8 and 6.1.1.4'
Fe Fe 0.3463 0.8444 'International Tables Vol C Tables 4.2.6.8 and 6.1.1.4'
loop_
_geom_angle_atom_site_label_1
_geom_angle_atom_site_label_2
_geom_angle_atom_site_label_3
_geom_angle
_geom_angle_site_symmetry_1
_geom_angle_site_symmetry_3
O1 Fe1 O1 93.12(4) 4_665 6_565
O1 Fe1 O1 84.50(6) 4_665 3_565
O1 Fe1 O1 176.66(6) 6_565 3_565
O1 Fe1 O1 89.36(6) 4_665 .
O1 Fe1 O1 84.50(6) 6_565 .
O1 Fe1 O1 93.12(4) 3_565 .
O1 Fe1 O1 176.66(6) 4_665 2_665
O1 Fe1 O1 89.36(6) 6_565 2_665
O1 Fe1 O1 93.12(4) 3_565 2_665
O1 Fe1 O1 93.12(4) . 2_665
O1 Fe1 O1 93.12(4) 4_665 5
O1 Fe1 O1 93.12(4) 6_565 5
O1 Fe1 O1 89.36(6) 3_565 5
O1 Fe1 O1 176.65(6) . 5
O1 Fe1 O1 84.50(6) 2_665 5
O2 Fe2 O2 180.0 7_575 .
O2 Fe2 O2 91.25(4) 7_575 8_455
O2 Fe2 O2 88.75(4) . 8_455
O2 Fe2 O2 88.75(4) 7_575 2_675
O2 Fe2 O2 91.25(4) . 2_675
O2 Fe2 O2 180.00(5) 8_455 2_675
O2 Fe2 O2 91.25(4) 7_575 9_665
O2 Fe2 O2 88.75(4) . 9_665
O2 Fe2 O2 91.25(4) 8_455 9_665
O2 Fe2 O2 88.75(4) 2_675 9_665
O2 Fe2 O2 88.75(4) 7_575 3_465
O2 Fe2 O2 91.25(4) . 3_465
O2 Fe2 O2 88.75(4) 8_455 3_465
O2 Fe2 O2 91.25(4) 2_675 3_465
O2 Fe2 O2 180.0 9_665 3_465
C1 O1 Fe1 125.36(10) . .
C1 O2 Fe2 125.90(9) . .
O1 C1 O2 124.84(14) . .
C21 N1 C2 118.1(8) . .
loop_
_geom_bond_atom_site_label_1
_geom_bond_atom_site_label_2
_geom_bond_distance
_geom_bond_site_symmetry_2
Fe1 O1 2.1205(10) 4_665
Fe1 O1 2.1205(10) 6_565
Fe1 O1 2.1205(10) 3_565
Fe1 O1 2.1205(10) .
Fe1 O1 2.1205(10) 2_665
Fe1 O1 2.1205(10) 5
Fe2 O2 2.0061(9) 7_575
Fe2 O2 2.0061(9) .
Fe2 O2 2.0062(9) 8_455
Fe2 O2 2.0062(9) 2_675
Fe2 O2 2.0062(9) 9_665
Fe2 O2 2.0062(9) 3_465
O1 C1 1.2349(17) .
O2 C1 1.2615(17) .
C2 N1 1.473(8) .
C21 N1 1.445(8) .
loop_
_geom_hbond_atom_site_label_D
_geom_hbond_atom_site_label_H
_geom_hbond_atom_site_label_A
_geom_hbond_distance_DH
_geom_hbond_distance_HA
_geom_hbond_distance_DA
_geom_hbond_angle_DHA
_geom_hbond_site_symmetry_A
N1 H1A O1 0.89 2.43 3.174(9) 141.7 11_666
N1 H1A O1 0.89 2.54 3.241(10) 135.6 8_556
N1 H1B O1 0.89 2.15 2.982(10) 155.8 7_566
C2 H2C O2 0.96 2.59 3.448(2) 149.6 9_666
