#------------------------------------------------------------------------------
#$Date: 2016-05-06 05:03:31 +0300 (Fri, 06 May 2016) $
#$Revision: 182762 $
#$URL: svn://www.crystallography.net/cod/cif/7/22/41/7224113.cif $
#------------------------------------------------------------------------------
#
# This file is available in the Crystallography Open Database (COD),
# http://www.crystallography.net/
#
# All data on this site have been placed in the public domain by the
# contributors.
#
data_7224113
loop_
_publ_author_name
'Chaudhary, Priyanka'
'Gupta, Surabhi'
'Muniyappan, Nalluchamy'
'Sabiah, Shahulhameed'
'Kandasamy, Jeyakumar'
_publ_section_title
;
 An efficient synthesis of N-nitrosamines under solvent, metal and acid
 free conditions using tert-butyl nitrite
;
_journal_issue                   8
_journal_name_full               'Green Chem.'
_journal_page_first              2323
_journal_paper_doi               10.1039/C5GC02880A
_journal_volume                  18
_journal_year                    2016
_chemical_formula_sum            'C14 H14 N2 O2'
_chemical_formula_weight         242.27
_space_group_crystal_system      monoclinic
_space_group_IT_number           4
_space_group_name_Hall           'P 2yb'
_space_group_name_H-M_alt        'P 1 21 1'
_symmetry_space_group_name_Hall  'P 2yb'
_symmetry_space_group_name_H-M   'P 1 21 1'
_atom_sites_solution_hydrogens   geom
_audit_creation_method           SHELXL-2014/7
_audit_update_record
;
2015-12-30 deposited with the CCDC.
2016-02-01 downloaded from the CCDC.
;
_cell_angle_alpha                90
_cell_angle_beta                 93.766(4)
_cell_angle_gamma                90
_cell_formula_units_Z            2
_cell_length_a                   7.5292(5)
_cell_length_b                   5.7936(3)
_cell_length_c                   13.9668(9)
_cell_measurement_reflns_used    3694
_cell_measurement_temperature    293(2)
_cell_measurement_theta_max      30.2
_cell_measurement_theta_min      2.9
_cell_volume                     607.93(6)
_computing_cell_refinement       'APEX2/SAINT (Bruker, 2004)'
_computing_data_collection       'APEX2 (Bruker, 2004)'
_computing_data_reduction        'SAINT/XPREP (Bruker, 2004)'
_computing_molecular_graphics
'ORTEP3 (Farrugia, 1997) and Mercury (Bruno et al., 2002)'
_computing_publication_material  'SHELXL-2014 (Sheldrick, 2014)'
_computing_structure_refinement  'SHELXL-2014 (Sheldrick, 2014)'
_computing_structure_solution    'SIR92 (Altornare et al., 1993)'
_diffrn_ambient_temperature      293(2)
_diffrn_measured_fraction_theta_full 0.999
_diffrn_measured_fraction_theta_max 0.999
_diffrn_measurement_device_type  'Bruker axs kappa apex2 CCD Diffractometer'
_diffrn_measurement_method       '\w and \f scan'
_diffrn_radiation_type           MoK\a
_diffrn_radiation_wavelength     0.71073
_diffrn_reflns_av_R_equivalents  0.0200
_diffrn_reflns_av_unetI/netI     0.0220
_diffrn_reflns_Laue_measured_fraction_full 0.999
_diffrn_reflns_Laue_measured_fraction_max 0.999
_diffrn_reflns_limit_h_max       8
_diffrn_reflns_limit_h_min       -8
_diffrn_reflns_limit_k_max       6
_diffrn_reflns_limit_k_min       -6
_diffrn_reflns_limit_l_max       16
_diffrn_reflns_limit_l_min       -16
_diffrn_reflns_number            6532
_diffrn_reflns_point_group_measured_fraction_full 0.998
_diffrn_reflns_point_group_measured_fraction_max 0.998
_diffrn_reflns_theta_full        25.000
_diffrn_reflns_theta_max         25.000
_diffrn_reflns_theta_min         2.711
_diffrn_source                   'Sealed tube'
_exptl_absorpt_coefficient_mu    0.090
_exptl_absorpt_correction_T_max  0.76
_exptl_absorpt_correction_T_min  0.75
_exptl_absorpt_correction_type   multi-scan
_exptl_absorpt_process_details   'SADABS (Bruker, 1999)'
_exptl_crystal_colour            'pale yellow'
_exptl_crystal_density_diffrn    1.324
_exptl_crystal_description       block
_exptl_crystal_F_000             256
_exptl_crystal_size_max          0.300
_exptl_crystal_size_mid          0.300
_exptl_crystal_size_min          0.200
_refine_diff_density_max         0.111
_refine_diff_density_min         -0.116
_refine_diff_density_rms         0.026
_refine_ls_abs_structure_details
;
 Flack x determined using 777 quotients [(I+)-(I-)]/[(I+)+(I-)]
 (Parsons, Flack and Wagner, Acta Cryst. B69 (2013) 249-259).
;
_refine_ls_abs_structure_Flack   0.1(4)
_refine_ls_extinction_method     none
_refine_ls_goodness_of_fit_ref   1.046
_refine_ls_hydrogen_treatment    constr
_refine_ls_matrix_type           full
_refine_ls_number_parameters     164
_refine_ls_number_reflns         2141
_refine_ls_number_restraints     1
_refine_ls_restrained_S_all      1.046
_refine_ls_R_factor_all          0.0381
_refine_ls_R_factor_gt           0.0299
_refine_ls_shift/su_max          0.000
_refine_ls_shift/su_mean         0.000
_refine_ls_structure_factor_coef Fsqd
_refine_ls_weighting_details
'w=1/[\s^2^(Fo^2^)+(0.0289P)^2^+0.0882P] where P=(Fo^2^+2Fc^2^)/3'
_refine_ls_weighting_scheme      calc
_refine_ls_wR_factor_gt          0.0652
_refine_ls_wR_factor_ref         0.0712
_reflns_Friedel_coverage         0.804
_reflns_Friedel_fraction_full    0.997
_reflns_Friedel_fraction_max     0.997
_reflns_number_gt                1888
_reflns_number_total             2141
_reflns_threshold_expression     'I > 2\s(I)'
_cod_data_source_file            c5gc02880a2.cif
_cod_data_source_block           JAYA2
_cod_depositor_comments          'Adding full bibliography for 7224113.cif.'
_cod_database_code               7224113
_shelx_shelxl_version_number     2014/7
_shelx_space_group_comment
;
The symmetry employed for this shelxl refinement is uniquely defined
by the following loop, which should always be used as a source of
symmetry information in preference to the above space-group names.
They are only intended as comments.
;
_shelx_estimated_absorpt_t_min   0.973
_shelx_estimated_absorpt_t_max   0.982
_shelx_res_file
;

    JAYA2.res created by SHELXL-2014/7

TITL babu2 in P2(1)
CELL  0.71073   7.5292   5.7936  13.9668   90.000   93.766   90.000
ZERR     2.00   0.0005   0.0003   0.0009    0.000    0.004    0.000
LATT  -1
SYMM  - X, 1/2 + Y, - Z
SFAC  C    H    N    O
UNIT  28   28   4    4
MERG   2
OMIT    -3.00  50.00
EQIV $1 x+1, y, z
HTAB C8 O1_$1
EQIV $2 x, y-1, z
HTAB C8 N2_$2
FMAP   2
PLAN   25
SIZE     0.20   0.30   0.30
ACTA
HTAB    2.00000
BOND   $H
CONF
L.S.   4
WGHT    0.028900    0.088200
FVAR       0.40957
C1    1   -0.336885    0.007151    0.978938    11.00000    0.06403    0.06529 =
         0.05717    0.00922    0.01836   -0.00802
AFIX 137
H1A   2   -0.336260   -0.128354    0.939402    11.00000   -1.50000
H1B   2   -0.452353    0.025563    1.003279    11.00000   -1.50000
H1C   2   -0.249111   -0.008643    1.031566    11.00000   -1.50000
AFIX   0
C2    1   -0.137960    0.206639    0.881295    11.00000    0.03770    0.04698 =
         0.03307    0.00094    0.00183   -0.00009
C3    1   -0.009059    0.037892    0.892723    11.00000    0.05373    0.03899 =
         0.04265    0.00864    0.00704    0.00206
AFIX  43
H3    2   -0.027503   -0.090327    0.930884    11.00000   -1.20000
AFIX   0
C4    1    0.147881    0.060174    0.847155    11.00000    0.04668    0.03558 =
         0.04521    0.00333    0.00282    0.01132
AFIX  43
H4    2    0.233992   -0.054500    0.855253    11.00000   -1.20000
AFIX   0
C5    1    0.179930    0.248028    0.790036    11.00000    0.03881    0.03457 =
         0.03353   -0.00056   -0.00042    0.00318
C6    1    0.049316    0.415946    0.779825    11.00000    0.04131    0.04001 =
         0.04432    0.01133    0.00221    0.00384
AFIX  43
H6    2    0.067936    0.544652    0.741974    11.00000   -1.20000
AFIX   0
C7    1   -0.108047    0.396376    0.824659    11.00000    0.03774    0.04410 =
         0.04968    0.00836    0.00170    0.01037
AFIX  43
H7    2   -0.194089    0.511174    0.816712    11.00000   -1.20000
AFIX   0
C8    1    0.356008    0.266718    0.744374    11.00000    0.04119    0.03831 =
         0.04547    0.00513    0.00438    0.00714
AFIX  23
H8A   2    0.450093    0.286777    0.794532    11.00000   -1.20000
H8B   2    0.378360    0.123262    0.711437    11.00000   -1.20000
AFIX   0
C9    1    0.302594    0.437737    0.577707    11.00000    0.02894    0.03270 =
         0.04137   -0.00107    0.00835    0.00256
C10   1    0.206844    0.245211    0.546331    11.00000    0.04219    0.03906 =
         0.05422    0.00093    0.00870   -0.00516
AFIX  43
H10   2    0.181100    0.129404    0.589400    11.00000   -1.20000
AFIX   0
C11   1    0.149941    0.226164    0.450988    11.00000    0.04677    0.05685 =
         0.06111   -0.01335    0.00119   -0.01039
AFIX  43
H11   2    0.086313    0.096145    0.429931    11.00000   -1.20000
AFIX   0
C12   1    0.185519    0.395593    0.386644    11.00000    0.04872    0.07198 =
         0.04646   -0.00549   -0.00036    0.00180
AFIX  43
H12   2    0.146512    0.381224    0.322350    11.00000   -1.20000
AFIX   0
C13   1    0.279705    0.587320    0.418346    11.00000    0.05175    0.05682 =
         0.04675    0.01038    0.01166    0.00399
AFIX  43
H13   2    0.303207    0.703819    0.375149    11.00000   -1.20000
AFIX   0
C14   1    0.339429    0.608992    0.512812    11.00000    0.04026    0.03740 =
         0.05187    0.00090    0.01157   -0.00251
AFIX  43
H14   2    0.404497    0.738392    0.533212    11.00000   -1.20000
AFIX   0
N2    3    0.420056    0.665651    0.704571    11.00000    0.04996    0.04055 =
         0.05399   -0.00888    0.00405   -0.00158
N1    3    0.363419    0.457177    0.676205    11.00000    0.03529    0.03225 =
         0.04451   -0.00116    0.00835   -0.00013
O1    4   -0.296716    0.204356    0.923387    11.00000    0.04796    0.06285 =
         0.05779    0.01491    0.01560    0.00449
O2    4    0.469115    0.679088    0.790545    11.00000    0.06867    0.06094 =
         0.05561   -0.01647   -0.00571    0.00449
HKLF    4

REM  babu2 in P2(1)
REM R1 =  0.0299 for    1888 Fo > 4sig(Fo)  and  0.0381 for all    2141 data
REM    164 parameters refined using      1 restraints

END

WGHT      0.0289      0.0884

REM Instructions for potential hydrogen bonds
HTAB C8 O1_$1
HTAB C8 N2_$2

REM Highest difference peak  0.111,  deepest hole -0.116,  1-sigma level  0.026
Q1    1   0.3223 -0.0617  0.8746  11.00000  0.05    0.11
Q2    1   0.2668  0.5754  0.5514  11.00000  0.05    0.09
Q3    1   0.5174  0.7663  0.5937  11.00000  0.05    0.09
Q4    1   0.0035 -0.3883  0.9605  11.00000  0.05    0.09
Q5    1   0.0434  0.0354  0.6481  11.00000  0.05    0.09
Q6    1   0.1883  0.2138  0.8515  11.00000  0.05    0.08
Q7    1   0.5197  0.0280  0.6595  11.00000  0.05    0.08
Q8    1   0.1796  0.4113  0.3013  11.00000  0.05    0.08
Q9    1   0.1920  0.3984  0.5558  11.00000  0.05    0.08
Q10   1   0.1140  0.3211  0.5144  11.00000  0.05    0.08
Q11   1   0.2073 -0.1266  0.8195  11.00000  0.05    0.08
Q12   1  -0.2344  0.4312  0.7957  11.00000  0.05    0.07
Q13   1   0.0996  0.6094  0.7438  11.00000  0.05    0.07
Q14   1   0.1719  0.3853  0.8190  11.00000  0.05    0.07
Q15   1  -0.0460  0.3680  0.8959  11.00000  0.05    0.07
Q16   1  -0.0859  0.3537  0.8810  11.00000  0.05    0.07
Q17   1   0.5481  0.7102  0.8719  11.00000  0.05    0.07
Q18   1   0.5967  0.7038  0.6723  11.00000  0.05    0.07
Q19   1   0.2968  0.5280  0.2666  11.00000  0.05    0.07
Q20   1   0.6276  0.0379  0.7766  11.00000  0.05    0.07
Q21   1   0.6027  0.5889  0.5432  11.00000  0.05    0.07
Q22   1  -0.4765 -0.0036  0.9597  11.00000  0.05    0.07
Q23   1  -0.0653 -0.0324  0.4127  11.00000  0.05    0.07
Q24   1   0.1601  0.2928  0.2388  11.00000  0.05    0.07
Q25   1   0.0918  0.2603  0.7585  11.00000  0.05    0.07
;
_shelx_res_checksum              85349
_shelx_hkl_file
;
   1   0   0   -0.02    0.03
   1   0   0    0.02    0.04
   1   0   0    0.14    0.04
  -1   0   0    0.02    0.03
  -1   0   0    0.16    0.04
  -1   0   0    0.01    0.04
  -2   0   0  131.38    2.43
   2   0   0  133.96    2.37
   2   0   0  131.27    2.38
   2   0   0  130.18    2.43
  -2   0   0  129.43    2.36
  -2   0   0  131.98    2.38
   2   0   0  134.29    2.51
  -3   0   0    5.09    0.23
   3   0   0    4.78    0.23
   3   0   0    5.06    0.21
   3   0   0    4.95    0.22
   3   0   0    5.20    0.23
  -3   0   0    4.92    0.22
  -3   0   0    4.77    0.22
  -4   0   0   36.05    0.85
   4   0   0   35.43    0.87
  -4   0   0   34.50    0.86
   4   0   0   35.76    0.84
  -5   0   0    0.95    0.17
   5   0   0    0.85    0.19
  -5   0   0    1.21    0.19
  -6   0   0   35.00    0.96
   6   0   0   32.86    0.96
  -6   0   0   33.18    0.93
  -7   0   0    1.60    0.25
  -7   0   0    1.91    0.29
   7   0   0    2.30    0.32
   8   0   0    0.86    0.24
  -8   0   0    0.68    0.26
  -8   0   0    0.51    0.20
  -9   0   0   -0.08    0.22
   9   0   0    0.33    0.26
  -9   0   0   -0.35    0.20
  10   0   0    0.02    0.27
 -10   0   0   -0.35    0.22
   0  -1   0   -0.06    0.04
   0  -1   0   -0.07    0.04
   0   1   0   -0.08    0.04
   0   1   0   -0.13    0.02
   1  -1   0  351.92    6.76
   1  -1   0  350.99    6.21
  -1  -1   0  345.21    5.86
  -1  -1   0  341.44    6.32
   1  -1   0  346.79    5.88
   1  -1   0  352.03    6.30
  -1  -1   0  356.95    6.22
   1   1   0  357.24    6.19
  -1   1   0  347.21    6.27
   1   1   0  349.27    6.28
  -1   1   0  329.97    6.60
  -1   1   0  344.36    6.35
  -1   1   0  352.71    6.14
   1   1   0  347.52    5.81
   1   1   0  346.31    5.79
   2  -1   0  377.59    7.51
  -2  -1   0  393.94    7.23
  -2  -1   0  398.87    6.69
   2  -1   0  384.65    6.79
   2  -1   0  391.85    6.94
   2  -1   0  386.74    6.86
  -2   1   0  382.18    7.48
  -2   1   0  384.45    6.90
   2   1   0  382.24    6.76
   2   1   0  395.95    6.78
  -2   1   0  382.72    6.94
   2   1   0  393.26    7.13
  -2   1   0  390.31    6.68
   3  -1   0    9.93    0.29
  -3  -1   0    9.95    0.31
   3  -1   0    9.74    0.35
  -3  -1   0   10.23    0.34
  -3  -1   0    9.80    0.33
   3   1   0   10.53    0.34
  -3   1   0    9.68    0.35
  -3   1   0    9.72    0.35
   3   1   0    9.78    0.33
   3   1   0    9.80    0.31
  -4  -1   0   49.96    1.10
   4  -1   0   49.43    1.12
  -4  -1   0   49.32    1.08
   4  -1   0   49.22    1.06
   4   1   0   49.33    1.11
  -4   1   0   48.31    1.14
  -4   1   0   47.93    1.11
  -5  -1   0   15.56    0.51
   5  -1   0   14.15    0.53
  -5  -1   0   15.82    0.54
   5  -1   0   13.72    0.48
  -5   1   0   14.19    0.53
   5   1   0   15.69    0.56
  -5   1   0   14.41    0.52
  -6  -1   0   32.86    0.92
  -6  -1   0   34.20    0.95
   6  -1   0   35.25    0.99
  -6   1   0   33.21    0.95
  -6   1   0   32.55    0.97
   6   1   0   35.75    0.99
  -7  -1   0   10.32    0.51
   7  -1   0   10.57    0.57
  -7  -1   0    9.59    0.53
  -7   1   0   10.72    0.57
  -7   1   0   10.88    0.56
   7   1   0    9.22    0.50
  -8  -1   0    0.00    0.19
   8  -1   0   -0.13    0.14
  -8  -1   0   -0.15    0.17
  -8   1   0    0.07    0.17
  -8   1   0   -0.61    0.18
   8   1   0   -0.23    0.20
   9  -1   0   -0.31    0.24
  -9  -1   0   -0.30    0.18
  -9  -1   0   -0.23    0.17
   9   1   0   -0.30    0.22
  -9   1   0    0.07    0.25
  -9   1   0   -0.29    0.16
 -10  -1   0    0.38    0.25
  10   1   0    0.96    0.34
   0  -2   0   76.40    1.39
   0  -2   0   76.83    1.39
   0   2   0   77.01    1.39
   0   2   0   77.97    1.39
  -1  -2   0   78.84    1.47
   1  -2   0   81.83    1.47
   1  -2   0   81.19    1.46
  -1   2   0   81.07    1.58
   1   2   0   82.00    1.45
   1   2   0   81.60    1.48
  -1   2   0   83.06    1.46
  -1   2   0   81.30    1.59
  -1   2   0   85.41    1.66
  -1   2   0   82.02    1.45
   1   2   0   83.39    1.48
  -1   2   0   82.05    1.46
   2  -2   0    8.69    0.28
   2  -2   0    9.33    0.28
   2  -2   0    9.29    0.34
  -2  -2   0    8.92    0.30
  -2  -2   0    9.07    0.28
   2   2   0    9.46    0.28
  -2   2   0    9.46    0.28
  -2   2   0    9.21    0.33
  -2   2   0    9.33    0.28
  -2   2   0    8.71    0.32
   2   2   0    9.02    0.23
   3  -2   0   92.53    1.84
   3  -2   0   93.05    1.79
   3  -2   0   92.59    1.64
  -3  -2   0   95.94    1.79
  -3  -2   0   91.98    1.75
  -3  -2   0   94.92    1.71
   3   2   0   83.09    1.76
  -3   2   0   95.51    1.83
  -3   2   0   93.02    1.86
  -3   2   0   91.98    1.89
   3   2   0   93.02    1.75
   4  -2   0    1.91    0.14
  -4  -2   0    1.93    0.18
  -4  -2   0    1.98    0.19
   4  -2   0    1.91    0.14
  -4  -2   0    1.68    0.16
   4  -2   0    1.84    0.21
  -4   2   0    2.15    0.23
   4   2   0    1.58    0.19
  -4   2   0    1.93    0.23
  -4   2   0    1.97    0.15
   4   2   0    1.69    0.15
  -5  -2   0    1.24    0.16
   5  -2   0    1.25    0.14
   5  -2   0    1.12    0.21
  -5   2   0    1.35    0.23
   5   2   0    1.05    0.20
  -5   2   0    1.29    0.19
   6  -2   0    0.44    0.20
  -6  -2   0    0.49    0.16
  -6   2   0    0.75    0.18
  -6   2   0    0.70    0.23
   6   2   0    0.34    0.18
   7  -2   0    5.22    0.44
  -7  -2   0    5.11    0.35
  -7   2   0    6.24    0.47
   7   2   0    5.31    0.38
  -7   2   0    5.08    0.46
   8  -2   0    0.38    0.20
  -8  -2   0    0.30    0.20
  -8   2   0    0.03    0.19
   8   2   0    0.06    0.23
  -8   2   0    0.43    0.20
   9  -2   0   -0.15    0.25
   9   2   0    0.06    0.24
  -9   2   0   -0.08    0.25
  -9   2   0    0.06    0.20
   0  -3   0   -0.04    0.06
   0  -3   0   -0.05    0.06
   1  -3   0    6.89    0.18
  -1  -3   0    6.60    0.17
   1  -3   0    7.03    0.29
  -1  -3   0    6.61    0.29
  -1   3   0    6.60    0.15
  -1   3   0    6.88    0.15
  -1   3   0    6.72    0.30
  -1   3   0    6.75    0.27
  -1   3   0    6.68    0.31
   2  -3   0    1.39    0.16
   2  -3   0    1.02    0.12
  -2  -3   0    1.44    0.17
  -2   3   0    1.38    0.15
  -2   3   0    1.40    0.15
  -2   3   0    1.21    0.15
   2   3   0    0.98    0.11
   2   3   0    1.34    0.08
  -3  -3   0    3.17    0.19
   3  -3   0    2.73    0.19
   3  -3   0    3.26    0.21
  -3  -3   0    2.91    0.21
  -3   3   0    3.13    0.25
  -3   3   0    3.13    0.25
  -3   3   0    3.10    0.18
   3   3   0    3.04    0.19
   3   3   0    3.20    0.14
  -4  -3   0    8.88    0.36
  -4  -3   0    9.04    0.39
   4  -3   0    8.60    0.33
   4  -3   0    8.68    0.38
   4   3   0    8.45    0.28
  -4   3   0    8.89    0.43
  -4   3   0    7.97    0.41
  -4   3   0    8.61    0.31
   4   3   0    8.47    0.35
   5  -3   0    1.99    0.26
   5  -3   0    2.43    0.20
  -5  -3   0    2.04    0.19
  -5  -3   0    2.63    0.25
  -5   3   0    2.18    0.26
   5   3   0    1.89    0.24
  -5   3   0    2.41    0.19
  -5   3   0    2.47    0.26
  -6  -3   0    4.03    0.33
   6  -3   0    4.35    0.25
  -6  -3   0    4.24    0.27
   6  -3   0    4.43    0.37
  -6   3   0    4.32    0.36
  -6   3   0    4.23    0.37
   6   3   0    4.02    0.34
  -7  -3   0    0.93    0.21
   7  -3   0    0.16    0.20
  -7   3   0    0.91    0.30
  -7   3   0    0.43    0.19
  -8  -3   0    2.95    0.34
   8  -3   0    3.00    0.40
  -8   3   0    2.83    0.40
  -8   3   0    2.74    0.42
  -9  -3   0   -0.02    0.17
   0  -4   0   52.41    1.17
   0  -4   0   54.31    1.19
   0   4   0   54.72    1.12
  -1  -4   0    7.78    0.36
   1  -4   0    7.16    0.34
  -1   4   0    7.07    0.36
  -1   4   0    6.70    0.29
  -1   4   0    7.01    0.37
  -2  -4   0    5.88    0.20
   2  -4   0    6.66    0.33
   2  -4   0    5.61    0.21
  -2  -4   0    5.94    0.31
  -2   4   0    5.90    0.18
  -2   4   0    5.77    0.31
  -2   4   0    5.91    0.32
   2   4   0    5.87    0.17
   2   4   0    5.60    0.17
  -2   4   0    5.72    0.33
   3  -4   0    0.12    0.09
  -3  -4   0    0.25    0.11
   3  -4   0    0.22    0.13
  -3  -4   0    0.10    0.08
  -3   4   0    0.28    0.12
  -3   4   0    0.27    0.15
   3   4   0    0.18    0.04
   3   4   0    0.05    0.07
  -3   4   0    0.20    0.10
  -4  -4   0    0.94    0.19
   4  -4   0    0.47    0.15
   4  -4   0    0.96    0.17
  -4   4   0    0.67    0.21
  -4   4   0    0.67    0.17
  -4   4   0    0.48    0.12
  -5  -4   0    4.09    0.33
   5  -4   0    2.86    0.29
   5  -4   0    4.31    0.28
  -5   4   0    4.26    0.40
  -5   4   0    4.41    0.36
  -6  -4   0    3.53    0.34
   6  -4   0    3.84    0.28
   6  -4   0    3.79    0.37
  -6   4   0    4.22    0.38
  -6   4   0    3.97    0.42
  -7  -4   0    0.36    0.19
   7  -4   0    0.49    0.22
  -7   4   0    0.68    0.28
  -7   4   0    0.16    0.18
   8  -4   0    0.93    0.29
  -8  -4   0    1.34    0.28
  -8   4   0    0.94    0.32
  -8   4   0    1.88    0.39
  -9  -4   0    0.23    0.19
   0   5   0    0.22    0.11
   1  -5   0   25.49    0.78
  -1  -5   0   25.67    0.78
  -1   5   0   25.32    0.83
  -1   5   0   23.93    0.68
   1   5   0   24.44    0.57
  -1   5   0   24.33    0.80
  -2  -5   0    0.85    0.20
   2  -5   0    0.94    0.22
  -2   5   0    0.58    0.17
  -2   5   0    0.55    0.17
  -2   5   0    0.58    0.16
  -3  -5   0    4.76    0.36
   3  -5   0    5.11    0.35
   3  -5   0    4.53    0.22
  -3   5   0    4.86    0.40
  -3   5   0    4.89    0.32
  -3   5   0    5.21    0.36
   4  -5   0    1.25    0.17
   4  -5   0    1.45    0.23
  -4  -5   0    1.49    0.26
  -4   5   0    0.84    0.23
  -4   5   0    1.92    0.29
   5  -5   0    3.13    0.30
   5  -5   0    3.31    0.29
  -5  -5   0    2.52    0.29
  -5   5   0    3.01    0.39
  -5   5   0    4.15    0.41
   6  -5   0    1.33    0.24
  -6  -5   0    1.34    0.27
  -6   5   0    1.05    0.27
  -6   5   0    0.81    0.23
   7  -5   0    1.65    0.29
  -7  -5   0    1.52    0.27
  -7   5   0    1.75    0.36
  -7   5   0    1.12    0.35
  -8  -5   0    0.08    0.18
   0   6   0   12.15    0.62
   0   6   0   12.25    0.60
  -1   6   0   10.75    0.57
  -1   6   0   11.87    0.62
   2  -6   0    5.09    0.41
  -2  -6   0    6.04    0.43
  -2   6   0    6.04    0.37
  -2   6   0    5.16    0.44
  -2   6   0    5.73    0.43
  -3  -6   0    6.26    0.42
   3  -6   0    6.78    0.44
  -3   6   0    6.35    0.41
  -3   6   0    7.13    0.49
   4  -6   0    0.33    0.19
  -4  -6   0    0.62    0.21
  -4   6   0    0.42    0.19
  -4   6   0    0.33    0.20
   5  -6   0    0.20    0.16
  -5  -6   0    0.44    0.22
   5  -6   0    0.21    0.13
  -5   6   0    0.50    0.24
  -5   6   0    0.10    0.24
  -6  -6   0    0.81    0.26
   6  -6   0    1.03    0.20
  -6   6   0    1.12    0.30
  -6   6   0    0.67    0.30
   7  -6   0    2.96    0.35
   0   7   0   -0.02    0.17
   0   7   0    0.20    0.21
  -1   7   0    0.67    0.25
   1   7   0    0.17    0.24
  -1   7   0    0.50    0.23
   1   7   0   -0.08    0.17
  -2   7   0    1.04    0.26
  -3  -7   0    0.25    0.16
  -3   7   0    0.35    0.20
  -4   7   0    5.67    0.51
   1   8   0    0.09    0.23
  10   0  -1    0.02    0.29
 -10   0   1    0.24    0.27
  -9   0   1   -0.41    0.19
  -9   0   1   -0.34    0.20
   9   0  -1    0.06    0.17
   8   0  -1    2.04    0.35
  -8   0   1    2.42    0.32
  -8   0   1    2.28    0.34
  -7   0   1    0.07    0.19
  -7   0   1    0.12    0.18
   7   0  -1    0.13    0.20
  -6   0   1   11.76    0.53
   6   0  -1   11.68    0.53
  -6   0   1   10.54    0.49
  -5   0   1    9.66    0.42
  -5   0   1    9.17    0.40
   5   0  -1    9.40    0.43
  -4   0   1   29.59    0.75
   4   0  -1   28.14    0.75
  -4   0   1   29.78    0.75
   4   0  -1   28.65    0.70
  -3   0   1   49.27    1.03
   3   0  -1   48.44    1.02
  -3   0   1   47.80    1.03
   3   0  -1   49.02    1.03
  -3   0   1   47.99    1.02
   2   0  -1  483.83    8.96
  -2   0   1  502.73    8.67
  -2   0   1  491.78    9.09
   2   0  -1  501.99    8.91
  -2   0   1  486.95    9.10
   1   0  -1    2.87    0.13
   1   0  -1    2.87    0.12
  -1   0   1    2.74    0.13
  -1   0   1    2.85    0.12
   1   0   1  193.49    3.81
   1   0   1  202.71    3.37
  -1   0  -1  196.23    3.56
  -1   0  -1  198.74    3.37
  -1   0  -1  193.75    3.63
  -1   0  -1  196.06    3.82
   1   0   1  181.73    3.17
   1   0   1  194.08    3.48
   1   0   1  195.76    3.56
   2   0   1    7.66    0.25
  -2   0  -1    7.21    0.24
   2   0   1    7.48    0.24
  -2   0  -1    7.26    0.25
  -2   0  -1    7.21    0.25
   2   0   1    7.12    0.25
  -2   0  -1    7.25    0.24
   2   0   1    7.31    0.23
  -3   0  -1   90.17    1.80
   3   0   1   90.96    1.80
   3   0   1   92.31    1.77
  -3   0  -1   93.53    1.77
   3   0   1   90.62    1.76
  -3   0  -1   90.98    1.76
   3   0   1   90.53    1.84
  -4   0  -1    4.74    0.25
  -4   0  -1    5.47    0.28
   4   0   1    4.97    0.29
  -5   0  -1    2.44    0.21
   5   0   1    2.94    0.27
  -5   0  -1    3.13    0.24
  -6   0  -1   10.90    0.49
   6   0   1   12.25    0.55
  -6   0  -1   12.31    0.53
   7   0   1   11.83    0.60
  -7   0  -1   11.42    0.58
  -7   0  -1   10.63    0.55
  -8   0  -1    0.44    0.20
  -8   0  -1    0.15    0.23
   8   0   1    0.20    0.19
   9   0   1    0.41    0.26
  -9   0  -1    0.31    0.25
  -9   0  -1    0.30    0.26
 -10   0  -1    0.23    0.28
  10   0   1    0.21    0.30
 -10  -1   1   -0.09    0.21
 -10   1   1    0.37    0.31
  10   1  -1    0.05    0.28
   9  -1  -1   -0.19    0.22
  -9  -1   1   -0.02    0.20
  -9  -1   1   -0.02    0.15
   9   1  -1    0.32    0.27
  -9   1   1    0.21    0.26
  -9   1   1    0.21    0.21
  -8  -1   1    0.16    0.16
  -8  -1   1   -0.10    0.16
   8  -1  -1    0.00    0.16
  -8   1   1   -0.30    0.19
  -8   1   1    0.02    0.22
   8   1  -1   -0.06    0.20
   7  -1  -1    3.28    0.34
  -7  -1   1    3.72    0.38
  -7  -1   1    3.74    0.32
   7   1  -1    3.48    0.34
  -7   1   1    4.04    0.40
  -7   1   1    3.76    0.40
  -6  -1   1   11.58    0.50
  -6  -1   1   11.93    0.48
   6  -1  -1   12.05    0.52
  -6   1   1   11.33    0.54
   6   1  -1   12.00    0.52
  -6   1   1   12.67    0.55
  -5  -1   1    0.51    0.13
   5  -1  -1    0.23    0.09
   5  -1  -1    0.35    0.13
  -5  -1   1    0.45    0.12
  -5   1   1    0.53    0.16
  -5   1   1    0.44    0.13
   5   1  -1    0.38    0.15
   4  -1  -1    9.34    0.40
   4  -1  -1    9.40    0.30
  -4  -1   1   10.98    0.40
  -4  -1   1   10.99    0.36
   4   1  -1    9.94    0.38
  -4   1   1    9.39    0.37
  -4   1   1   10.24    0.41
   4   1  -1   10.19    0.39
  -3  -1   1   58.42    1.20
   3  -1  -1   58.20    1.15
   3  -1  -1   56.19    1.19
  -3  -1   1   59.48    1.17
  -3  -1   1   58.64    1.19
   3   1  -1   59.93    1.20
  -3   1   1   57.23    1.24
  -3   1   1   57.40    1.21
   3   1  -1   57.53    1.16
  -2  -1   1  317.68    5.91
   2  -1  -1  316.38    5.52
  -2  -1   1  321.45    5.39
  -2  -1   1  325.86    5.52
   2  -1  -1  304.50    6.04
   2  -1  -1  320.40    5.60
  -2   1   1  314.65    6.06
  -2   1   1  313.14    5.73
   2   1  -1  318.66    5.85
   2   1  -1  323.70    5.59
  -2   1   1  325.20    5.52
   2   1  -1  329.45    5.52
  -2   1   1  310.93    5.59
   1  -1  -1  201.05    3.53
  -1  -1   1  198.63    3.62
   1  -1  -1  198.29    3.51
  -1  -1   1  203.32    3.46
  -1  -1   1  199.08    3.25
   1   1  -1  199.32    3.50
  -1   1   1  195.21    3.84
  -1   1   1  201.89    3.53
   1   1  -1  203.61    3.25
  -1   1   1  207.42    3.47
   0  -1   1  168.22    3.17
   0  -1   1  170.09    3.02
   0  -1  -1  167.29    2.77
   0  -1  -1  171.45    2.79
   0   1  -1  168.02    3.16
   0   1  -1  172.76    2.77
   0   1  -1  169.54    3.02
   0   1  -1  169.23    2.76
   0   1  -1  172.56    3.23
   0   1   1  172.65    2.77
   0   1   1  168.96    2.78
   0   1   1  172.69    3.03
   1  -1   1  415.18    7.27
   1  -1   1  399.13    7.14
  -1  -1  -1  383.37    6.69
   1  -1   1  407.62    7.42
  -1  -1  -1  408.64    7.12
   1  -1   1  403.88    7.80
  -1  -1  -1  396.67    6.71
   1  -1   1  392.78    6.66
   1   1   1  398.91    6.64
  -1   1  -1  402.90    7.10
  -1   1  -1  406.22    6.70
   1   1   1  399.81    7.21
  -1   1  -1  387.16    7.24
   1   1   1  405.59    7.14
   1   1   1  397.93    7.37
  -1   1  -1  398.11    7.79
  -1   1  -1  399.49    7.36
  -2  -1  -1   31.80    0.67
  -2  -1  -1   31.83    0.67
   2  -1   1   31.20    0.71
   2  -1   1   32.20    0.71
   2  -1   1   31.34    0.57
   2  -1   1   30.84    0.68
  -2  -1  -1   32.75    0.68
   2  -1   1   31.61    0.69
  -2   1  -1   30.90    0.67
  -2   1  -1   30.76    0.71
   2   1   1   31.65    0.68
  -2   1  -1   31.62    0.69
   2   1   1   31.68    0.62
   2   1   1   31.58    0.66
  -2   1  -1   30.07    0.70
   2   1   1   32.04    0.67
  -3  -1  -1    8.29    0.29
   3  -1   1    8.24    0.28
  -3  -1  -1    8.72    0.30
   3  -1   1    7.49    0.31
  -3  -1  -1    8.26    0.30
   3   1   1    8.74    0.30
   3   1   1    8.70    0.29
  -3   1  -1    8.15    0.31
   3   1   1    8.11    0.31
  -3   1  -1    7.92    0.32
  -3   1  -1    8.37    0.29
  -4  -1  -1   24.93    0.66
   4  -1   1   25.08    0.69
   4  -1   1   25.89    0.65
  -4  -1  -1   24.60    0.66
  -4   1  -1   25.96    0.72
  -4   1  -1   25.47    0.69
   4   1   1   24.08    0.68
  -4   1  -1   26.46    0.66
  -5  -1  -1   12.26    0.45
  -5  -1  -1   11.79    0.44
   5  -1   1   10.77    0.46
   5   1   1   11.09    0.48
  -5   1  -1   11.63    0.48
  -5   1  -1   11.00    0.46
   6  -1   1    5.83    0.37
  -6  -1  -1    6.02    0.39
  -6  -1  -1    6.57    0.38
  -6   1  -1    5.70    0.36
   6   1   1    5.85    0.37
  -6   1  -1    5.91    0.40
  -7  -1  -1    3.42    0.34
  -7  -1  -1    2.73    0.35
   7  -1   1    3.84    0.41
   7   1   1    4.21    0.40
  -7   1  -1    3.07    0.32
  -7   1  -1    3.51    0.39
  -8  -1  -1    0.39    0.23
  -8  -1  -1    0.27    0.22
   8  -1   1    0.17    0.24
  -8   1  -1    0.03    0.22
  -8   1  -1    0.40    0.26
   8   1   1    0.06    0.22
   9  -1   1    0.35    0.22
  -9  -1  -1    0.45    0.26
  -9  -1  -1    0.44    0.22
  -9   1  -1   -0.30    0.24
   9   1   1    0.37    0.22
  -9   1  -1    0.15    0.28
 -10  -1  -1    0.28    0.24
  10   1   1   -0.07    0.28
  -9  -2   1    0.24    0.17
   9  -2  -1   -0.08    0.19
  -9   2   1    0.05    0.21
   9   2  -1   -0.11    0.24
  -9   2   1   -0.38    0.23
   8  -2  -1    0.14    0.22
  -8  -2   1    0.34    0.16
  -8   2   1    0.21    0.19
   8   2  -1    0.57    0.25
  -8   2   1    0.30    0.27
  -7  -2   1    1.72    0.24
   7  -2  -1    1.70    0.30
  -7   2   1    1.47    0.25
  -7   2   1    1.96    0.33
   7   2  -1    1.73    0.29
  -6  -2   1    9.88    0.42
   6  -2  -1    9.83    0.48
   6   2  -1   10.22    0.51
  -6   2   1    9.89    0.53
  -6   2   1   10.77    0.53
  -5  -2   1   22.13    0.61
   5  -2  -1   21.53    0.69
  -5  -2   1   22.28    0.62
   5  -2  -1   22.01    0.55
   5   2  -1   21.63    0.67
  -5   2   1   22.12    0.72
  -5   2   1   21.15    0.69
   4  -2  -1   57.76    1.28
   4  -2  -1   58.79    1.20
  -4  -2   1   59.06    1.27
  -4  -2   1   57.80    1.20
  -4  -2   1   59.00    1.19
   4   2  -1   59.38    1.20
  -4   2   1   59.97    1.37
   4   2  -1   59.51    1.28
  -4   2   1   57.31    1.31
  -3  -2   1   36.30    0.78
   3  -2  -1   36.48    0.82
   3  -2  -1   34.76    0.75
  -3  -2   1   36.63    0.81
   3  -2  -1   35.31    0.74
  -3  -2   1   35.94    0.73
   3   2  -1   31.71    0.79
  -3   2   1   36.74    0.74
  -3   2   1   35.57    0.88
  -3   2   1   35.47    0.85
   2  -2  -1    9.12    0.29
   2  -2  -1    9.86    0.34
  -2  -2   1    9.58    0.31
  -2  -2   1    9.64    0.29
   2  -2  -1    9.58    0.29
  -2   2   1    9.27    0.32
   2   2  -1    9.74    0.31
  -2   2   1    9.39    0.28
  -2   2   1    9.54    0.26
  -2   2   1    9.25    0.34
   2   2  -1   10.07    0.29
   1  -2  -1   23.78    0.55
  -1  -2   1   24.26    0.55
   1  -2  -1   23.49    0.49
   1   2  -1   24.39    0.48
   1   2  -1   24.52    0.55
   1   2  -1   24.10    0.55
  -1   2   1   24.02    0.48
  -1   2   1   23.69    0.57
  -1   2   1   25.09    0.54
  -1   2   1   24.35    0.48
  -1   2   1   24.92    0.54
   0  -2  -1    6.38    0.23
   0  -2  -1    6.46    0.24
   0  -2   1    6.85    0.15
   0  -2  -1    6.72    0.15
   0   2   1    6.82    0.24
   0   2   1    6.32    0.23
   0   2  -1    7.22    0.24
   0   2  -1    6.90    0.19
   0   2   1    6.63    0.14
   0   2   1    6.59    0.14
   0   2  -1    6.85    0.23
   1  -2   1   20.91    0.48
  -1  -2  -1   21.21    0.51
   1  -2   1   21.62    0.45
  -1  -2  -1   21.39    0.52
  -1   2  -1   21.90    0.56
  -1   2  -1   21.82    0.56
   1   2   1   21.72    0.44
  -1   2  -1   21.81    0.52
  -1   2  -1   21.66    0.44
   1   2   1   21.98    0.52
  -1   2  -1   22.12    0.49
   1   2   1   21.48    0.51
   2  -2   1   27.46    0.68
   2  -2   1   27.10    0.58
  -2  -2  -1   28.32    0.62
  -2  -2  -1   28.11    0.64
   2  -2   1   27.42    0.62
   2  -2   1   26.99    0.67
   2   2   1   29.02    0.62
  -2   2  -1   27.42    0.66
  -2   2  -1   26.31    0.67
   2   2   1   28.06    0.64
   2   2   1   28.92    0.60
   2   2   1   29.54    0.64
  -2   2  -1   27.91    0.61
  -2   2  -1   26.71    0.69
   3  -2   1   11.24    0.37
   3  -2   1   12.10    0.32
  -3  -2  -1   11.92    0.39
   3  -2   1   11.12    0.38
  -3  -2  -1   12.25    0.39
  -3  -2  -1   11.98    0.35
  -3   2  -1   11.24    0.42
  -3   2  -1   11.76    0.37
   3   2   1   12.29    0.39
  -3   2  -1   11.41    0.43
   3   2   1   11.71    0.34
   4  -2   1   38.43    0.93
  -4  -2  -1   37.69    0.91
   4  -2   1   37.57    0.89
  -4  -2  -1   38.40    0.88
   4  -2   1   36.85    0.75
  -4   2  -1   37.11    0.97
  -4   2  -1   37.92    0.96
  -4   2  -1   38.28    0.88
   4   2   1   37.61    0.91
   5  -2   1    3.08    0.30
  -5  -2  -1    3.41    0.25
   5  -2   1    3.76    0.18
   5   2   1    2.94    0.28
  -5   2  -1    3.64    0.22
  -5   2  -1    3.62    0.32
  -5   2  -1    4.00    0.31
   6  -2   1    0.59    0.10
   6  -2   1    0.19    0.14
  -6  -2  -1    0.43    0.15
   6   2   1    0.44    0.20
  -6   2  -1    0.41    0.16
  -6   2  -1    0.62    0.17
  -7  -2  -1    2.05    0.27
   7  -2   1    1.77    0.30
  -7   2  -1    2.08    0.31
   7   2   1    1.76    0.27
  -7   2  -1    1.78    0.32
   8  -2   1    2.36    0.34
  -8  -2  -1    2.68    0.34
  -8   2  -1    2.73    0.35
  -8   2  -1    2.60    0.38
   8   2   1    2.22    0.35
   9  -2   1    2.35    0.42
  -9  -2  -1    3.14    0.37
  -9   2  -1    2.52    0.44
  -9   2  -1    1.69    0.38
   9   2   1    1.92    0.34
  -9  -3   1    0.14    0.17
  -9   3   1    0.75    0.34
   8  -3  -1    1.62    0.32
  -8  -3   1    1.53    0.26
  -8   3   1    1.14    0.30
  -8   3   1    1.18    0.32
   7  -3  -1    0.69    0.24
  -7  -3   1    1.07    0.22
  -7   3   1    0.83    0.25
  -7   3   1    1.16    0.25
   6  -3  -1    5.65    0.41
  -6  -3   1    5.50    0.36
  -6  -3   1    5.50    0.29
   6  -3  -1    5.95    0.30
  -6   3   1    6.85    0.47
  -6   3   1    5.44    0.41
   6   3  -1    5.80    0.39
  -5  -3   1    6.62    0.28
   5  -3  -1    6.69    0.32
   5  -3  -1    5.83    0.38
  -5  -3   1    6.62    0.35
   5   3  -1    6.34    0.36
  -5   3   1    6.85    0.43
  -5   3   1    6.52    0.41
   4  -3  -1    0.62    0.13
  -4  -3   1    0.90    0.16
  -4  -3   1    0.72    0.13
   4  -3  -1    0.63    0.15
   4   3  -1    0.59    0.14
  -4   3   1    0.49    0.09
  -4   3   1    0.55    0.13
  -4   3   1    0.66    0.17
  -3  -3   1    8.13    0.33
  -3  -3   1    8.74    0.31
   3  -3  -1    8.56    0.34
   3  -3  -1    8.08    0.32
   3   3  -1    8.24    0.30
  -3   3   1    8.24    0.37
  -3   3   1    8.60    0.28
  -3   3   1    8.55    0.38
   2  -3  -1   73.80    1.43
   2  -3  -1   73.42    1.39
  -2  -3   1   72.33    1.42
   2   3  -1   73.56    1.36
  -2   3   1   74.21    1.53
  -2   3   1   72.78    1.55
  -2   3   1   72.37    1.53
  -2   3   1   74.45    1.37
  -1  -3   1   33.02    0.63
  -1  -3   1   32.77    0.76
  -1  -3   1   33.77    0.63
   1  -3  -1   34.07    0.78
  -1   3   1   34.51    0.63
   1   3  -1   33.61    0.64
  -1   3   1   34.04    0.81
   0  -3  -1   13.87    0.44
   0  -3  -1   14.41    0.43
   0   3  -1   14.05    0.36
   1  -3   1   22.91    0.46
  -1  -3  -1   22.56    0.59
  -1  -3  -1   22.55    0.61
   1  -3   1   22.64    0.58
  -1  -3  -1   23.46    0.46
  -1   3  -1   22.62    0.57
  -1   3  -1   23.34    0.66
  -1   3  -1   23.20    0.44
  -1   3  -1   22.08    0.64
   1   3   1   23.71    0.44
   2  -3   1   20.68    0.49
   2  -3   1   21.40    0.54
  -2  -3  -1   19.85    0.57
  -2  -3  -1   20.04    0.48
  -2   3  -1   19.73    0.61
   2   3   1   20.06    0.47
  -2   3  -1   20.62    0.58
  -2   3  -1   21.51    0.59
   2   3   1   20.01    0.47
   3  -3   1   14.10    0.44
  -3  -3  -1   14.50    0.43
  -3  -3  -1   14.34    0.47
   3  -3   1   13.78    0.42
  -3   3  -1   13.63    0.51
   3   3   1   14.14    0.38
  -3   3  -1   14.57    0.45
  -3   3  -1   13.97    0.50
   3   3   1   14.34    0.42
   4  -3   1    1.20    0.18
   4  -3   1    0.97    0.14
  -4  -3  -1    1.47    0.17
  -4  -3  -1    1.21    0.19
  -4   3  -1    1.11    0.20
   4   3   1    1.06    0.16
   4   3   1    1.42    0.14
  -4   3  -1    1.11    0.20
  -4   3  -1    1.45    0.17
  -5  -3  -1    2.15    0.20
  -5  -3  -1    2.08    0.22
   5  -3   1    1.87    0.26
   5  -3   1    2.37    0.18
  -5   3  -1    2.18    0.30
  -5   3  -1    2.28    0.21
  -5   3  -1    2.28    0.30
   5   3   1    1.79    0.24
   6  -3   1   -0.01    0.17
  -6  -3  -1    0.34    0.17
  -6  -3  -1    0.42    0.14
   6  -3   1    0.54    0.12
  -6   3  -1    0.38    0.16
  -6   3  -1    0.61    0.21
  -6   3  -1    0.53    0.14
   6   3   1    0.03    0.15
   7  -3   1    0.43    0.22
  -7  -3  -1    0.89    0.20
  -7  -3  -1    0.82    0.23
  -7   3  -1    0.60    0.21
  -7   3  -1    0.51    0.26
  -8  -3  -1    0.31    0.20
   8  -3   1   -0.04    0.21
  -8   3  -1    0.41    0.28
  -8   3  -1    0.23    0.25
  -9  -3  -1    0.28    0.21
  -9  -4   1   -0.01    0.17
  -8  -4   1    0.48    0.20
   8  -4  -1   -0.01    0.22
  -8   4   1    0.41    0.28
  -8   4   1    0.32    0.24
  -7  -4   1    0.90    0.22
   7  -4  -1    0.88    0.24
  -7   4   1    0.67    0.26
  -7   4   1    0.81    0.24
   6  -4  -1    3.45    0.27
   6  -4  -1    3.73    0.35
  -6  -4   1    3.24    0.32
  -6   4   1    3.62    0.41
  -6   4   1    3.24    0.40
   5  -4  -1   15.73    0.59
  -5  -4   1   15.92    0.60
   5  -4  -1   15.34    0.55
  -5   4   1   16.44    0.67
  -5   4   1   17.48    0.71
   4  -4  -1    0.15    0.12
  -4  -4   1    0.26    0.12
   4  -4  -1    0.09    0.12
  -4   4   1    0.11    0.09
  -4   4   1    0.21    0.16
  -4   4   1    0.09    0.17
  -3  -4   1   11.00    0.36
   3  -4  -1   11.16    0.44
   3  -4  -1   11.26    0.37
  -3  -4   1   11.71    0.46
  -3   4   1   10.81    0.46
  -3   4   1   11.02    0.35
  -3   4   1   10.95    0.38
   3   4  -1   10.56    0.34
  -3   4   1   11.02    0.48
  -2  -4   1   13.33    0.33
   2  -4  -1   13.54    0.35
  -2  -4   1   13.71    0.34
   2  -4  -1   12.78    0.47
  -2  -4   1   13.16    0.48
  -2   4   1   14.09    0.52
  -2   4   1   13.57    0.33
  -2   4   1   13.73    0.48
  -2   4   1   13.98    0.49
   1  -4  -1   13.93    0.50
  -1  -4   1   13.69    0.49
  -1   4   1   12.39    0.48
   1   4  -1   12.97    0.31
  -1   4   1   13.38    0.45
   0  -4  -1    6.52    0.35
   0  -4  -1    5.74    0.30
   0   4  -1    6.03    0.23
  -1  -4  -1    2.07    0.23
   1  -4   1    2.44    0.23
  -1  -4  -1    2.65    0.21
  -1   4  -1    2.61    0.26
  -1   4  -1    2.56    0.25
  -1   4  -1    2.30    0.19
   2  -4   1   17.89    0.56
  -2  -4  -1   18.47    0.60
  -2  -4  -1   17.79    0.43
   2  -4   1   18.14    0.44
   2   4   1   18.65    0.45
   2   4   1   18.09    0.40
  -2   4  -1   17.89    0.60
  -2   4  -1   18.75    0.58
  -2   4  -1   18.78    0.64
   3  -4   1    5.39    0.29
  -3  -4  -1    5.65    0.33
   3  -4   1    5.23    0.26
  -3  -4  -1    5.38    0.25
  -3   4  -1    4.89    0.36
  -3   4  -1    5.17    0.33
   3   4   1    5.18    0.23
  -3   4  -1    5.42    0.30
  -4  -4  -1    0.70    0.16
   4  -4   1    0.68    0.14
   4  -4   1    0.58    0.14
  -4   4  -1    0.41    0.13
  -4   4  -1    0.56    0.16
  -4   4  -1    0.25    0.19
   5  -4   1    5.98    0.37
   5  -4   1    6.65    0.33
  -5  -4  -1    6.39    0.40
  -5   4  -1    6.32    0.34
  -5   4  -1    7.55    0.49
  -5   4  -1    5.84    0.44
   6  -4   1    2.88    0.33
  -6  -4  -1    3.57    0.35
  -6   4  -1    3.07    0.34
  -6   4  -1    3.51    0.41
   7  -4   1    0.31    0.22
  -7  -4  -1    0.04    0.18
  -7   4  -1    0.24    0.25
  -7   4  -1    0.33    0.20
   8  -4   1    1.05    0.29
  -8  -4  -1    1.43    0.30
  -8   4  -1    1.24    0.34
  -8   4  -1    1.17    0.33
  -8  -5   1    0.04    0.16
  -7  -5   1   -0.06    0.15
   7  -5  -1   -0.12    0.18
  -7   5   1    0.04    0.25
  -7   5   1    0.32    0.28
   6  -5  -1    1.47    0.24
  -6  -5   1    1.10    0.23
  -6   5   1    0.86    0.23
  -6   5   1    0.94    0.26
   5  -5  -1    2.21    0.27
   5  -5  -1    1.70    0.22
  -5  -5   1    1.58    0.27
  -5   5   1    2.14    0.33
  -5   5   1    1.77    0.27
  -4  -5   1    3.42    0.30
  -4  -5   1    3.52    0.23
   4  -5  -1    4.09    0.26
   4  -5  -1    3.90    0.32
  -4   5   1    3.38    0.37
  -4   5   1    3.78    0.36
  -3  -5   1    2.91    0.17
   3  -5  -1    2.68    0.29
   3  -5  -1    2.81    0.18
  -3  -5   1    2.98    0.30
  -3   5   1    3.29    0.31
  -3   5   1    3.00    0.33
  -3   5   1    2.62    0.24
   2  -5  -1    1.02    0.23
  -2  -5   1    1.21    0.21
  -2   5   1    1.04    0.18
  -2   5   1    1.30    0.22
  -2   5   1    0.97    0.21
  -1  -5   1    9.89    0.45
   1  -5  -1    9.37    0.48
  -1   5   1    9.66    0.41
  -1   5   1    9.66    0.47
  -1   5   1    9.20    0.47
   0  -5  -1   39.53    1.03
   0   5  -1   37.83    1.15
   0   5  -1   38.53    0.86
   0   5   1   37.86    1.03
   0   5   1   37.05    0.89
  -1  -5  -1   46.64    1.17
  -1   5  -1   49.17    1.11
  -1   5  -1   47.73    1.30
  -1   5  -1   48.71    1.27
   2  -5   1    1.25    0.22
  -2  -5  -1    1.28    0.07
  -2  -5  -1    1.28    0.07
   2  -5   1    1.32    0.08
  -2  -5  -1    1.41    0.22
  -2   5  -1    1.46    0.22
  -2   5  -1    1.24    0.21
  -2   5  -1    1.56    0.24
  -3  -5  -1    0.16    0.16
   3  -5   1    0.04    0.14
   3  -5   1   -0.03    0.08
  -3   5  -1    0.03    0.10
  -3   5  -1   -0.04    0.14
  -3   5  -1    0.03    0.16
  -4  -5  -1    0.73    0.22
   4  -5   1    0.73    0.20
   4  -5   1    0.94    0.16
  -4   5  -1    0.93    0.21
  -4   5  -1    0.88    0.23
   5  -5   1    5.47    0.34
  -5  -5  -1    5.92    0.43
   5  -5   1    4.72    0.33
  -5   5  -1    5.51    0.45
  -5   5  -1    5.67    0.48
  -6  -5  -1    2.33    0.34
   6  -5   1    3.00    0.33
  -6   5  -1    2.88    0.36
  -6   5  -1    3.38    0.43
   7  -5   1    0.92    0.25
  -7  -5  -1    1.14    0.25
  -7   5  -1    1.08    0.27
  -7   5  -1    0.81    0.31
  -7  -6   1    0.82    0.23
   7  -6  -1    1.11    0.23
  -6  -6   1    4.81    0.44
   6  -6  -1    4.86    0.36
  -6  -6   1    4.24    0.32
  -6   6   1    5.47    0.51
  -6   6   1    4.45    0.50
   5  -6  -1    4.46    0.38
   5  -6  -1    3.96    0.28
  -5  -6   1    3.60    0.35
  -5   6   1    4.00    0.42
  -5   6   1    4.98    0.47
   4  -6  -1    0.81    0.23
  -4  -6   1    0.83    0.24
  -4   6   1    1.40    0.29
  -4   6   1    0.92    0.24
  -3  -6   1    4.71    0.41
   3  -6  -1    4.83    0.40
  -3   6   1    5.20    0.42
  -3   6   1    4.41    0.36
   2  -6  -1    1.56    0.27
  -2  -6   1    2.03    0.31
  -2   6   1    1.50    0.26
  -2   6   1    1.88    0.27
  -2   6   1    2.03    0.27
   1  -6  -1    2.38    0.29
  -1   6   1    2.25    0.32
  -1   6   1    2.40    0.32
   0   6   1   10.49    0.54
   0   6  -1   10.58    0.62
   0   6  -1   10.77    0.58
  -1  -6  -1    5.47    0.42
  -1   6  -1    5.95    0.46
  -1   6  -1    6.35    0.47
  -2  -6  -1    4.66    0.37
  -2   6  -1    4.40    0.38
  -2   6  -1    4.66    0.44
  -2   6  -1    4.51    0.36
  -3  -6  -1    3.02    0.32
  -3   6  -1    2.74    0.31
  -3   6  -1    2.50    0.34
   4  -6   1    1.34    0.24
  -4  -6  -1    1.66    0.28
  -4   6  -1    1.77    0.30
  -4   6  -1    1.27    0.26
  -5  -6  -1    0.36    0.22
   5  -6   1    0.30    0.14
  -5   6  -1    0.19    0.21
  -5   6  -1    0.24    0.23
   6  -6   1    0.29    0.17
  -6  -6  -1    0.76    0.28
  -6   6  -1    0.50    0.27
  -6   6  -1    0.75    0.28
   7  -6   1    1.63    0.29
  -4  -7   1    0.84    0.29
   4  -7  -1    1.47    0.30
  -4   7   1    1.55    0.30
   3  -7  -1    1.61    0.31
  -3  -7   1    1.80    0.31
  -3   7   1    2.13    0.33
  -2   7   1    1.59    0.28
  -1   7   1    0.25    0.19
   1   7  -1   -0.06    0.15
   0   7  -1    0.71    0.26
   0   7  -1    0.42    0.23
   0   7   1    0.30    0.19
   0   7   1    0.41    0.22
   1   7   1    0.16    0.19
  -1   7  -1    0.33    0.23
  -1   7  -1    0.62    0.22
  -2  -7  -1    2.21    0.33
  -2   7  -1    1.53    0.30
  -3  -7  -1    1.49    0.29
  -3   7  -1    1.16    0.28
  -4   7  -1    0.83    0.27
   0   8  -1    1.09    0.29
  -1   8  -1    0.29    0.23
 -10   0   2    4.08    0.49
  10   0  -2    3.63    0.46
  -9   0   2    0.33    0.23
  -9   0   2   -0.33    0.20
   9   0  -2    0.23    0.25
  -8   0   2    2.12    0.30
  -8   0   2    2.47    0.34
   8   0  -2    2.05    0.35
  -7   0   2   -0.12    0.16
  -7   0   2    0.00    0.12
   7   0  -2    0.09    0.14
  -6   0   2    2.00    0.24
   6   0  -2    1.79    0.26
  -6   0   2    1.99    0.26
   5   0  -2   20.40    0.65
  -5   0   2   20.33    0.63
  -5   0   2   20.48    0.63
   4   0  -2   91.36    1.83
  -4   0   2   90.35    1.84
  -4   0   2   89.97    1.82
   3   0  -2   91.53    1.77
   3   0  -2   90.49    1.76
  -3   0   2   90.76    1.79
  -3   0   2   93.97    1.77
  -3   0   2   90.51    1.77
  -2   0   2  701.21   13.05
   2   0  -2  728.50   12.86
   2   0  -2  701.33   12.89
  -2   0   2  749.81   12.75
   1   0  -2   71.60    1.38
   1   0  -2   72.04    1.31
   1   0  -2   72.98    1.31
   1   0  -2   70.69    1.30
  -1   0   2   69.56    1.30
  -1   0   2   71.72    1.31
  -1   0   2   72.32    1.31
   0   0  -2    8.19    0.21
   0   0   2    8.10    0.20
   0   0   2    8.04    0.21
   0   0  -2    8.14    0.21
  -1   0  -2   10.07    0.25
   1   0   2   10.16    0.25
  -1   0  -2    9.72    0.27
   1   0   2    9.98    0.27
  -1   0  -2   10.05    0.27
  -1   0  -2   10.33    0.28
   1   0   2   10.13    0.28
   1   0   2    9.75    0.27
  -2   0  -2   26.65    0.63
  -2   0  -2   26.96    0.60
   2   0   2   26.66    0.59
  -2   0  -2   26.44    0.62
   2   0   2   26.22    0.45
  -2   0  -2   26.34    0.58
   2   0   2   26.86    0.62
   2   0   2   27.20    0.61
   2   0   2   25.93    0.62
  -3   0  -2   10.25    0.36
  -3   0  -2   10.55    0.35
   3   0   2   10.31    0.37
   3   0   2   10.26    0.35
   3   0   2   10.89    0.34
  -3   0  -2   10.28    0.35
  -3   0  -2   10.63    0.34
  -4   0  -2   10.26    0.38
   4   0   2    9.77    0.39
  -4   0  -2    9.98    0.39
  -5   0  -2    1.66    0.19
  -5   0  -2    1.54    0.20
   5   0   2    1.58    0.20
  -6   0  -2    5.19    0.37
  -6   0  -2    5.63    0.38
   6   0   2    4.92    0.38
  -7   0  -2    8.00    0.50
   7   0   2    8.18    0.52
  -7   0  -2    7.33    0.49
   8   0   2   -0.26    0.21
  -8   0  -2   -0.41    0.18
  -8   0  -2    0.18    0.23
   9   0   2    0.43    0.28
  -9   0  -2    0.73    0.23
  -9   0  -2    0.56    0.29
  10   0   2    0.25    0.24
 -10   0  -2   -0.39    0.24
 -10  -1   2    0.55    0.27
  10   1  -2    0.70    0.34
 -10   1   2    0.29    0.22
  -9  -1   2    1.50    0.31
   9  -1  -2    0.53    0.24
  -9  -1   2    1.15    0.26
  -9   1   2    1.20    0.28
   9   1  -2    1.01    0.31
  -9   1   2    0.91    0.26
  -8  -1   2    0.87    0.22
   8  -1  -2    0.60    0.22
  -8  -1   2    0.52    0.19
   8   1  -2    0.86    0.27
  -8   1   2    0.58    0.26
  -8   1   2    0.70    0.27
  -7  -1   2    2.09    0.30
  -7  -1   2    2.49    0.28
   7  -1  -2    2.20    0.30
  -7   1   2    2.02    0.30
  -7   1   2    2.20    0.33
   7   1  -2    2.77    0.36
  -6  -1   2   20.58    0.69
   6  -1  -2   20.33    0.57
  -6  -1   2   20.60    0.66
   6  -1  -2   22.04    0.75
  -6   1   2   21.12    0.73
  -6   1   2   20.21    0.69
   6   1  -2   21.23    0.73
   5  -1  -2   16.65    0.59
  -5  -1   2   18.08    0.60
  -5  -1   2   18.74    0.56
   5  -1  -2   17.09    0.47
  -5   1   2   17.13    0.59
   5   1  -2   18.30    0.62
  -5   1   2   16.90    0.60
   4  -1  -2  138.68    2.63
  -4  -1   2  135.96    2.63
  -4  -1   2  137.22    2.62
   4  -1  -2  138.17    2.62
   4   1  -2  139.25    2.63
  -4   1   2  133.23    2.70
  -4   1   2  138.99    2.64
   3  -1  -2  144.65    2.65
  -3  -1   2  145.71    2.64
   3  -1  -2  138.93    2.71
  -3  -1   2  143.64    2.65
  -3   1   2  140.52    2.74
  -3   1   2  145.12    2.67
   3   1  -2  143.05    2.64
   2  -1  -2   24.95    0.57
  -2  -1   2   24.92    0.53
   2  -1  -2   24.38    0.57
  -2  -1   2   25.67    0.50
  -2  -1   2   25.56    0.57
   2   1  -2   25.01    0.57
  -2   1   2   24.94    0.57
  -2   1   2   25.29    0.57
   2   1  -2   26.04    0.59
  -1  -1   2   99.26    1.76
  -1  -1   2   96.75    1.63
   1  -1  -2   97.45    1.76
  -1  -1   2   97.90    1.75
   1  -1  -2   99.04    1.76
  -1   1   2   98.74    1.76
   1   1  -2   96.95    1.76
  -1   1   2   99.82    1.63
   1   1  -2   98.19    1.63
  -1   1   2   96.98    1.84
  -1   1   2   98.44    1.76
  -1   1   2   98.93    1.76
   0  -1   2  206.29    3.93
   0  -1  -2  209.24    3.58
   0  -1  -2  196.43    3.36
   0  -1   2  210.91    3.58
   0  -1  -2  207.61    3.39
   0  -1   2  209.21    3.83
   0   1  -2  211.69    3.57
   0   1   2  209.01    3.58
   0   1   2  207.01    3.36
   0   1  -2  214.90    3.94
   0   1  -2  205.70    3.80
   0   1   2  201.91    3.70
  -1  -1  -2  185.07    3.03
   1  -1   2  185.87    3.35
   1  -1   2  184.58    3.52
   1  -1   2  183.87    3.23
  -1  -1  -2  187.55    3.23
   1   1   2  178.87    3.34
   1   1   2  182.28    3.34
  -1   1  -2  184.84    3.22
  -1   1  -2  186.22    2.98
  -1   1  -2  187.68    3.31
  -1   1  -2  183.28    3.51
   1   1   2  187.22    3.03
  -1   1  -2  184.09    3.35
   1   1   2  185.93    3.23
  -2  -1  -2   43.68    0.92
  -2  -1  -2   43.16    0.87
   2  -1   2   42.77    0.90
   2  -1   2   44.05    0.74
   2  -1   2   44.32    0.95
   2  -1   2   45.40    0.94
   2  -1   2   43.65    0.93
  -2  -1  -2   43.79    0.90
  -2   1  -2   44.19    0.90
  -2   1  -2   42.54    0.94
   2   1   2   42.36    0.91
  -2   1  -2   44.51    0.95
   2   1   2   43.60    0.87
  -2   1  -2   43.72    0.93
   2   1   2   42.82    0.97
   2   1   2   44.90    0.91
   2   1   2   43.42    0.81
  -3  -1  -2   39.38    0.85
  -3  -1  -2   39.15    0.88
   3  -1   2   38.73    0.67
   3  -1   2   37.86    0.88
   3  -1   2   37.73    0.89
  -3  -1  -2   39.62    0.88
  -3   1  -2   39.14    0.89
  -3   1  -2   37.10    0.90
   3   1   2   39.11    0.84
   3   1   2   39.85    0.76
   3   1   2   39.51    0.88
  -3   1  -2   38.60    0.89
   3   1   2   39.77    0.87
  -4  -1  -2    3.53    0.23
   4  -1   2    2.62    0.24
  -4  -1  -2    3.02    0.22
  -4   1  -2    3.06    0.21
   4   1   2    2.68    0.22
  -4   1  -2    2.52    0.21
   4   1   2    3.14    0.15
  -4   1  -2    2.82    0.23
  -5  -1  -2   11.85    0.46
  -5  -1  -2   11.44    0.45
   5  -1   2   12.05    0.50
   5   1   2   11.87    0.50
  -5   1  -2   11.89    0.49
  -5   1  -2   11.75    0.47
   5   1   2   11.41    0.34
   6  -1   2    6.82    0.44
  -6  -1  -2    7.46    0.42
  -6  -1  -2    7.80    0.42
  -6   1  -2    7.76    0.46
   6   1   2    7.71    0.45
  -6   1  -2    7.11    0.44
  -7  -1  -2   11.33    0.56
  -7  -1  -2   10.84    0.56
   7  -1   2   11.70    0.61
   7   1   2   11.63    0.59
  -7   1  -2   10.94    0.56
  -7   1  -2   10.68    0.54
   8  -1   2   -0.05    0.22
  -8  -1  -2    0.09    0.19
  -8  -1  -2   -0.09    0.20
  -8   1  -2    0.00    0.18
  -8   1  -2   -0.14    0.21
   8   1   2   -0.25    0.19
   9  -1   2   -0.19    0.24
  -9  -1  -2    0.09    0.23
  -9  -1  -2   -0.02    0.15
  -9   1  -2    0.16    0.28
  -9   1  -2   -0.50    0.23
   9   1   2   -0.23    0.22
 -10  -1  -2    0.73    0.29
  10   1   2    0.30    0.32
   9  -2  -2   -0.34    0.25
   9   2  -2    0.01    0.24
  -9   2   2   -0.06    0.26
  -9   2   2    0.19    0.22
   8  -2  -2    1.52    0.31
  -8  -2   2    1.55    0.23
  -8  -2   2    1.63    0.25
  -8   2   2    1.92    0.37
  -8   2   2    1.27    0.31
   8   2  -2    1.43    0.31
  -7  -2   2    0.44    0.15
   7  -2  -2    0.64    0.20
  -7  -2   2    0.58    0.18
  -7   2   2    0.36    0.17
   7   2  -2    0.28    0.21
  -7   2   2    0.28    0.23
  -6  -2   2   13.23    0.48
   6  -2  -2   14.33    0.60
  -6  -2   2   14.03    0.49
  -6   2   2   12.79    0.55
  -6   2   2   12.79    0.58
   6   2  -2   14.26    0.59
  -5  -2   2    1.59    0.17
  -5  -2   2    1.42    0.18
   5  -2  -2    1.35    0.10
   5  -2  -2    0.96    0.21
   5   2  -2    0.97    0.19
  -5   2   2    1.35    0.21
  -5   2   2    1.56    0.24
  -4  -2   2   14.33    0.47
   4  -2  -2   15.13    0.50
  -4  -2   2   15.10    0.44
   4  -2  -2   14.07    0.33
  -4  -2   2   15.35    0.41
   4   2  -2   14.27    0.48
  -4   2   2   15.63    0.55
  -4   2   2   14.28    0.51
   3  -2  -2   32.98    0.78
  -3  -2   2   33.61    0.68
  -3  -2   2   33.82    0.73
  -3  -2   2   34.08    0.77
  -3   2   2   33.37    0.80
   3   2  -2   33.65    0.77
  -3   2   2   32.32    0.84
  -2  -2   2    8.39    0.17
   2  -2  -2    7.79    0.28
   2  -2  -2    9.02    0.31
  -2  -2   2    8.91    0.28
  -2  -2   2    8.43    0.28
   2  -2  -2    8.56    0.28
   2   2  -2    8.48    0.27
  -2   2   2    8.13    0.27
   2   2  -2    8.27    0.27
  -2   2   2    8.35    0.22
  -2   2   2    8.68    0.28
  -2   2   2    8.72    0.30
  -2   2   2    8.16    0.27
   1  -2  -2  124.54    2.12
   1  -2  -2  123.75    2.15
  -1  -2   2  115.24    2.18
  -1  -2   2  125.17    2.18
  -1  -2   2  123.66    2.12
   1   2  -2  128.39    2.13
  -1   2   2  126.31    2.19
  -1   2   2  122.47    2.26
  -1   2   2  122.94    2.12
  -1   2   2  125.13    2.19
   0  -2   2   32.38    0.64
   0  -2  -2   32.82    0.70
   0  -2   2   33.26    0.67
   0  -2  -2   34.27    0.72
   0   2   2   34.57    0.71
   0   2  -2   33.54    0.83
   0   2  -2   34.17    0.64
   0   2   2   34.56    0.71
   0   2  -2   33.58    0.67
   0   2  -2   33.78    0.70
   0   2   2   34.10    0.65
   0   2  -2   34.34    0.70
   1  -2   2   65.10    1.30
  -1  -2  -2   64.72    1.24
  -1  -2  -2   65.43    1.24
  -1  -2  -2   67.31    1.22
   1  -2   2   65.14    1.41
   1  -2   2   65.02    1.22
   1   2   2   67.08    1.24
   1   2   2   67.69    1.22
   1   2   2   67.32    1.24
  -1   2  -2   65.54    1.30
  -1   2  -2   65.98    1.21
  -1   2  -2   63.33    1.35
  -1   2  -2   65.67    1.19
  -1   2  -2   66.31    1.41
   2  -2   2   43.40    0.95
  -2  -2  -2   42.77    0.88
  -2  -2  -2   42.09    0.87
  -2  -2  -2   42.31    0.89
   2  -2   2   42.65    0.81
   2  -2   2   42.28    0.89
   2  -2   2   42.06    0.98
  -2   2  -2   42.88    0.98
   2   2   2   43.02    0.88
   2   2   2   42.84    0.88
  -2   2  -2   43.06    0.97
  -2   2  -2   43.33    0.81
   2   2   2   43.10    0.87
  -2   2  -2   41.47    0.95
   2   2   2   42.44    0.89
   3  -2   2   26.75    0.67
   3  -2   2   26.59    0.55
  -3  -2  -2   25.97    0.66
  -3  -2  -2   26.52    0.65
   3  -2   2   27.62    0.70
   3   2   2   26.13    0.64
  -3   2  -2   27.15    0.73
   3   2   2   27.10    0.66
   3   2   2   26.59    0.64
  -3   2  -2   26.04    0.72
  -3   2  -2   26.57    0.68
   4  -2   2    0.62    0.14
   4  -2   2    0.51    0.08
  -4  -2  -2    0.62    0.13
  -4  -2  -2    0.64    0.14
  -4   2  -2    0.64    0.14
  -4   2  -2    0.40    0.14
   4   2   2    0.51    0.14
  -4   2  -2    0.52    0.12
   5  -2   2    2.28    0.28
  -5  -2  -2    2.52    0.22
   5  -2   2    2.51    0.13
   5   2   2    1.94    0.22
  -5   2  -2    3.04    0.29
  -5   2  -2    2.63    0.25
  -5   2  -2    3.10    0.25
   6  -2   2    0.33    0.19
  -6  -2  -2    0.49    0.16
   6  -2   2    0.72    0.09
  -6  -2  -2    0.89    0.17
  -6   2  -2    0.64    0.18
  -6   2  -2    0.72    0.21
   6   2   2    0.82    0.19
   7  -2   2    4.52    0.43
  -7  -2  -2    4.02    0.34
  -7  -2  -2    3.71    0.33
  -7   2  -2    4.27    0.44
   7   2   2    3.75    0.34
  -7   2  -2    3.69    0.41
   8  -2   2    0.12    0.23
  -8  -2  -2    0.01    0.17
   8   2   2    0.18    0.23
  -8   2  -2    0.22    0.24
  -8   2  -2   -0.19    0.23
  -9  -2  -2    0.20    0.21
   9  -2   2    0.09    0.21
  -9   2  -2   -0.26    0.26
   9   2   2    0.23    0.27
  -9   2  -2    0.10    0.28
   8  -3  -2    0.03    0.21
  -8  -3   2    0.24    0.16
  -8   3   2    0.13    0.26
  -8   3   2    0.41    0.26
   7  -3  -2    3.86    0.41
   7  -3  -2    4.23    0.28
  -7  -3   2    4.19    0.32
  -7   3   2    3.64    0.43
  -7   3   2    3.60    0.38
  -6  -3   2    3.89    0.24
   6  -3  -2    4.11    0.37
   6  -3  -2    3.93    0.28
  -6  -3   2    3.41    0.30
  -6   3   2    3.80    0.34
  -6   3   2    3.63    0.35
   6   3  -2    3.99    0.34
  -5  -3   2    2.80    0.24
   5  -3  -2    2.98    0.23
   5  -3  -2    2.12    0.27
  -5  -3   2    2.32    0.17
  -5   3   2    2.58    0.27
  -5   3   2    2.32    0.31
   5   3  -2    2.11    0.26
   4  -3  -2    9.55    0.39
  -4  -3   2    8.81    0.37
   4  -3  -2    9.10    0.37
  -4  -3   2    9.67    0.37
  -4  -3   2    9.29    0.26
  -4   3   2    8.87    0.42
   4   3  -2    9.05    0.37
  -4   3   2    9.36    0.45
  -4   3   2    8.80    0.23
  -3  -3   2   13.97    0.41
   3  -3  -2   13.28    0.42
   3  -3  -2   13.88    0.45
  -3  -3   2   13.20    0.44
  -3   3   2   13.76    0.48
  -3   3   2   13.45    0.40
  -3   3   2   13.40    0.34
   3   3  -2   13.54    0.41
  -3   3   2   13.55    0.50
  -2  -3   2   23.97    0.55
  -2  -3   2   23.17    0.54
   2  -3  -2   23.92    0.56
  -2  -3   2   24.02    0.61
   2  -3  -2   23.96    0.63
  -2   3   2   23.84    0.59
  -2   3   2   24.01    0.54
  -2   3   2   22.62    0.63
   2   3  -2   24.20    0.54
  -1  -3   2   16.64    0.48
  -1  -3   2   16.72    0.37
   1  -3  -2   17.30    0.49
   1  -3  -2   17.33    0.50
  -1  -3   2   16.73    0.37
  -1   3   2   17.76    0.49
  -1   3   2   17.75    0.38
   1   3  -2   16.41    0.32
  -1   3   2   17.50    0.37
   0  -3  -2    8.57    0.35
   0  -3   2    8.90    0.20
   0  -3  -2    8.86    0.21
   0  -3  -2    9.05    0.34
   0  -3   2    8.31    0.20
   0   3  -2    7.96    0.38
   0   3   2    8.57    0.20
   0   3   2    8.63    0.20
   0   3  -2    8.50    0.25
   1  -3   2   31.03    0.63
  -1  -3  -2   30.85    0.75
  -1  -3  -2   31.90    0.75
  -1   3  -2   30.56    0.72
  -1   3  -2   30.70    0.82
  -1   3  -2   31.37    0.84
   1   3   2   32.46    0.62
  -1   3  -2   31.81    0.62
  -2  -3  -2   19.63    0.48
  -2  -3  -2   19.07    0.55
   2  -3   2   18.94    0.48
  -2  -3  -2   18.77    0.55
   2  -3   2   18.85    0.50
   2   3   2   19.45    0.47
   2   3   2   19.16    0.49
  -2   3  -2   18.79    0.55
  -2   3  -2   19.06    0.61
  -2   3  -2   18.55    0.57
   3  -3   2   11.06    0.38
  -3  -3  -2   10.66    0.37
  -3  -3  -2   10.67    0.42
   3   3   2   10.68    0.34
  -3   3  -2   11.25    0.45
   3   3   2   11.02    0.37
  -3   3  -2   10.77    0.40
  -3   3  -2   10.48    0.45
   4  -3   2    3.70    0.20
   4  -3   2    3.64    0.26
  -4  -3  -2    3.58    0.25
  -4  -3  -2    3.94    0.29
  -4   3  -2    3.79    0.25
  -4   3  -2    3.80    0.32
   4   3   2    3.65    0.24
  -4   3  -2    3.78    0.30
   5  -3   2    7.32    0.27
  -5  -3  -2    7.34    0.38
   5  -3   2    6.04    0.39
  -5   3  -2    7.56    0.36
  -5   3  -2    7.63    0.45
   5   3   2    6.85    0.38
  -5   3  -2    7.60    0.45
   6  -3   2    1.26    0.25
  -6  -3  -2    1.19    0.19
  -6  -3  -2    1.30    0.22
   6   3   2    1.15    0.23
  -6   3  -2    1.26    0.23
  -6   3  -2    1.12    0.18
  -6   3  -2    0.95    0.26
   7  -3   2    0.18    0.19
  -7  -3  -2    0.32    0.19
  -7  -3  -2    0.43    0.16
  -7   3  -2    0.26    0.18
  -7   3  -2    0.18    0.23
  -8  -3  -2    0.20    0.15
   8  -3   2    0.17    0.22
  -8   3  -2    0.66    0.27
  -8   3  -2    0.60    0.28
  -9  -3  -2    1.54    0.31
  -8  -4   2    0.18    0.16
   8  -4  -2   -0.07    0.21
  -8   4   2   -0.20    0.24
  -8   4   2   -0.10    0.27
   7  -4  -2    2.23    0.34
  -7  -4   2    2.39    0.31
  -7   4   2    2.40    0.39
  -7   4   2    2.47    0.36
   6  -4  -2    1.25    0.21
   6  -4  -2    1.49    0.26
  -6  -4   2    1.32    0.24
  -6   4   2    1.61    0.29
  -6   4   2    1.49    0.31
   5  -4  -2    4.56    0.34
   5  -4  -2    4.34    0.31
  -5  -4   2    4.49    0.33
  -5   4   2    5.34    0.41
  -5   4   2    4.71    0.38
   4  -4  -2    2.75    0.27
   4  -4  -2    3.06    0.24
  -4  -4   2    2.70    0.24
  -4   4   2    1.99    0.26
  -4   4   2    3.16    0.32
  -3  -4   2    6.58    0.35
  -3  -4   2    6.47    0.27
   3  -4  -2    6.94    0.29
  -3  -4   2    6.52    0.27
   3  -4  -2    6.34    0.35
  -3   4   2    7.21    0.39
  -3   4   2    6.75    0.37
  -3   4   2    6.72    0.27
   3   4  -2    6.64    0.26
  -3   4   2    6.81    0.27
  -2  -4   2   19.87    0.46
   2  -4  -2   19.83    0.62
  -2  -4   2   20.38    0.61
  -2   4   2   19.82    0.59
  -2   4   2   19.92    0.45
  -2   4   2   19.66    0.62
  -2   4   2   19.37    0.62
   1  -4  -2   49.94    1.14
  -1  -4   2   48.20    0.88
  -1  -4   2   49.84    0.88
  -1  -4   2   50.76    1.12
  -1   4   2   49.93    1.14
   1   4  -2   49.03    0.91
   0  -4  -2    8.13    0.37
   0  -4  -2    7.37    0.36
   0   4  -2    7.51    0.42
   0   4  -2    7.68    0.26
   1  -4   2    8.92    0.22
  -1  -4  -2    8.70    0.39
  -1  -4  -2    8.91    0.22
  -1  -4  -2    9.13    0.40
  -1   4  -2    8.79    0.33
  -1   4  -2    8.85    0.44
  -1   4  -2    9.20    0.44
   2  -4   2    9.28    0.30
  -2  -4  -2   10.32    0.43
   2  -4   2   10.12    0.39
  -2   4  -2    9.89    0.44
  -2   4  -2    9.40    0.39
   2   4   2    9.25    0.27
  -2   4  -2    9.86    0.47
   3  -4   2    0.28    0.11
   3  -4   2    0.29    0.11
  -3  -4  -2    0.65    0.15
  -3  -4  -2    0.24    0.09
  -3   4  -2    0.50    0.18
  -3   4  -2    0.17    0.14
   3   4   2    0.38    0.10
  -3   4  -2    0.38    0.13
  -4  -4  -2    2.46    0.27
   4  -4   2    2.38    0.22
   4  -4   2    2.18    0.23
  -4   4  -2    2.13    0.29
  -4   4  -2    2.45    0.28
  -4   4  -2    2.14    0.22
  -5  -4  -2    1.00    0.20
   5  -4   2    0.61    0.20
   5  -4   2    1.41    0.18
  -5   4  -2    1.31    0.26
  -5   4  -2    0.96    0.18
  -5   4  -2    1.00    0.26
   6  -4   2    9.13    0.49
  -6  -4  -2    8.83    0.50
  -6   4  -2    9.68    0.58
  -6   4  -2    9.82    0.55
  -7  -4  -2    1.62    0.30
   7  -4   2    1.51    0.29
  -7   4  -2    1.13    0.31
  -7   4  -2    1.82    0.36
   8  -4   2    0.08    0.21
  -8  -4  -2    0.08    0.21
  -8   4  -2    0.26    0.24
  -8   4  -2    0.06    0.19
  -8  -5   2    0.06    0.17
  -7  -5   2    0.39    0.20
   7  -5  -2    0.33    0.21
  -7   5   2    0.72    0.31
  -7   5   2    0.20    0.19
  -6  -5   2   -0.19    0.14
   6  -5  -2   -0.02    0.13
   6  -5  -2   -0.14    0.14
  -6   5   2   -0.19    0.19
  -6   5   2    0.27    0.26
   5  -5  -2    1.60    0.25
  -5  -5   2    2.18    0.30
   5  -5  -2    1.66    0.23
  -5  -5   2    1.44    0.21
  -5   5   2    2.03    0.33
  -5   5   2    1.55    0.28
  -4  -5   2    3.83    0.24
   4  -5  -2    3.46    0.32
  -4  -5   2    3.46    0.33
   4  -5  -2    3.82    0.25
  -4   5   2    3.05    0.30
  -4   5   2    3.47    0.36
  -3  -5   2   12.30    0.52
   3  -5  -2   13.02    0.56
  -3  -5   2   12.66    0.37
  -3   5   2   12.80    0.56
  -3   5   2   13.91    0.57
  -2  -5   2    9.78    0.22
   2  -5  -2    9.57    0.49
  -2  -5   2   11.25    0.49
  -2   5   2   11.12    0.49
  -2   5   2    9.86    0.45
  -2   5   2   10.13    0.50
   1  -5  -2    8.85    0.47
  -1   5   2    9.12    0.40
  -1   5   2    9.32    0.45
   0  -5  -2   12.33    0.55
   0  -5  -2   11.48    0.49
   0   5  -2   11.86    0.60
   0   5   2   10.93    0.49
   0   5  -2   11.09    0.35
  -1  -5  -2   14.88    0.59
  -1  -5  -2   15.72    0.60
  -1   5  -2   15.10    0.49
  -1   5  -2   15.51    0.66
  -1   5  -2   15.86    0.66
  -2  -5  -2    0.25    0.18
   2  -5   2    0.15    0.06
  -2   5  -2    0.15    0.15
  -2   5  -2    0.20    0.14
  -2   5  -2    0.08    0.12
   3  -5   2    0.29    0.10
  -3  -5  -2    0.29    0.14
  -3   5  -2    0.26    0.14
  -3   5  -2    0.20    0.16
  -3   5  -2    0.34    0.20
   4  -5   2   -0.08    0.10
  -4  -5  -2    0.14    0.13
   4  -5   2    0.06    0.12
  -4   5  -2    0.10    0.14
  -4   5  -2    0.29    0.16
  -4   5  -2    0.00    0.17
   5  -5   2    0.26    0.15
  -5  -5  -2    0.22    0.19
  -5   5  -2    0.52    0.23
  -5   5  -2    0.36    0.22
   6  -5   2    1.73    0.27
  -6  -5  -2    1.51    0.31
  -6   5  -2    1.73    0.33
  -6   5  -2    1.90    0.30
   7  -5   2    1.43    0.28
  -7  -5  -2    1.93    0.31
  -7   5  -2    2.00    0.36
  -7   5  -2    1.69    0.32
  -7  -6   2    0.52    0.20
   7  -6  -2    0.89    0.25
   6  -6  -2    0.88    0.20
  -6  -6   2    1.07    0.27
  -6  -6   2    0.36    0.16
  -6   6   2    1.01    0.31
  -6   6   2    0.78    0.27
  -5  -6   2    2.95    0.35
   5  -6  -2    2.68    0.33
  -5   6   2    3.18    0.40
  -5   6   2    2.24    0.35
   4  -6  -2    1.45    0.27
  -4  -6   2    1.57    0.29
  -4   6   2    1.46    0.27
  -4   6   2    1.78    0.30
  -3  -6   2    0.53    0.22
   3  -6  -2    0.74    0.23
  -3   6   2    0.83    0.22
  -3   6   2    0.52    0.20
   2  -6  -2    0.85    0.22
  -2   6   2    0.53    0.19
  -2   6   2    0.65    0.20
   1  -6  -2    4.19    0.39
  -1   6   2    4.08    0.35
   1   6  -2    4.40    0.47
  -1   6   2    4.47    0.30
  -1   6   2    4.21    0.37
   0  -6  -2   -0.02    0.18
   0   6  -2    0.23    0.20
   0   6  -2    0.22    0.21
   0   6   2    0.13    0.17
  -1  -6  -2    0.63    0.22
  -1   6  -2    0.93    0.24
  -1   6  -2    0.94    0.25
  -2  -6  -2    1.14    0.23
  -2   6  -2    1.17    0.24
  -2   6  -2    1.03    0.24
  -3  -6  -2    0.25    0.19
  -3   6  -2    0.36    0.17
  -3   6  -2    0.32    0.19
  -3   6  -2    0.64    0.24
  -4  -6  -2    0.24    0.15
  -4   6  -2    0.08    0.20
  -4   6  -2    0.33    0.19
   5  -6   2   -0.03    0.11
  -5  -6  -2    0.02    0.20
  -5   6  -2   -0.04    0.18
  -5   6  -2    0.36    0.24
  -6  -6  -2   -0.60    0.16
   6  -6   2   -0.17    0.14
  -6   6  -2    0.27    0.24
  -5   7   2    0.05    0.21
   4  -7  -2    0.36    0.24
  -4  -7   2    0.50    0.24
  -4   7   2    0.88    0.24
   3  -7  -2    0.16    0.17
  -3   7   2    0.26    0.19
   2  -7  -2    0.72    0.22
   2   7  -2    0.74    0.31
  -2   7   2    0.43    0.18
   1  -7  -2    0.31    0.18
   1   7  -2    0.96    0.30
   0   7  -2    1.14    0.29
   0   7   2    0.94    0.26
   0   7  -2    1.14    0.30
  -1   7  -2   -0.10    0.17
  -1   7  -2   -0.13    0.13
  -2  -7  -2    1.63    0.29
  -2   7  -2    1.48    0.31
  -3  -7  -2    0.63    0.22
  -3   7  -2    0.37    0.24
  -4   7  -2    0.58    0.25
   0   8  -2    1.66    0.35
 -10   0   3    0.48    0.25
  10   0  -3    0.74    0.35
   9   0  -3    0.45    0.26
  -9   0   3    0.43    0.26
  -9   0   3    0.51    0.23
  -8   0   3    1.44    0.26
  -8   0   3    1.85    0.31
   8   0  -3    1.86    0.34
  -7   0   3    0.05    0.13
  -7   0   3    0.15    0.18
   7   0  -3    0.16    0.15
  -6   0   3    6.01    0.37
   6   0  -3    6.09    0.38
  -6   0   3    6.26    0.40
  -5   0   3    3.28    0.25
  -5   0   3    2.98    0.25
   5   0  -3    3.12    0.25
  -4   0   3    0.04    0.10
  -4   0   3    0.19    0.09
   4   0  -3    0.16    0.11
  -3   0   3  261.23    4.66
   3   0  -3  261.29    4.66
  -3   0   3  263.47    4.69
  -2   0   3   13.55    0.38
   2   0  -3   13.41    0.39
  -2   0   3   13.03    0.36
   2   0  -3   13.35    0.36
  -2   0   3   13.64    0.38
   1   0  -3   17.47    0.38
   1   0  -3   17.14    0.41
   1   0  -3   16.97    0.40
  -1   0   3   15.86    0.40
  -1   0   3   17.46    0.41
  -1   0   3   16.84    0.40
   0   0  -3  186.08    3.47
   0   0  -3  182.48    3.22
   0   0   3  185.17    3.48
   0   0   3  182.95    3.22
   1   0   3  978.97   17.14
   1   0   3  954.53   18.53
  -1   0  -3  971.94   17.15
  -1   0  -3  945.48   18.35
   1   0   3 1000.00   17.05
   1   0   3  932.99   17.63
  -1   0  -3  952.45   17.51
  -1   0  -3  989.81   17.05
   2   0   3    0.04    0.07
  -2   0  -3    0.05    0.06
   2   0   3   -0.11    0.07
  -2   0  -3    0.03    0.07
  -2   0  -3    0.05    0.06
   2   0   3   -0.05    0.05
  -2   0  -3    0.00    0.07
   2   0   3    0.03    0.07
   3   0   3   16.37    0.46
   3   0   3   15.62    0.29
   3   0   3   15.43    0.47
  -3   0  -3   16.68    0.50
  -3   0  -3   15.53    0.45
  -3   0  -3   15.78    0.49
   4   0   3    0.44    0.12
  -4   0  -3    0.33    0.11
   4   0   3    0.42    0.05
  -4   0  -3    0.41    0.11
  -5   0  -3    4.72    0.32
   5   0   3    4.66    0.34
   5   0   3    4.80    0.15
  -5   0  -3    5.21    0.32
  -6   0  -3    1.78    0.25
  -6   0  -3    1.57    0.25
   6   0   3    1.32    0.23
  -7   0  -3    8.47    0.51
   7   0   3    8.23    0.53
  -7   0  -3    7.64    0.51
  -8   0  -3    2.48    0.36
  -8   0  -3    2.87    0.39
   8   0   3    2.12    0.36
   9   0   3    1.27    0.35
  -9   0  -3    1.44    0.36
  -9   0  -3    1.36    0.33
 -10   1   3    1.43    0.36
  10   1  -3    1.37    0.34
  -9  -1   3    1.65    0.31
   9  -1  -3    1.51    0.36
  -9   1   3    1.30    0.29
   9   1  -3    1.03    0.28
  -9   1   3    1.31    0.34
  -8  -1   3    3.58    0.36
   8  -1  -3    3.61    0.39
  -8  -1   3    3.40    0.34
  -8   1   3    2.73    0.38
  -8   1   3    3.65    0.37
   8   1  -3    3.89    0.43
  -7  -1   3    5.44    0.42
   7  -1  -3    4.34    0.42
  -7  -1   3    4.75    0.35
  -7   1   3    4.80    0.37
  -7   1   3    4.73    0.42
   7   1  -3    5.06    0.43
   6  -1  -3    6.54    0.39
   6  -1  -3    5.67    0.26
  -6  -1   3    6.64    0.41
  -6  -1   3    6.07    0.34
  -6   1   3    6.29    0.41
   6   1  -3    6.25    0.42
  -6   1   3    6.66    0.42
  -5  -1   3   40.92    0.99
   5  -1  -3   40.72    0.89
   5  -1  -3   41.40    1.06
  -5  -1   3   39.74    1.03
   5   1  -3   41.40    1.05
  -5   1   3   42.77    1.08
  -5   1   3   42.73    1.05
   4  -1  -3   65.39    1.30
  -4  -1   3   66.44    1.37
   4  -1  -3   66.09    1.42
  -4   1   3   66.07    1.46
   4   1  -3   68.43    1.43
  -4   1   3   64.98    1.40
   3  -1  -3    8.67    0.20
   3  -1  -3    8.88    0.34
  -3  -1   3    9.33    0.25
  -3  -1   3    9.36    0.34
  -3  -1   3    8.85    0.29
  -3   1   3    8.91    0.32
   3   1  -3    8.70    0.32
  -2  -1   3   24.55    0.49
   2  -1  -3   25.42    0.60
   2  -1  -3   25.03    0.57
  -2  -1   3   23.88    0.58
  -2  -1   3   24.16    0.58
  -2   1   3   25.56    0.59
   2   1  -3   23.82    0.58
  -2   1   3   26.09    0.57
  -2   1   3   25.17    0.48
  -2   1   3   26.58    0.60
   1  -1  -3   81.16    1.46
   1  -1  -3   79.25    1.35
   1  -1  -3   80.12    1.53
  -1  -1   3   79.29    1.49
  -1  -1   3   80.75    1.49
   1  -1  -3   82.12    1.49
  -1   1   3   79.62    1.49
   1   1  -3   79.89    1.66
  -1   1   3   79.86    1.35
   1   1  -3   80.16    1.35
  -1   1   3   79.94    1.45
   1   1  -3   81.71    1.48
  -1   1   3   82.35    1.53
  -1   1   3   80.19    1.49
   0  -1  -3  290.35    5.77
   0  -1   3  298.64    5.10
   0  -1  -3  293.99    4.92
   0  -1   3  297.69    5.58
   0  -1   3  291.07    5.25
   0  -1  -3  299.93    5.10
   0   1  -3  296.13    5.09
   0   1   3  294.10    5.74
   0   1   3  304.21    5.11
   0   1  -3  290.01    5.42
   0   1  -3  295.75    5.57
  -1  -1  -3  204.18    3.25
   1  -1   3  197.93    3.78
  -1  -1  -3  196.16    3.57
   1  -1   3  200.43    3.59
   1  -1   3  196.66    3.47
  -1  -1  -3  196.16    3.47
   1   1   3  198.64    3.47
  -1   1  -3  194.02    3.59
   1   1   3  199.52    3.76
  -1   1  -3  197.67    3.77
  -1   1  -3  199.81    3.46
   1   1   3  190.84    3.59
   1   1   3  192.59    3.51
  -1   1  -3  195.14    3.54
  -2  -1  -3   16.48    0.37
  -2  -1  -3   16.54    0.44
  -2  -1  -3   16.73    0.44
  -2  -1  -3   16.67    0.38
   2  -1   3   15.05    0.44
   2  -1   3   15.21    0.44
   2  -1   3   14.74    0.43
   2  -1   3   14.68    0.45
   2   1   3   16.56    0.47
   2   1   3   16.73    0.38
   2   1   3   16.96    0.44
   2   1   3   16.69    0.44
  -2   1  -3   14.97    0.29
  -2   1  -3   15.14    0.45
   2   1   3   16.68    0.37
  -2   1  -3   15.15    0.45
  -2   1  -3   14.38    0.44
  -2   1  -3   14.18    0.42
   3  -1   3   10.37    0.38
   3  -1   3   10.56    0.40
  -3  -1  -3   10.80    0.34
  -3  -1  -3   10.52    0.37
  -3  -1  -3   10.18    0.36
  -3   1  -3   10.76    0.39
   3   1   3   10.84    0.29
  -3   1  -3   10.97    0.38
   3   1   3   10.41    0.38
  -3   1  -3   10.49    0.38
   3   1   3   10.39    0.33
  -4  -1  -3    2.59    0.22
  -4  -1  -3    2.66    0.21
   4  -1   3    2.63    0.24
   4   1   3    2.39    0.23
  -4   1  -3    3.03    0.22
  -4   1  -3    2.24    0.20
  -4   1  -3    2.44    0.23
   4   1   3    2.86    0.15
  -5  -1  -3    5.65    0.32
   5  -1   3    6.09    0.38
  -5  -1  -3    6.43    0.34
   5   1   3    6.39    0.23
  -5   1  -3    5.98    0.33
  -5   1  -3    6.41    0.36
   5   1   3    5.75    0.34
  -5   1  -3    6.20    0.38
   6  -1   3   -0.12    0.17
  -6  -1  -3   -0.06    0.15
  -6  -1  -3    0.00    0.14
  -6   1  -3    0.21    0.14
   6   1   3   -0.13    0.17
  -6   1  -3    0.26    0.18
  -7  -1  -3    8.35    0.49
  -7  -1  -3    8.02    0.50
   7  -1   3    7.89    0.52
  -7   1  -3    7.33    0.50
   7   1   3    7.48    0.47
  -7   1  -3    7.94    0.49
  -8  -1  -3    0.64    0.20
   8  -1   3    0.97    0.29
  -8  -1  -3    0.93    0.27
   8   1   3    1.01    0.26
  -8   1  -3    0.63    0.26
  -8   1  -3    0.99    0.27
   9  -1   3    0.52    0.25
  -9  -1  -3    0.12    0.23
  -9  -1  -3    0.74    0.25
   9   1   3    0.09    0.19
  -9   1  -3    0.07    0.28
  -9   1  -3    0.39    0.23
 -10  -1  -3    0.62    0.27
  10   1   3    0.54    0.26
   9  -2  -3   -0.15    0.27
  -9   2   3    0.33    0.28
   9   2  -3   -0.17    0.17
  -9   2   3   -0.32    0.25
   8  -2  -3    1.18    0.30
  -8  -2   3    0.89    0.20
  -8  -2   3    1.09    0.21
  -8   2   3    0.90    0.26
  -8   2   3    0.75    0.28
   8   2  -3    0.99    0.28
  -7  -2   3    3.90    0.29
  -7  -2   3    3.60    0.27
   7  -2  -3    4.46    0.42
   7   2  -3    3.67    0.38
  -7   2   3    5.22    0.46
  -7   2   3    4.08    0.42
   6  -2  -3   73.18    1.71
  -6  -2   3   75.18    1.50
  -6  -2   3   73.24    1.59
  -6   2   3   74.12    1.78
   6   2  -3   74.66    1.70
  -6   2   3   74.53    1.71
  -5  -2   3   14.25    0.44
   5  -2  -3   14.51    0.56
  -5  -2   3   13.64    0.44
  -5   2   3   13.24    0.55
  -5   2   3   14.04    0.54
   5   2  -3   13.45    0.53
  -4  -2   3    5.95    0.23
   4  -2  -3    6.74    0.33
  -4  -2   3    5.58    0.30
  -4  -2   3    5.94    0.26
  -4   2   3    6.06    0.35
  -4   2   3    5.98    0.32
   4   2  -3    5.71    0.31
  -3  -2   3    7.75    0.23
  -3  -2   3    7.78    0.31
   3  -2  -3    7.75    0.32
  -3  -2   3    7.89    0.28
  -3   2   3    8.00    0.27
   3   2  -3    7.83    0.31
  -3   2   3    8.14    0.31
  -3   2   3    7.72    0.32
   2  -2  -3    3.39    0.19
  -2  -2   3    3.17    0.17
  -2  -2   3    3.09    0.16
  -2  -2   3    2.87    0.17
  -2  -2   3    3.04    0.09
   2  -2  -3    3.39    0.18
  -2   2   3    3.05    0.18
  -2   2   3    3.09    0.17
  -2   2   3    3.44    0.10
   2   2  -3    3.05    0.16
  -2   2   3    3.05    0.10
  -2   2   3    3.27    0.16
   2   2  -3    3.19    0.18
   1  -2  -3  171.19    2.99
   1  -2  -3  166.76    2.84
   1  -2  -3  170.01    3.03
  -1  -2   3  169.68    3.13
  -1  -2   3  167.10    2.98
  -1  -2   3  173.88    2.99
   1  -2  -3  165.16    2.89
  -1   2   3  168.94    2.99
   1   2  -3  170.39    2.84
  -1   2   3  169.58    3.02
  -1   2   3  169.01    2.99
  -1   2   3  170.70    2.84
   0  -2   3   64.22    1.22
   0  -2   3   66.41    1.25
   0  -2  -3   66.06    1.22
   0  -2  -3   65.72    1.25
   0  -2  -3   63.49    1.21
   0   2  -3   66.21    1.21
   0   2  -3   64.99    1.44
   0   2  -3   64.62    1.20
   0   2   3   65.66    1.22
   0   2   3   66.30    1.22
   0   2   3   67.29    1.22
   0   2  -3   65.00    1.25
   1  -2   3   21.06    0.51
   1  -2   3   20.53    0.48
  -1  -2  -3   20.93    0.52
  -1  -2  -3   20.87    0.52
  -1  -2  -3   21.18    0.49
   1  -2   3   20.30    0.59
   1   2   3   20.93    0.51
  -1   2  -3   20.20    0.58
  -1   2  -3   20.33    0.51
  -1   2  -3   21.10    0.48
  -1   2  -3   20.70    0.47
  -1   2  -3   20.54    0.57
   1   2   3   21.62    0.49
  -2  -2  -3   61.36    1.21
  -2  -2  -3   59.72    1.18
  -2  -2  -3   60.92    1.22
   2  -2   3   61.93    1.23
   2  -2   3   61.67    1.37
   2   2   3   62.19    1.22
   2   2   3   61.60    1.26
  -2   2  -3   58.96    1.29
  -2   2  -3   59.87    1.31
   2   2   3   62.27    1.18
  -2   2  -3   61.90    1.35
  -2   2  -3   62.62    1.10
   3  -2   3    5.02    0.26
  -3  -2  -3    5.19    0.26
  -3   2  -3    5.08    0.27
  -3   2  -3    4.74    0.28
   3   2   3    5.01    0.26
  -3   2  -3    4.60    0.28
   3   2   3    5.09    0.22
  -4  -2  -3    3.71    0.24
   4  -2   3    3.08    0.23
  -4   2  -3    4.08    0.30
   4   2   3    3.86    0.26
  -4   2  -3    3.78    0.26
  -4   2  -3    3.69    0.29
  -5  -2  -3    4.89    0.31
  -5  -2  -3    4.90    0.31
   5  -2   3    4.76    0.32
   5   2   3    4.88    0.34
  -5   2  -3    5.35    0.37
  -5   2  -3    5.33    0.36
  -5   2  -3    5.77    0.32
  -6  -2  -3    1.11    0.21
   6  -2   3    1.12    0.25
  -6  -2  -3    1.14    0.22
   6   2   3    0.80    0.22
  -6   2  -3    1.37    0.28
  -6   2  -3    1.16    0.22
  -6   2  -3    1.74    0.23
  -7  -2  -3    0.50    0.19
  -7  -2  -3    0.46    0.20
   7  -2   3    0.50    0.23
   7   2   3    0.44    0.18
  -7   2  -3    0.62    0.26
  -7   2  -3    0.52    0.23
  -8  -2  -3    1.40    0.28
  -8  -2  -3    1.22    0.24
   8  -2   3    1.43    0.32
  -8   2  -3    1.38    0.36
  -8   2  -3    1.12    0.31
   8   2   3    1.30    0.28
  -9  -2  -3    0.30    0.22
   9  -2   3    0.47    0.29
  -9   2  -3    0.32    0.23
  -9   2  -3    0.01    0.27
  -8  -3   3    2.81    0.29
   8  -3  -3    3.69    0.44
  -8   3   3    2.74    0.42
  -8   3   3    2.95    0.38
  -7  -3   3    3.41    0.29
   7  -3  -3    3.97    0.41
   7  -3  -3    3.72    0.28
  -7   3   3    4.27    0.46
  -7   3   3    3.75    0.43
   6  -3  -3    5.17    0.40
  -6  -3   3    4.74    0.31
   6  -3  -3    4.67    0.31
   6   3  -3    4.61    0.36
  -6   3   3    5.79    0.44
  -6   3   3    5.10    0.40
   5  -3  -3   14.96    0.57
   5  -3  -3   14.48    0.50
  -5  -3   3   13.25    0.48
  -5  -3   3   12.73    0.39
  -5   3   3   14.23    0.56
   5   3  -3   13.16    0.52
  -5   3   3   15.28    0.63
  -4  -3   3    2.36    0.20
  -4  -3   3    2.25    0.20
   4  -3  -3    2.51    0.22
   4  -3  -3    2.34    0.22
  -4  -3   3    2.12    0.10
  -4   3   3    2.50    0.27
  -4   3   3    2.38    0.22
  -4   3   3    2.44    0.22
   4   3  -3    2.24    0.20
  -3  -3   3    1.60    0.16
  -3  -3   3    1.83    0.17
  -3  -3   3    1.54    0.17
   3  -3  -3    1.64    0.19
   3  -3  -3    1.65    0.18
  -3   3   3    1.69    0.15
  -3   3   3    1.51    0.08
   3   3  -3    1.69    0.15
  -3   3   3    1.71    0.19
  -2  -3   3   17.14    0.44
  -2  -3   3   16.34    0.48
   2  -3  -3   17.17    0.45
   2  -3  -3   16.44    0.51
  -2  -3   3   17.26    0.44
  -2   3   3   16.50    0.43
  -2   3   3   16.67    0.49
   1  -3  -3   18.66    0.54
   1  -3  -3   18.06    0.50
  -1  -3   3   17.58    0.42
  -1   3   3   18.40    0.49
  -1   3   3   18.47    0.43
   0  -3  -3   31.22    0.73
   0  -3  -3   28.79    0.73
   0  -3   3   29.44    0.61
   0   3  -3   29.33    0.85
   0   3  -3   29.64    0.64
   0   3   3   29.27    0.60
   0   3  -3   29.67    0.59
   0   3   3   30.11    0.68
  -1  -3  -3   78.57    1.51
  -1  -3  -3   71.79    1.44
   1  -3   3   78.23    1.45
  -1  -3  -3   77.23    1.52
   1  -3   3   80.29    1.55
  -1   3  -3   75.75    1.65
   1   3   3   77.95    1.44
  -1   3  -3   77.51    1.73
  -1   3  -3   79.26    1.55
  -2  -3  -3    1.81    0.15
  -2  -3  -3    2.10    0.18
   2  -3   3    2.02    0.16
  -2  -3  -3    1.92    0.18
  -2   3  -3    1.99    0.23
  -2   3  -3    1.95    0.20
   2   3   3    1.90    0.15
  -2   3  -3    2.08    0.19
   2   3   3    2.01    0.15
   2   3   3    2.07    0.15
  -3  -3  -3    6.91    0.30
  -3  -3  -3    6.20    0.33
   3  -3   3    6.55    0.30
  -3   3  -3    6.38    0.35
  -3   3  -3    7.22    0.34
  -3   3  -3    6.19    0.32
   3   3   3    6.51    0.28
  -4  -3  -3    1.20    0.20
   4  -3   3    0.90    0.16
  -4  -3  -3    0.95    0.16
  -4   3  -3    0.86    0.20
  -4   3  -3    1.14    0.19
  -4   3  -3    0.86    0.16
   4   3   3    1.28    0.18
   5  -3   3    0.86    0.20
  -5  -3  -3    1.25    0.21
  -5   3  -3    1.16    0.24
  -5   3  -3    1.40    0.26
  -5   3  -3    0.91    0.17
   5   3   3    1.14    0.20
  -6  -3  -3    0.10    0.14
  -6  -3  -3    0.38    0.19
   6  -3   3   -0.03    0.16
  -6   3  -3    0.02    0.12
   6   3   3    0.05    0.15
  -6   3  -3    0.26    0.15
  -6   3  -3   -0.04    0.20
  -7  -3  -3    1.69    0.26
  -7  -3  -3    1.27    0.24
   7  -3   3    1.17    0.28
  -7   3  -3    1.40    0.30
  -7   3  -3    1.40    0.33
  -8  -3  -3    2.00    0.33
   8  -3   3    1.97    0.34
  -8   3  -3    1.68    0.38
  -8   3  -3    2.11    0.34
  -9  -3  -3    0.35    0.23
  -8  -4   3    0.57    0.20
   8  -4  -3    0.37    0.23
  -8   4   3    0.38    0.23
  -8   4   3    0.30    0.25
  -7  -4   3    0.83    0.20
   7  -4  -3    0.79    0.24
   7  -4  -3    1.00    0.21
  -7   4   3    0.49    0.25
  -7   4   3    1.33    0.34
  -6  -4   3    0.47    0.17
   6  -4  -3   -0.11    0.12
   6  -4  -3    0.06    0.17
  -6   4   3    0.22    0.20
  -6   4   3    0.08    0.22
   5  -4  -3   21.22    0.70
   5  -4  -3   21.86    0.70
  -5  -4   3   21.06    0.67
  -5  -4   3   21.53    0.69
  -5   4   3   21.59    0.79
  -5   4   3   22.23    0.77
  -4  -4   3    8.97    0.37
  -4  -4   3    8.70    0.39
   4  -4  -3    9.22    0.40
   4  -4  -3    8.95    0.44
  -4   4   3    7.58    0.43
  -4   4   3    9.16    0.49
   3  -4  -3   29.33    0.81
  -3  -4   3   29.95    0.79
  -3  -4   3   29.76    0.71
   3  -4  -3   30.63    0.74
  -3  -4   3   29.93    0.71
  -3   4   3   29.91    0.88
  -3   4   3   30.36    0.84
  -3   4   3   30.35    0.71
  -3   4   3   28.50    0.69
  -2  -4   3    0.16    0.10
  -2  -4   3    0.05    0.04
  -2  -4   3    0.06    0.06
   2  -4  -3    0.07    0.13
  -2   4   3    0.21    0.10
  -2   4   3    0.23    0.07
  -2   4   3    0.23    0.11
   1  -4  -3    0.43    0.13
  -1  -4   3    0.58    0.07
   1  -4  -3    0.55    0.13
  -1  -4   3    0.51    0.07
  -1   4   3    0.55    0.07
  -1   4   3    0.67    0.13
   1   4  -3    0.42    0.15
   0  -4   3    1.67    0.09
   0  -4   3    1.64    0.09
   0  -4  -3    1.87    0.20
   0  -4  -3    1.84    0.19
   0   4   3    1.68    0.07
   0   4  -3    1.64    0.22
   0   4   3    1.85    0.19
   0   4   3    1.64    0.07
   0   4  -3    1.64    0.13
  -1  -4  -3   15.70    0.38
  -1  -4  -3   15.33    0.53
  -1  -4  -3   15.03    0.54
   1  -4   3   15.23    0.37
   1   4   3   15.93    0.35
  -1   4  -3   15.49    0.60
  -1   4  -3   15.37    0.47
  -1   4  -3   15.38    0.59
  -2  -4  -3    5.30    0.33
   2  -4   3    5.17    0.23
  -2  -4  -3    5.40    0.34
  -2   4  -3    5.53    0.35
   2   4   3    5.23    0.21
  -2   4  -3    5.47    0.35
  -2   4  -3    5.14    0.29
   3  -4   3    8.01    0.33
  -3  -4  -3    8.07    0.42
  -3   4  -3    7.49    0.45
  -3   4  -3    8.02    0.40
  -3   4  -3    7.97    0.41
   3   4   3    8.34    0.33
   4  -4   3    3.01    0.26
  -4  -4  -3    2.99    0.30
  -4   4  -3    3.08    0.31
  -4   4  -3    2.52    0.26
  -4   4  -3    3.34    0.28
  -5  -4  -3    2.30    0.30
   5  -4   3    1.78    0.26
  -5   4  -3    2.13    0.33
  -5   4  -3    1.55    0.23
  -5   4  -3    2.36    0.30
   6  -4   3    0.52    0.20
  -6  -4  -3    0.41    0.21
  -6   4  -3    0.54    0.27
  -6   4  -3    0.66    0.24
   7  -4   3    0.86    0.25
  -7  -4  -3    1.19    0.28
  -7   4  -3    1.69    0.37
  -7   4  -3    0.96    0.29
   8  -4   3    0.23    0.23
  -8  -4  -3    0.41    0.24
  -8   4  -3    0.44    0.33
   7  -5  -3    0.15    0.18
  -7  -5   3    0.49    0.19
  -7  -5   3   -0.21    0.17
  -7   5   3   -0.17    0.21
  -7   5   3   -0.02    0.28
  -6  -5   3    0.58    0.20
   6  -5  -3    0.90    0.22
   6  -5  -3    0.72    0.21
  -6  -5   3    0.67    0.20
  -6   5   3    0.42    0.27
  -6   5   3    0.74    0.26
   5  -5  -3    0.30    0.15
   5  -5  -3   -0.04    0.15
  -5  -5   3    0.25    0.13
  -5  -5   3   -0.02    0.15
  -5   5   3   -0.06    0.20
  -5   5   3    0.00    0.17
  -4  -5   3    7.10    0.32
   4  -5  -3    7.31    0.43
  -4  -5   3    7.34    0.43
   4  -5  -3    7.29    0.35
  -4   5   3    7.25    0.47
  -4   5   3    6.91    0.44
  -3  -5   3    4.34    0.21
  -3  -5   3    4.26    0.34
   3  -5  -3    4.71    0.37
  -3   5   3    3.97    0.35
  -3   5   3    4.43    0.34
  -2  -5   3   18.60    0.41
   2  -5  -3   18.28    0.66
  -2   5   3   18.00    0.61
  -2   5   3   17.79    0.64
  -2   5   3   19.65    0.66
   1  -5  -3    6.61    0.42
  -1   5   3    6.72    0.38
   0  -5  -3    2.09    0.24
   0  -5  -3    2.18    0.26
   0   5  -3    2.14    0.17
   0   5  -3    2.03    0.30
   0   5   3    2.27    0.23
  -1  -5  -3    8.17    0.44
  -1  -5  -3    8.65    0.48
  -1   5  -3    7.97    0.35
  -1   5  -3    7.95    0.47
  -1   5  -3    8.74    0.48
  -2  -5  -3    7.98    0.45
   2  -5   3    8.23    0.26
  -2   5  -3    8.13    0.50
  -2   5  -3    7.89    0.39
  -2   5  -3    8.49    0.48
  -3  -5  -3    0.35    0.15
   3  -5   3    0.25    0.10
  -3   5  -3    0.07    0.17
  -3   5  -3    0.17    0.15
  -3   5  -3    0.19    0.16
   4  -5   3    0.52    0.14
  -4  -5  -3    1.02    0.22
  -4   5  -3    0.70    0.24
  -4   5  -3    0.72    0.18
  -4   5  -3    1.09    0.24
   5  -5   3    1.12    0.21
  -5  -5  -3    1.43    0.29
  -5   5  -3    1.30    0.26
  -5   5  -3    1.20    0.29
  -6  -5  -3    1.71    0.32
   6  -5   3    1.57    0.25
  -6   5  -3    1.58    0.33
  -6   5  -3    1.30    0.32
   7  -5   3    2.83    0.37
  -7  -5  -3    2.36    0.37
  -7   5  -3    2.55    0.43
  -7  -6   3    0.30    0.20
  -7  -6   3   -0.06    0.17
  -6  -6   3    1.51    0.29
   6  -6  -3    1.69    0.24
  -6  -6   3    1.58    0.24
  -6   6   3    1.77    0.37
  -6   6   3    1.37    0.30
  -5  -6   3    0.73    0.24
   5  -6  -3    0.97    0.26
  -5   6   3    1.04    0.29
  -5   6   3    0.99    0.24
   4  -6  -3    3.63    0.38
  -4  -6   3    4.36    0.39
  -4   6   3    3.52    0.40
  -4   6   3    3.64    0.37
   3  -6  -3    0.62    0.22
  -3   6   3    0.33    0.17
  -3   6   3    0.29    0.18
   2  -6  -3    1.76    0.30
   2   6  -3    1.79    0.35
  -2   6   3    1.95    0.27
  -2   6   3    1.74    0.25
   1  -6  -3    0.27    0.16
   1   6  -3    0.32    0.19
  -1   6   3    0.26    0.15
  -1   6   3    0.38    0.17
   0  -6  -3    9.08    0.54
   0   6   3    8.59    0.44
   0   6  -3    8.33    0.54
  -1  -6  -3    3.98    0.38
  -1  -6  -3    4.53    0.38
  -1   6  -3    4.61    0.44
  -1   6  -3    4.22    0.45
   1   6   3    4.06    0.34
  -2  -6  -3    0.65    0.19
  -2   6  -3    1.03    0.28
  -2   6  -3    0.50    0.20
  -3  -6  -3    1.63    0.30
  -3   6  -3    1.33    0.27
  -3   6  -3    1.63    0.26
  -3   6  -3    1.44    0.27
  -4  -6  -3    0.72    0.21
  -4   6  -3    0.57    0.24
  -4   6  -3    0.95    0.27
   5  -6   3   -0.12    0.12
  -5  -6  -3   -0.10    0.20
  -5   6  -3   -0.33    0.19
  -5   6  -3   -0.10    0.19
   6  -6   3    0.33    0.19
  -6   6  -3    0.48    0.27
   5  -7  -3    0.29    0.23
  -5   7   3    0.24    0.28
   4  -7  -3    0.38    0.24
   3  -7  -3   -0.03    0.20
   3   7  -3   -0.03    0.20
   2  -7  -3    0.34    0.23
   2   7  -3    0.49    0.30
   1  -7  -3   -0.32    0.19
   1   7  -3   -0.03    0.21
   0   7  -3    4.34    0.49
   0   7  -3    4.14    0.47
  -1   7  -3    0.62    0.25
  -1   7  -3    0.57    0.25
  -2  -7  -3    0.50    0.20
  -2   7  -3    0.35    0.23
  -2   7  -3    0.30    0.24
  -3  -7  -3    0.77    0.24
  -3   7  -3    0.80    0.24
  10   0  -4    0.43    0.31
 -10   0   4    1.35    0.31
  -9   0   4    0.57    0.25
  -9   0   4    0.24    0.24
   9   0  -4   -0.05    0.25
   8   0  -4    0.51    0.24
  -8   0   4    0.28    0.21
  -8   0   4    0.30    0.22
  -7   0   4    0.21    0.18
   7   0  -4   -0.03    0.20
  -7   0   4    0.18    0.19
  -6   0   4    0.69    0.17
  -6   0   4    0.72    0.19
   6   0  -4    0.73    0.22
  -5   0   4    6.52    0.34
  -5   0   4    5.87    0.33
   5   0  -4    5.50    0.33
  -4   0   4    0.07    0.11
   4   0  -4   -0.07    0.11
  -4   0   4    0.04    0.10
  -3   0   4    4.27    0.23
   3   0  -4    4.25    0.24
  -3   0   4    4.46    0.23
   2   0  -4   23.67    0.55
  -2   0   4   24.95    0.60
   2   0  -4   23.78    0.59
   2   0  -4   24.45    0.58
  -2   0   4   23.82    0.59
  -1   0   4   40.35    0.86
  -1   0   4   40.47    0.83
  -1   0   4   39.88    0.83
   1   0  -4   38.80    0.85
   1   0  -4   39.13    0.82
   0   0  -4    3.14    0.16
   0   0  -4    3.59    0.17
   0   0   4    3.61    0.17
   0   0   4    3.50    0.18
  -1   0  -4  283.76    5.27
   1   0   4  298.72    5.28
  -1   0  -4  296.17    5.10
   1   0   4  290.22    5.51
   1   0   4  292.96    5.10
  -1   0  -4  296.18    5.51
  -1   0  -4  285.13    5.15
   2   0   4   10.86    0.36
  -2   0  -4   10.58    0.35
   2   0   4   10.66    0.32
   2   0   4   10.64    0.37
  -2   0  -4   10.91    0.23
  -2   0  -4   10.46    0.31
  -2   0  -4   10.79    0.37
   2   0   4   10.32    0.36
  -2   0  -4   10.46    0.36
   3   0   4   67.33    1.37
  -3   0  -4   66.27    1.44
   3   0   4   66.94    1.41
  -3   0  -4   67.82    1.36
  -3   0  -4   67.31    1.49
  -4   0  -4    5.10    0.27
  -4   0  -4    4.21    0.27
  -4   0  -4    4.45    0.27
   4   0   4    4.56    0.30
  -5   0  -4    0.51    0.17
   5   0   4    0.35    0.14
  -5   0  -4    0.65    0.16
   6   0   4   -0.21    0.11
  -6   0  -4    0.04    0.15
  -6   0  -4   -0.24    0.10
  -7   0  -4   48.50    1.36
  -7   0  -4   45.75    1.25
   7   0   4   49.92    1.37
   8   0   4    0.96    0.25
  -8   0  -4    0.78    0.24
  -8   0  -4    0.93    0.24
  -9   0  -4    0.95    0.30
  -9   0  -4    1.29    0.35
   9   0   4    0.94    0.32
  10   1  -4    0.60    0.34
   9  -1  -4    0.29    0.27
  -9  -1   4    0.12    0.18
   9   1  -4    0.32    0.27
  -9   1   4    0.45    0.27
  -9   1   4   -0.07    0.17
   8  -1  -4    2.16    0.32
  -8  -1   4    2.60    0.34
  -8   1   4    1.91    0.33
   8   1  -4    2.42    0.37
  -8   1   4    2.21    0.36
   7  -1  -4    0.08    0.20
  -7  -1   4    0.03    0.14
  -7   1   4    0.12    0.19
  -7   1   4   -0.16    0.17
   7   1  -4    0.06    0.15
  -6  -1   4    3.43    0.28
   6  -1  -4    3.34    0.35
  -6   1   4    3.31    0.34
   6   1  -4    3.03    0.30
  -6   1   4    3.74    0.34
   5  -1  -4   26.36    0.78
  -5  -1   4   25.35    0.70
   5  -1  -4   24.02    0.57
   5   1  -4   24.86    0.76
  -5   1   4   25.63    0.75
  -5   1   4   24.51    0.76
  -4  -1   4    4.01    0.23
   4  -1  -4    4.05    0.15
  -4  -1   4    4.41    0.18
   4  -1  -4    3.57    0.27
   4   1  -4    3.60    0.27
  -4   1   4    3.92    0.26
   3  -1  -4    6.90    0.31
  -3  -1   4    6.86    0.20
  -3  -1   4    7.08    0.29
   3  -1  -4    6.82    0.18
  -3  -1   4    6.79    0.30
   3   1  -4    7.39    0.30
  -3   1   4    7.00    0.27
  -3   1   4    6.50    0.29
   2  -1  -4   47.60    0.94
   2  -1  -4   47.21    0.91
  -2  -1   4   46.04    0.98
  -2  -1   4   46.32    0.82
  -2  -1   4   47.29    0.98
   2  -1  -4   45.57    0.99
   2   1  -4   46.69    0.99
  -2   1   4   46.13    0.98
  -2   1   4   46.33    0.94
   2   1  -4   46.65    0.82
  -2   1   4   46.90    0.82
   2   1  -4   46.21    1.08
  -2   1   4   46.49    0.98
   1  -1  -4    4.39    0.14
  -1  -1   4    3.91    0.19
   1  -1  -4    4.47    0.16
   1  -1  -4    4.18    0.14
   1  -1  -4    4.43    0.20
  -1  -1   4    3.96    0.19
  -1   1   4    4.13    0.19
   1   1  -4    3.96    0.14
  -1   1   4    4.54    0.20
   1   1  -4    4.06    0.19
  -1   1   4    4.37    0.14
  -1   1   4    4.46    0.16
   1   1  -4    4.21    0.21
  -1   1   4    4.37    0.14
   0  -1   4   26.82    0.59
   0  -1   4   26.11    0.67
   0  -1  -4   25.66    0.61
   0  -1  -4   26.04    0.54
   0  -1  -4   27.05    0.60
   0  -1   4   26.89    0.60
   0   1  -4   26.23    0.67
   0   1   4   26.41    0.59
   0   1  -4   27.51    0.59
   0   1   4   27.16    0.62
  -1  -1  -4  120.48    2.06
   1  -1   4  119.96    2.22
  -1  -1  -4  120.98    2.18
   1  -1   4  120.60    2.43
  -1  -1  -4  123.13    2.22
   1  -1   4  121.39    2.29
  -1  -1  -4  120.72    2.40
   1   1   4  117.88    2.30
   1   1   4  129.86    2.24
  -1   1  -4  121.43    2.42
  -1   1  -4  121.52    2.22
   1   1   4  122.54    2.40
  -1   1  -4  118.24    2.29
   1   1   4  119.12    2.12
  -1   1  -4  122.07    2.27
   2  -1   4    6.41    0.27
   2  -1   4    6.69    0.27
   2  -1   4    6.33    0.28
  -2  -1  -4    6.85    0.22
  -2  -1  -4    6.84    0.28
  -2  -1  -4    6.76    0.29
  -2  -1  -4    6.78    0.21
  -2   1  -4    6.47    0.27
   2   1   4    7.06    0.22
  -2   1  -4    6.46    0.15
   2   1   4    6.93    0.28
  -2   1  -4    6.32    0.29
  -2   1  -4    6.75    0.28
   2   1   4    6.82    0.28
  -3  -1  -4   34.57    0.86
   3  -1   4   35.15    0.85
  -3  -1  -4   34.30    0.77
  -3  -1  -4   35.09    0.84
   3   1   4   34.64    0.77
   3   1   4   33.19    0.68
  -3   1  -4   36.86    0.90
   3   1   4   33.77    0.84
  -3   1  -4   37.23    0.86
  -3   1  -4   35.53    0.89
   4  -1   4    9.56    0.42
  -4  -1  -4    9.37    0.36
  -4  -1  -4    9.38    0.39
   4   1   4    9.26    0.27
  -4   1  -4    9.56    0.40
   4   1   4    8.76    0.39
  -4   1  -4   10.29    0.42
  -4   1  -4    9.02    0.42
  -5  -1  -4    9.38    0.45
  -5  -1  -4    9.29    0.41
   5  -1   4    9.62    0.47
   5   1   4   10.10    0.48
  -5   1  -4   10.43    0.46
  -5   1  -4   10.36    0.49
   5   1   4    9.83    0.29
  -5   1  -4    9.88    0.45
  -6  -1  -4    2.24    0.28
  -6  -1  -4    2.30    0.30
   6  -1   4    2.38    0.32
  -6   1  -4    2.45    0.30
   6   1   4    2.14    0.31
  -6   1  -4    2.90    0.34
  -7  -1  -4    0.40    0.18
   7  -1   4    0.37    0.19
  -7  -1  -4    0.49    0.23
  -7   1  -4    0.58    0.23
  -7   1  -4    0.52    0.21
   7   1   4    0.65    0.21
   8  -1   4    1.92    0.35
  -8  -1  -4    2.03    0.35
  -8  -1  -4    2.71    0.35
   8   1   4    2.55    0.39
  -8   1  -4    2.43    0.33
  -8   1  -4    3.17    0.39
  -9  -1  -4    1.12    0.32
  -9  -1  -4    0.93    0.25
   9  -1   4    1.37    0.35
  -9   1  -4    1.23    0.33
  -9   1  -4    1.41    0.38
   9   1   4    1.02    0.33
  10   1   4    0.74    0.34
   9  -2  -4    2.82    0.44
  -9   2   4    2.98    0.46
  -9   2   4    2.51    0.41
   9   2  -4    2.47    0.43
   8  -2  -4    4.78    0.48
  -8  -2   4    4.43    0.36
   8   2  -4    5.26    0.48
  -8   2   4    5.76    0.53
  -8   2   4    4.55    0.49
  -7  -2   4    2.52    0.25
   7  -2  -4    2.07    0.32
  -7  -2   4    1.84    0.20
   7   2  -4    1.68    0.26
  -7   2   4    1.98    0.28
  -7   2   4    2.34    0.36
   6  -2  -4    4.92    0.40
  -6  -2   4    4.21    0.28
  -6  -2   4    3.73    0.25
   6   2  -4    3.75    0.36
  -6   2   4    4.37    0.36
  -6   2   4    4.44    0.39
   5  -2  -4   13.92    0.56
  -5  -2   4   13.27    0.43
  -5  -2   4   13.35    0.42
   5   2  -4   12.58    0.52
  -5   2   4   14.12    0.59
  -5   2   4   13.79    0.53
  -4  -2   4    3.87    0.29
   4  -2  -4    3.71    0.25
  -4  -2   4    3.76    0.19
  -4  -2   4    3.82    0.20
   4   2  -4    3.53    0.24
  -4   2   4    3.97    0.26
  -4   2   4    3.66    0.26
  -3  -2   4   15.94    0.42
   3  -2  -4   15.92    0.49
  -3  -2   4   16.26    0.48
  -3  -2   4   15.36    0.38
  -3  -2   4   16.78    0.49
   3   2  -4   16.50    0.49
  -3   2   4   15.96    0.47
  -3   2   4   15.62    0.41
  -3   2   4   16.12    0.48
  -2  -2   4    1.25    0.11
   2  -2  -4    1.36    0.12
  -2  -2   4    1.31    0.14
  -2  -2   4    1.33    0.14
   2  -2  -4    1.16    0.14
  -2   2   4    1.44    0.11
  -2   2   4    1.36    0.07
  -2   2   4    1.29    0.13
  -2   2   4    1.35    0.14
   2   2  -4    1.31    0.12
   1  -2  -4   42.16    0.85
  -1  -2   4   41.68    0.88
   1  -2  -4   44.03    0.89
   1  -2  -4   42.30    0.84
  -1  -2   4   42.46    0.83
  -1  -2   4   43.38    0.88
   1   2  -4   42.89    0.84
  -1   2   4   41.13    0.91
   1   2  -4   41.89    0.86
  -1   2   4   43.14    0.88
  -1   2   4   43.02    0.89
  -1   2   4   42.31    0.83
   1   2  -4   41.57    1.06
  -1   2   4   42.65    0.84
   0  -2   4   46.46    0.94
   0  -2   4   46.72    0.94
   0  -2  -4   46.55    0.96
   0  -2  -4   47.06    0.94
   0  -2  -4   46.20    0.93
   0   2   4   46.98    0.94
   0   2  -4   46.38    0.95
   0   2   4   46.85    0.86
   0   2  -4   46.67    0.93
   0   2  -4   45.82    1.12
   0   2   4   46.57    0.92
   0   2   4   47.22    1.02
   1  -2   4   59.15    1.16
  -1  -2  -4   56.60    1.14
  -1  -2  -4   58.01    1.16
  -1  -2  -4   57.86    1.14
   1  -2   4   60.72    1.21
   1   2   4   57.69    1.34
   1   2   4   57.44    1.06
  -1   2  -4   57.63    1.21
  -1   2  -4   59.60    1.08
   1   2   4   58.78    1.16
  -1   2  -4   58.34    1.33
  -2  -2  -4    7.49    0.30
  -2  -2  -4    7.96    0.30
  -2  -2  -4    7.71    0.30
   2  -2   4    7.44    0.30
   2   2   4    7.86    0.24
  -2   2  -4    7.75    0.33
  -2   2  -4    7.87    0.23
  -2   2  -4    8.20    0.35
  -2   2  -4    7.84    0.34
   2   2   4    7.77    0.30
  -3  -2  -4    5.31    0.24
   3  -2   4    4.54    0.25
  -3  -2  -4    5.16    0.27
  -3   2  -4    5.03    0.29
   3   2   4    4.86    0.22
  -3   2  -4    4.93    0.29
   3   2   4    5.00    0.27
  -3   2  -4    5.10    0.30
  -4  -2  -4    3.03    0.24
   4  -2   4    3.16    0.26
  -4  -2  -4    2.68    0.20
  -4   2  -4    3.46    0.29
   4   2   4    2.62    0.24
  -4   2  -4    3.22    0.28
  -4   2  -4    3.55    0.27
  -5  -2  -4    8.17    0.37
   5  -2   4    8.55    0.45
  -5  -2  -4    6.82    0.38
  -5   2  -4    8.92    0.47
  -5   2  -4    8.17    0.41
  -5   2  -4    8.23    0.45
   5   2   4    7.39    0.39
   6  -2   4    0.41    0.21
  -6  -2  -4    0.62    0.17
  -6  -2  -4    0.42    0.19
  -6   2  -4    0.53    0.18
   6   2   4    0.15    0.18
  -6   2  -4    0.49    0.16
  -6   2  -4    0.68    0.24
   7  -2   4    0.57    0.23
  -7  -2  -4    0.26    0.19
  -7  -2  -4    0.29    0.18
   7   2   4    0.41    0.22
  -7   2  -4    0.42    0.25
  -7   2  -4    0.36    0.18
  -8  -2  -4    1.67    0.29
   8  -2   4    1.78    0.32
  -8  -2  -4    2.02    0.35
  -8   2  -4    1.65    0.30
   8   2   4    1.39    0.31
  -8   2  -4    1.80    0.37
   9  -2   4    0.25    0.28
  -9  -2  -4    0.08    0.21
  -9   2  -4    0.09    0.29
  -9   2  -4    0.41    0.33
   8  -3  -4    1.27    0.29
  -8   3   4    0.89    0.29
  -8   3   4    1.34    0.31
   7  -3  -4   12.14    0.60
  -7  -3   4   12.75    0.51
  -7   3   4   13.72    0.71
  -7   3   4   12.69    0.65
   6  -3  -4    0.00    0.17
  -6  -3   4    0.33    0.15
  -6   3   4    0.38    0.20
  -6   3   4    0.31    0.17
   6   3  -4    0.39    0.19
  -6   3   4    0.33    0.18
   5  -3  -4   94.01    1.97
  -5  -3   4   90.85    1.77
  -5  -3   4   95.29    1.94
  -5  -3   4   91.97    1.75
  -5   3   4   88.78    1.91
   5   3  -4   93.01    1.93
  -5   3   4   88.06    1.95
  -5   3   4   87.68    2.06
   4  -3  -4    2.37    0.23
   4  -3  -4    1.97    0.19
  -4  -3   4    1.89    0.19
  -4  -3   4    1.87    0.21
  -4  -3   4    2.06    0.20
  -4  -3   4    1.91    0.10
  -4   3   4    2.03    0.20
   4   3  -4    1.89    0.21
  -4   3   4    2.15    0.24
  -4   3   4    2.31    0.25
  -3  -3   4    5.82    0.27
   3  -3  -4    5.44    0.30
  -3  -3   4    5.32    0.26
  -3  -3   4    5.58    0.27
   3  -3  -4    5.70    0.29
  -3   3   4    5.56    0.27
  -3   3   4    5.81    0.29
   3   3  -4    6.24    0.27
  -2  -3   4    6.30    0.28
  -2  -3   4    6.67    0.26
   2  -3  -4    6.10    0.31
  -2  -3   4    6.48    0.26
  -2   3   4    6.64    0.26
  -2   3   4    6.59    0.28
   1  -3  -4   76.85    1.46
   1  -3  -4   76.43    1.44
  -1  -3   4   75.07    1.43
   1  -3  -4   74.64    1.50
  -1  -3   4   75.03    1.43
  -1   3   4   75.49    1.46
   1   3  -4   72.78    1.75
  -1   3   4   74.48    1.43
   0  -3  -4   26.42    0.59
   0  -3   4   26.58    0.59
   0  -3  -4   25.62    0.68
   0  -3   4   26.65    0.59
   0  -3  -4   25.94    0.66
   0   3  -4   26.68    0.60
   0   3   4   27.09    0.59
   0   3  -4   25.88    0.79
   0   3   4   26.29    0.59
  -1  -3  -4   30.35    0.67
  -1  -3  -4   28.23    0.74
  -1  -3  -4   29.73    0.74
   1  -3   4   29.75    0.67
   1  -3   4   29.37    0.71
  -1   3  -4   29.15    0.71
   1   3   4   30.16    0.66
  -1   3  -4   30.52    0.86
  -2  -3  -4    8.84    0.32
  -2  -3  -4    8.83    0.37
  -2  -3  -4    8.61    0.36
   2  -3   4    8.97    0.33
  -2   3  -4    9.15    0.43
   2   3   4    9.00    0.29
  -2   3  -4    9.46    0.42
  -2   3  -4    8.86    0.37
   2   3   4    8.95    0.32
  -3  -3  -4    1.44    0.19
  -3  -3  -4    1.18    0.15
  -3  -3  -4    1.19    0.18
   3  -3   4    1.50    0.19
   3   3   4    1.34    0.17
  -3   3  -4    1.53    0.20
  -3   3  -4    1.23    0.12
  -3   3  -4    1.26    0.20
  -3   3  -4    1.50    0.18
  -4  -3  -4    2.30    0.26
   4  -3   4    2.81    0.25
  -4  -3  -4    2.56    0.22
  -4   3  -4    2.97    0.27
  -4   3  -4    2.76    0.27
   4   3   4    2.45    0.23
  -4   3  -4    3.25    0.32
   5  -3   4    0.07    0.16
  -5  -3  -4    0.12    0.12
   5   3   4   -0.01    0.14
  -5   3  -4   -0.08    0.13
  -5   3  -4    0.11    0.16
  -5   3  -4   -0.16    0.17
   6  -3   4    3.00    0.34
  -6  -3  -4    3.90    0.35
   6   3   4    3.34    0.33
  -6   3  -4    3.39    0.40
  -6   3  -4    3.36    0.31
  -6   3  -4    4.17    0.41
  -7  -3  -4    1.96    0.28
   7  -3   4    1.30    0.28
  -7  -3  -4    1.10    0.26
  -7   3  -4    1.77    0.36
  -7   3  -4    1.15    0.30
   8  -3   4   -0.14    0.21
  -8  -3  -4    0.04    0.19
  -8   3  -4    0.55    0.28
  -8   3  -4    0.33    0.30
   8  -4  -4    0.11    0.20
  -8  -4   4    0.17    0.23
  -8   4   4   -0.60    0.21
  -8   4   4    0.07    0.28
   7  -4  -4    3.87    0.36
  -7  -4   4    3.06    0.29
   7  -4  -4    4.05    0.40
  -7  -4   4    3.97    0.39
  -7   4   4    3.37    0.40
  -7   4   4    3.49    0.43
  -6  -4   4    2.90    0.28
   6  -4  -4    3.13    0.35
   6  -4  -4    3.21    0.31
  -6  -4   4    3.08    0.33
  -6   4   4    3.05    0.37
  -6   4   4    3.22    0.41
   5  -4  -4    8.60    0.45
   5  -4  -4    8.40    0.44
  -5  -4   4    8.77    0.41
  -5  -4   4    8.89    0.44
  -5   4   4    8.72    0.53
  -5   4   4    9.33    0.49
   4  -4  -4   18.70    0.65
  -4  -4   4   19.57    0.62
  -4  -4   4   19.18    0.59
   4  -4  -4   19.93    0.62
  -4   4   4   18.22    0.65
  -4   4   4   20.66    0.75
   3  -4  -4   19.62    0.65
  -3  -4   4   20.04    0.55
  -3  -4   4   20.13    0.61
  -3   4   4   18.80    0.47
  -3   4   4   19.22    0.61
  -3   4   4   19.92    0.58
  -2  -4   4    5.55    0.24
   2  -4  -4    6.22    0.34
  -2   4   4    6.22    0.24
  -2   4   4    6.20    0.30
   1  -4  -4    7.53    0.39
  -1  -4   4    7.47    0.25
   1  -4  -4    7.96    0.37
  -1  -4   4    7.23    0.24
  -1   4   4    7.86    0.25
   1   4  -4    7.11    0.46
  -1   4   4    7.52    0.32
   0  -4  -4    1.44    0.20
   0  -4   4    0.97    0.10
   0  -4   4    1.08    0.11
   0  -4  -4    1.10    0.18
   0  -4  -4    0.98    0.10
   0   4  -4    1.14    0.22
   0   4   4    1.08    0.14
   0   4  -4    0.96    0.12
   0   4   4    1.13    0.10
  -1  -4  -4    8.68    0.41
   1  -4   4    7.77    0.27
  -1  -4  -4    8.06    0.39
   1   4   4    7.84    0.25
  -1   4  -4    7.81    0.42
  -1   4  -4    8.33    0.45
  -1   4  -4    7.81    0.32
  -2  -4  -4   18.61    0.63
  -2  -4  -4   21.00    0.66
   2  -4   4   20.63    0.54
  -2  -4  -4   19.84    0.53
  -2   4  -4   19.90    0.72
  -2   4  -4   19.82    0.62
   2   4   4   20.00    0.52
  -2   4  -4   20.53    0.71
   3  -4   4    2.92    0.22
  -3  -4  -4    2.38    0.27
  -3   4  -4    2.58    0.28
  -3   4  -4    2.22    0.29
  -3   4  -4    2.82    0.29
  -4  -4  -4    0.18    0.17
   4  -4   4    0.19    0.14
  -4   4  -4    0.02    0.17
  -4   4  -4    0.21    0.15
  -4   4  -4    0.27    0.18
   5  -4   4    0.97    0.21
  -5  -4  -4    1.15    0.25
  -5   4  -4    1.09    0.21
  -5   4  -4    1.03    0.23
  -5   4  -4    0.99    0.23
  -6  -4  -4    1.28    0.27
   6  -4   4    0.81    0.23
  -6   4  -4    1.00    0.30
  -6   4  -4    1.31    0.29
   7  -4   4    0.62    0.23
  -7  -4  -4    0.69    0.26
  -7   4  -4    0.65    0.31
  -7   4  -4    0.51    0.25
  -8  -4  -4    0.26    0.24
  -7  -5   4    0.88    0.22
   7  -5  -4    0.76    0.24
  -7  -5   4    0.68    0.23
  -7   5   4    0.68    0.27
  -7   5   4    0.45    0.26
   6  -5  -4    0.64    0.21
   6  -5  -4    0.25    0.16
  -6  -5   4    0.46    0.17
  -6  -5   4    0.67    0.20
  -6   5   4   -0.04    0.20
  -6   5   4    0.75    0.25
  -5  -5   4    1.21    0.19
  -5  -5   4    1.19    0.22
   5  -5  -4    1.50    0.26
   5  -5  -4    1.65    0.23
  -5   5   4    1.26    0.25
  -5   5   4    1.13    0.30
  -4  -5   4    5.42    0.37
   4  -5  -4    5.65    0.41
  -4  -5   4    5.44    0.30
  -4   5   4    5.67    0.44
  -4   5   4    4.83    0.37
  -3  -5   4    3.48    0.21
   3  -5  -4    3.53    0.31
  -3  -5   4    2.85    0.30
  -3   5   4    3.24    0.34
  -3   5   4    2.84    0.29
   2  -5  -4    1.76    0.27
  -2  -5   4    2.15    0.14
   2   5  -4    1.73    0.29
  -2   5   4    2.53    0.24
   1  -5  -4    0.12    0.17
  -1  -5   4   -0.02    0.04
   1   5  -4   -0.17    0.18
  -1   5   4    0.06    0.10
   0  -5   4    0.79    0.05
   0  -5  -4    0.64    0.19
   0  -5  -4    0.83    0.23
   0  -5   4    0.74    0.05
   0   5  -4    0.57    0.23
   0   5   4    0.88    0.16
   1  -5   4    5.67    0.19
  -1  -5  -4    5.72    0.39
  -1  -5  -4    5.99    0.39
  -1   5  -4    6.56    0.46
  -1   5  -4    5.81    0.29
  -1   5  -4    4.95    0.43
  -2  -5  -4    8.48    0.47
  -2  -5  -4    8.74    0.46
   2  -5   4    8.26    0.29
  -2   5  -4    9.13    0.42
  -2   5  -4    8.48    0.49
  -2   5  -4    8.75    0.51
   3  -5   4    2.26    0.20
  -3  -5  -4    2.16    0.26
  -3   5  -4    2.27    0.31
  -3   5  -4    2.13    0.29
  -3   5  -4    2.63    0.28
  -4  -5  -4    0.61    0.22
   4  -5   4    0.38    0.15
  -4   5  -4    0.51    0.18
  -4   5  -4    0.81    0.23
  -4   5  -4    0.51    0.22
  -5  -5  -4   -0.01    0.12
   5  -5   4   -0.16    0.13
  -5   5  -4    0.08    0.22
  -5   5  -4   -0.01    0.20
  -6  -5  -4    2.11    0.33
   6  -5   4    2.53    0.32
  -6   5  -4    1.58    0.30
  -6   5  -4    2.39    0.39
  -7  -5  -4    0.08    0.22
   7  -5   4    0.32    0.23
  -7   5  -4    0.36    0.30
  -7  -6   4    0.17    0.18
  -6  -6   4    1.51    0.29
  -6  -6   4    1.37    0.22
   6  -6  -4    1.60    0.30
  -6   6   4    1.75    0.39
  -6   6   4    1.26    0.29
   5  -6  -4    0.47    0.21
  -5  -6   4    0.51    0.21
  -5   6   4    0.62    0.21
  -5   6   4    0.70    0.29
   4  -6  -4    0.96    0.26
  -4  -6   4    1.17    0.23
  -4   6   4    1.13    0.28
  -4   6   4    1.16    0.25
   3  -6  -4    0.12    0.20
  -3   6   4   -0.06    0.16
  -3   6   4    0.25    0.16
   3   6  -4    0.10    0.24
   2  -6  -4    0.37    0.17
  -2   6   4    0.67    0.18
  -2   6   4    0.85    0.22
   2   6  -4    0.68    0.28
   1  -6  -4    2.80    0.36
   1   6  -4    1.82    0.34
  -1   6   4    2.70    0.28
   0  -6  -4    2.64    0.34
   0  -6  -4    2.22    0.35
   0   6  -4    2.67    0.38
  -1  -6  -4    2.26    0.33
  -1  -6  -4    2.13    0.33
  -1   6  -4    1.68    0.31
  -1   6  -4    1.72    0.32
  -2  -6  -4    0.62    0.19
  -2   6  -4    0.46    0.21
  -2   6  -4    0.48    0.24
  -3  -6  -4    0.69    0.21
  -3   6  -4    0.84    0.22
  -3   6  -4    0.73    0.27
  -4  -6  -4    1.44    0.30
  -4   6  -4    0.91    0.25
  -4   6  -4    1.04    0.26
  -5  -6  -4   -0.07    0.14
   5  -6   4   -0.02    0.13
  -5   6  -4    0.07    0.21
  -5   6  -4    0.24    0.25
   6  -6   4    0.84    0.22
  -6   6  -4    0.91    0.30
  -5   7   4    0.53    0.28
   4  -7  -4   -0.09    0.19
   3  -7  -4    0.55    0.25
   3   7  -4   -0.18    0.27
   2  -7  -4    0.00    0.21
   2   7  -4   -0.20    0.16
   1  -7  -4    0.01    0.22
   1   7  -4    0.35    0.25
   0  -7  -4    2.05    0.34
   0   7  -4    2.72    0.39
   0   7  -4    2.32    0.39
  -1  -7  -4    0.87    0.28
  -1   7  -4    1.28    0.28
  -1   7  -4    0.89    0.28
  -2  -7  -4    0.69    0.26
  -2   7  -4    0.00    0.18
  -2   7  -4    0.05    0.23
  -3   7  -4    0.87    0.30
 -10   0   5    0.15    0.22
   9   0  -5    0.52    0.27
  -9   0   5    0.44    0.23
  -9   0   5    0.42    0.26
  -8   0   5   -0.10    0.20
  -8   0   5    0.46    0.21
   8   0  -5    0.19    0.23
  -7   0   5    1.21    0.22
  -7   0   5    1.19    0.25
   7   0  -5    1.62    0.30
  -6   0   5    3.79    0.29
  -6   0   5    3.94    0.35
   6   0  -5    3.83    0.33
  -5   0   5   14.57    0.55
  -5   0   5   15.45    0.54
   5   0  -5   16.22    0.58
  -5   0   5   15.20    0.54
  -4   0   5   27.96    0.77
  -4   0   5   27.68    0.74
   4   0  -5   27.71    0.77
   3   0  -5  108.13    2.13
   3   0  -5  104.51    2.07
  -3   0   5  106.07    1.69
  -3   0   5  103.97    2.06
   2   0  -5   19.86    0.49
  -2   0   5   18.48    0.52
   2   0  -5   19.69    0.51
  -2   0   5   19.19    0.52
   2   0  -5   19.55    0.53
  -1   0   5    0.58    0.09
   1   0  -5    0.51    0.10
  -1   0   5    0.65    0.10
   1   0  -5    0.71    0.10
   0   0  -5   13.54    0.40
   0   0   5   13.32    0.40
   0   0  -5   12.77    0.38
   0   0   5   13.06    0.39
  -1   0  -5   12.94    0.34
   1   0   5   13.64    0.41
  -1   0  -5   13.15    0.42
  -1   0  -5   13.38    0.40
   1   0   5   13.68    0.41
   1   0   5   13.23    0.41
  -2   0  -5    0.04    0.07
   2   0   5    0.25    0.08
   2   0   5   -0.06    0.07
  -2   0  -5    0.04    0.06
  -2   0  -5    0.10    0.10
   3   0   5   30.06    0.78
  -3   0  -5   29.38    0.71
  -3   0  -5   29.20    0.80
  -3   0  -5   29.08    0.78
  -4   0  -5    5.49    0.34
  -4   0  -5    5.67    0.29
   4   0   5    5.40    0.31
  -4   0  -5    5.55    0.32
  -5   0  -5    0.37    0.17
  -5   0  -5    0.60    0.16
   5   0   5    0.37    0.14
  -6   0  -5    3.70    0.38
   6   0   5    3.01    0.37
  -6   0  -5    2.90    0.28
  -7   0  -5    0.26    0.20
  -7   0  -5    0.46    0.25
   7   0   5    0.22    0.17
  -8   0  -5   10.09    0.64
   8   0   5    9.94    0.64
  -8   0  -5    7.94    0.56
  -9   0  -5    2.09    0.37
   9   0   5    1.85    0.34
  -9   0  -5    2.69    0.44
  10   1  -5    1.19    0.36
 -10   1   5    0.92    0.32
  -9  -1   5    3.83    0.39
   9  -1  -5    3.95    0.51
  -9   1   5    2.93    0.43
  -9   1   5    3.10    0.42
   9   1  -5    3.89    0.49
  -8  -1   5   -0.17    0.17
   8  -1  -5    0.10    0.18
  -8   1   5   -0.20    0.19
   8   1  -5    0.02    0.22
  -8   1   5   -0.10    0.19
  -7  -1   5    7.32    0.41
   7  -1  -5    6.33    0.45
  -7   1   5    6.42    0.42
  -7   1   5    6.18    0.46
   7   1  -5    6.12    0.47
  -6  -1   5    0.13    0.13
   6  -1  -5   -0.07    0.16
  -6  -1   5   -0.02    0.08
   6   1  -5    0.17    0.19
  -6   1   5    0.05    0.17
  -6   1   5   -0.12    0.16
  -5  -1   5    7.39    0.35
   5  -1  -5    7.50    0.23
   5  -1  -5    7.40    0.40
  -5  -1   5    7.19    0.38
  -5  -1   5    7.38    0.25
   5  -1  -5    7.65    0.26
  -5   1   5    7.79    0.40
   5   1  -5    7.39    0.42
  -5   1   5    8.14    0.41
  -5   1   5    7.89    0.41
  -4  -1   5   10.21    0.27
   4  -1  -5   10.13    0.27
  -4  -1   5    9.60    0.40
   4  -1  -5    9.72    0.41
  -4   1   5   10.06    0.40
  -4   1   5   10.36    0.43
   4   1  -5    9.74    0.42
  -3  -1   5   60.57    1.04
  -3  -1   5   61.10    1.36
   3  -1  -5   58.09    1.29
  -3  -1   5   57.78    1.27
   3  -1  -5   61.61    1.18
   3   1  -5   60.28    1.29
  -3   1   5   59.37    1.24
   3   1  -5   59.83    1.38
  -3   1   5   60.15    1.04
  -3   1   5   62.33    1.29
  -2  -1   5   19.18    0.51
   2  -1  -5   18.60    0.46
   2  -1  -5   18.45    0.43
  -2  -1   5   18.61    0.52
   2  -1  -5   18.39    0.51
  -2   1   5   18.40    0.45
  -2   1   5   18.83    0.44
  -2   1   5   18.60    0.52
  -2   1   5   18.52    0.37
   2   1  -5   18.39    0.37
   2   1  -5   18.32    0.56
   1  -1  -5   54.44    1.10
  -1  -1   5   51.71    1.21
  -1  -1   5   52.98    1.10
   1  -1  -5   54.69    1.11
   1  -1  -5   53.29    1.00
   1  -1  -5   53.80    0.95
  -1   1   5   55.65    1.12
  -1   1   5   53.80    1.10
  -1   1   5   54.75    1.11
   1   1  -5   52.24    1.21
   1   1  -5   54.63    1.10
   0  -1  -5   11.78    0.35
   0  -1   5   10.94    0.35
   0  -1   5   11.45    0.40
   0  -1  -5   10.92    0.35
   0  -1   5   11.51    0.34
   0  -1  -5   11.46    0.21
   0   1  -5   11.03    0.34
   0   1  -5   11.12    0.39
   0   1   5   11.49    0.36
   0   1   5   11.35    0.35
  -1  -1  -5   90.30    1.87
  -1  -1  -5   94.33    1.75
  -1  -1  -5   93.37    1.61
   1  -1   5   89.58    1.75
   1  -1   5   88.24    1.79
  -1  -1  -5   90.92    1.64
   1   1   5   92.04    1.75
  -1   1  -5   89.94    1.77
  -1   1  -5   89.33    1.80
  -1   1  -5   89.98    1.90
   1   1   5   93.46    1.88
  -2  -1  -5   40.81    1.01
   2  -1   5   40.84    0.94
  -2  -1  -5   42.09    0.82
  -2  -1  -5   41.81    0.94
  -2  -1  -5   41.80    0.83
  -2   1  -5   41.52    0.95
   2   1   5   41.76    0.95
   2   1   5   41.97    0.84
  -2   1  -5   42.21    1.02
  -2   1  -5   42.93    0.98
  -3  -1  -5   19.71    0.44
  -3  -1  -5   19.85    0.50
   3  -1   5   17.96    0.58
  -3  -1  -5   19.71    0.60
  -3   1  -5   18.46    0.59
  -3   1  -5   18.07    0.59
   3   1   5   18.67    0.57
   3   1   5   20.06    0.50
  -3   1  -5   19.34    0.57
  -4  -1  -5   13.06    0.51
   4  -1   5   13.77    0.52
  -4  -1  -5   13.36    0.43
   4   1   5   12.92    0.51
  -4   1  -5   14.23    0.54
  -4   1  -5   13.71    0.50
  -4   1  -5   13.55    0.52
   5  -1   5    7.36    0.44
  -5  -1  -5    7.90    0.43
  -5  -1  -5    7.38    0.36
  -5   1  -5    8.04    0.40
   5   1   5    7.40    0.24
  -5   1  -5    7.61    0.42
   5   1   5    7.52    0.44
  -5   1  -5    7.90    0.42
  -6  -1  -5    2.48    0.28
   6  -1   5    2.00    0.31
  -6  -1  -5    2.68    0.28
  -6   1  -5    2.22    0.31
   6   1   5    2.46    0.33
  -6   1  -5    1.98    0.26
  -6   1  -5    2.12    0.32
  -7  -1  -5    8.90    0.55
  -7  -1  -5    8.19    0.48
   7  -1   5    8.16    0.56
   7   1   5    8.86    0.57
  -7   1  -5    8.15    0.52
  -7   1  -5    7.23    0.47
   8  -1   5    7.86    0.54
  -8  -1  -5    8.17    0.49
  -8  -1  -5    8.02    0.56
   8   1   5    7.67    0.53
  -8   1  -5    9.48    0.65
  -8   1  -5    7.70    0.57
  -9  -1  -5    0.33    0.24
   9  -1   5    0.72    0.30
  -9  -1  -5    0.77    0.30
  -9   1  -5    0.66    0.34
   9   1   5    0.51    0.29
  -9   1  -5    0.22    0.28
   9  -2  -5    1.27    0.29
  -9   2   5    1.23    0.34
  -9   2   5    1.41    0.34
  -9   2   5    1.18    0.35
   8  -2  -5    9.79    0.62
  -8   2   5    9.21    0.57
  -8   2   5    8.69    0.56
   8   2  -5    9.33    0.59
  -8   2   5    8.19    0.58
   7  -2  -5    1.57    0.29
  -7  -2   5    1.30    0.17
  -7  -2   5    1.24    0.20
  -7   2   5    1.36    0.26
  -7   2   5    1.54    0.28
   7   2  -5    1.35    0.27
  -7   2   5    1.15    0.27
  -6  -2   5    3.03    0.30
  -6  -2   5    3.54    0.23
  -6  -2   5    3.53    0.26
   6  -2  -5    3.56    0.36
   6   2  -5    3.37    0.34
  -6   2   5    3.49    0.30
  -6   2   5    2.92    0.35
  -6   2   5    3.09    0.32
  -5  -2   5   26.43    0.63
   5  -2  -5   26.49    0.81
  -5  -2   5   25.67    0.78
  -5  -2   5   26.59    0.68
  -5   2   5   25.79    0.79
   5   2  -5   24.40    0.76
  -5   2   5   26.25    0.78
  -5   2   5   26.79    0.86
  -4  -2   5   20.86    0.53
  -4  -2   5   20.11    0.63
   4  -2  -5   20.40    0.64
  -4  -2   5   20.81    0.51
  -4   2   5   20.65    0.63
   4   2  -5   20.63    0.63
  -4   2   5   21.33    0.62
   3  -2  -5   15.53    0.51
  -3  -2   5   16.99    0.51
  -3  -2   5   16.46    0.51
  -3  -2   5   16.72    0.42
   3   2  -5   15.71    0.50
  -3   2   5   16.45    0.48
  -3   2   5   16.52    0.51
  -3   2   5   16.86    0.41
  -2  -2   5   60.96    1.25
   2  -2  -5   61.28    1.21
  -2  -2   5   59.98    1.25
  -2   2   5   60.77    1.20
  -2   2   5   61.53    1.26
   2   2  -5   59.90    1.45
  -2   2   5   60.71    1.19
   2   2  -5   60.67    1.13
  -2   2   5   61.50    1.13
   1  -2  -5   12.19    0.31
  -1  -2   5   12.49    0.38
  -1  -2   5   12.59    0.33
   1  -2  -5   12.08    0.35
   1  -2  -5   12.48    0.38
  -1  -2   5   13.27    0.38
   1   2  -5   12.17    0.47
  -1   2   5   12.38    0.35
  -1   2   5   12.68    0.35
  -1   2   5   13.01    0.39
  -1   2   5   12.47    0.30
   1   2  -5   12.96    0.35
   0  -2  -5   60.29    1.19
   0  -2  -5   59.34    1.18
   0  -2  -5   59.72    1.14
   0  -2   5   59.49    1.19
   0  -2   5   59.21    1.19
   0   2   5   58.59    1.26
   0   2   5   59.69    1.19
   0   2  -5   57.70    1.19
   0   2   5   58.77    1.03
   0   2  -5   58.55    1.38
  -1  -2  -5   59.45    1.21
  -1  -2  -5   59.85    1.18
  -1  -2  -5   60.27    1.18
   1  -2   5   61.29    1.24
   1  -2   5   59.99    1.21
  -1   2  -5   59.12    1.25
  -1   2  -5   58.88    1.37
   1   2   5   58.67    1.04
   1   2   5   54.02    1.19
   2  -2   5    9.76    0.37
  -2  -2  -5   10.31    0.37
  -2  -2  -5   10.25    0.35
  -2   2  -5    9.99    0.41
  -2   2  -5    9.85    0.27
  -2   2  -5   10.36    0.39
  -2   2  -5    9.81    0.40
   2   2   5    9.93    0.27
   2   2   5    9.86    0.36
   3  -2   5    1.67    0.20
  -3  -2  -5    1.98    0.17
  -3  -2  -5    1.88    0.19
  -3   2  -5    1.77    0.10
  -3   2  -5    1.73    0.22
  -3   2  -5    1.81    0.19
   3   2   5    2.12    0.14
   3   2   5    2.32    0.22
  -3   2  -5    1.56    0.18
  -4  -2  -5    1.06    0.15
   4  -2   5    1.12    0.19
  -4   2  -5    1.24    0.20
   4   2   5    0.75    0.18
  -4   2  -5    0.88    0.18
  -4   2  -5    0.94    0.19
  -5  -2  -5    0.45    0.17
  -5  -2  -5    0.31    0.13
   5  -2   5    0.02    0.17
  -5   2  -5    0.40    0.18
   5   2   5    0.13    0.16
  -5   2  -5    0.18    0.14
  -5   2  -5    0.25    0.16
  -6  -2  -5    8.48    0.44
   6  -2   5    8.53    0.52
  -6  -2  -5    8.82    0.49
  -6   2  -5    8.45    0.51
  -6   2  -5    8.66    0.50
  -6   2  -5    8.85    0.48
   6   2   5    8.00    0.46
   7  -2   5    2.27    0.35
  -7  -2  -5    2.29    0.33
  -7  -2  -5    2.17    0.29
  -7   2  -5    2.29    0.32
  -7   2  -5    2.50    0.35
  -7   2  -5    2.69    0.40
   7   2   5    2.60    0.36
  -8  -2  -5    0.31    0.19
  -8  -2  -5    0.17    0.22
   8  -2   5    0.13    0.24
  -8   2  -5   -0.32    0.22
   8   2   5    0.22    0.18
  -8   2  -5    0.16    0.27
  -9  -2  -5    0.67    0.29
   8  -3  -5    0.60    0.24
  -8  -3   5    0.80    0.25
  -8   3   5    0.27    0.26
  -8   3   5    0.87    0.33
  -7  -3   5    8.53    0.39
   7  -3  -5    8.70    0.54
  -7  -3   5    9.04    0.53
  -7   3   5    9.85    0.58
  -7   3   5    9.30    0.56
   6  -3  -5    4.58    0.38
  -6  -3   5    4.13    0.37
  -6  -3   5    4.39    0.28
  -6   3   5    5.21    0.45
  -6   3   5    3.98    0.34
  -6   3   5    4.46    0.35
   6   3  -5    4.87    0.36
   5  -3  -5    4.29    0.36
  -5  -3   5    3.54    0.20
  -5  -3   5    4.89    0.37
  -5  -3   5    4.26    0.28
   5   3  -5    4.05    0.33
  -5   3   5    4.54    0.35
  -5   3   5    4.49    0.41
  -5   3   5    4.27    0.34
  -4  -3   5   18.84    0.41
  -4  -3   5   19.18    0.54
   4  -3  -5   19.02    0.62
  -4  -3   5   18.91    0.60
  -4  -3   5   18.63    0.60
   4   3  -5   19.01    0.59
  -4   3   5   18.27    0.60
  -4   3   5   19.19    0.59
  -3  -3   5    0.60    0.12
   3  -3  -5    0.59    0.14
  -3  -3   5    0.74    0.13
  -3  -3   5    0.69    0.13
  -3   3   5    0.61    0.12
  -3   3   5    0.53    0.12
   2  -3  -5    3.61    0.20
  -2  -3   5    2.96    0.08
  -2  -3   5    3.84    0.21
  -2  -3   5    3.68    0.21
   2  -3  -5    3.75    0.24
  -2   3   5    3.82    0.17
  -2   3   5    3.75    0.20
  -2   3   5    3.89    0.21
   2   3  -5    3.88    0.33
   1  -3  -5   23.82    0.66
   1  -3  -5   24.65    0.59
  -1  -3   5   24.02    0.59
  -1  -3   5   23.99    0.51
  -1  -3   5   24.42    0.59
   1  -3  -5   24.03    0.62
  -1   3   5   24.12    0.59
  -1   3   5   23.85    0.55
   1   3  -5   23.38    0.78
   0  -3  -5   12.27    0.44
   0  -3   5   12.97    0.38
   0  -3  -5   13.17    0.44
   0  -3  -5   13.14    0.38
   0  -3   5   13.41    0.37
   0   3   5   12.94    0.33
   0   3  -5   12.74    0.37
   0   3  -5   12.53    0.54
   0   3   5   13.26    0.39
   1  -3   5    5.04    0.24
  -1  -3  -5    5.16    0.28
  -1  -3  -5    5.39    0.29
  -1  -3  -5    5.31    0.24
  -1   3  -5    4.87    0.33
  -1   3  -5    4.87    0.26
   1   3   5    5.14    0.23
  -2  -3  -5    3.90    0.23
  -2  -3  -5    4.06    0.26
  -2  -3  -5    4.21    0.27
   2  -3   5    3.73    0.23
   2   3   5    4.65    0.24
  -2   3  -5    3.78    0.26
  -2   3  -5    3.60    0.27
   2   3   5    4.09    0.18
  -2   3  -5    3.82    0.28
  -3  -3  -5    0.50    0.14
  -3  -3  -5    0.57    0.13
  -3  -3  -5    0.65    0.17
   3  -3   5    0.66    0.15
  -3   3  -5    0.52    0.17
   3   3   5    0.51    0.10
  -3   3  -5    0.55    0.16
  -3   3  -5    0.63    0.17
   3   3   5    0.58    0.13
  -3   3  -5    0.77    0.11
  -4  -3  -5    0.42    0.17
   4  -3   5    0.16    0.14
   4   3   5    0.42    0.15
  -4   3  -5    0.68    0.17
  -4   3  -5    0.36    0.19
  -4   3  -5    0.48    0.17
   5  -3   5    3.16    0.33
  -5  -3  -5    3.56    0.33
  -5   3  -5    3.37    0.37
  -5   3  -5    2.65    0.32
   5   3   5    2.88    0.29
  -5   3  -5    3.40    0.33
   6  -3   5    1.88    0.30
  -6  -3  -5    1.88    0.29
  -6   3  -5    1.98    0.31
   6   3   5    2.20    0.30
  -6   3  -5    1.93    0.30
  -6   3  -5    1.75    0.26
  -7  -3  -5    0.69    0.21
   7  -3   5    0.98    0.28
  -7   3  -5    0.91    0.23
  -7   3  -5    1.07    0.32
  -7   3  -5    1.02    0.25
   8  -3   5    0.70    0.23
  -8  -3  -5    0.00    0.19
  -8   3  -5    0.68    0.25
  -8   3  -5    0.34    0.32
  -8  -4   5    1.29    0.30
   8  -4  -5    1.27    0.29
  -8   4   5    0.35    0.28
  -8   4   5    1.24    0.32
   7  -4  -5    1.05    0.23
  -7  -4   5    1.25    0.26
   7  -4  -5    1.47    0.29
  -7   4   5    1.60    0.36
  -7   4   5    0.64    0.25
  -6  -4   5    3.32    0.28
   6  -4  -5    4.09    0.36
  -6  -4   5    3.19    0.33
   6  -4  -5    3.63    0.34
  -6   4   5    3.53    0.38
  -6   4   5    2.91    0.35
   5  -4  -5    0.64    0.20
   5  -4  -5    0.89    0.21
  -5  -4   5    0.77    0.19
  -5  -4   5    0.60    0.16
  -5   4   5    0.67    0.19
  -5   4   5    0.56    0.25
  -4  -4   5    5.32    0.32
   4  -4  -5    4.98    0.37
   4  -4  -5    5.23    0.33
  -4  -4   5    5.00    0.32
  -4   4   5    5.27    0.34
  -3  -4   5    2.20    0.23
  -3  -4   5    2.28    0.20
   3  -4  -5    2.17    0.28
  -3   4   5    2.52    0.23
  -2  -4   5    0.58    0.11
   2  -4  -5    0.42    0.18
  -2  -4   5    0.54    0.11
  -2   4   5    0.56    0.13
  -2   4   5    0.48    0.11
   2   4  -5    0.32    0.16
   1  -4  -5    3.92    0.28
   1  -4  -5    3.90    0.28
  -1  -4   5    3.90    0.20
  -1   4   5    4.26    0.20
  -1   4   5    4.48    0.23
   1   4  -5    4.10    0.35
   0  -4  -5    0.60    0.10
   0  -4  -5    0.44    0.15
   0  -4   5    0.73    0.11
   0  -4  -5    0.57    0.18
   0   4   5    0.73    0.10
   0   4  -5    0.33    0.18
   0   4   5    0.55    0.10
   0   4  -5    0.48    0.10
  -1  -4  -5   10.48    0.34
   1  -4   5   10.51    0.34
  -1  -4  -5    9.55    0.45
  -1  -4  -5   10.50    0.45
  -1   4  -5    9.69    0.38
  -1   4  -5   10.52    0.50
  -1   4  -5   10.24    0.50
   1   4   5   10.25    0.33
  -2  -4  -5   20.82    0.68
   2  -4   5   20.86    0.58
  -2  -4  -5   20.66    0.68
  -2   4  -5   21.12    0.65
   2   4   5   21.15    0.58
  -2   4  -5   22.07    0.77
  -2   4  -5   20.67    0.74
   3  -4   5    1.68    0.21
  -3  -4  -5    1.60    0.23
  -3  -4  -5    1.65    0.24
  -3   4  -5    1.68    0.25
  -3   4  -5    1.62    0.25
  -3   4  -5    1.97    0.28
   4  -4   5    4.09    0.31
  -4  -4  -5    5.17    0.36
  -4   4  -5    4.85    0.37
  -4   4  -5    4.58    0.38
  -4   4  -5    5.32    0.43
  -5  -4  -5    0.99    0.25
   5  -4   5    0.47    0.18
  -5   4  -5    0.48    0.23
  -5   4  -5    0.41    0.20
  -5   4  -5    0.57    0.23
  -6  -4  -5    1.75    0.29
   6  -4   5    1.54    0.27
  -6   4  -5    1.65    0.34
  -6   4  -5    1.35    0.26
  -6   4  -5    1.08    0.24
  -7  -4  -5   -0.29    0.18
   7  -4   5   -0.04    0.21
  -7   4  -5    0.10    0.22
  -7   4  -5   -0.11    0.27
   7  -5  -5    0.21    0.18
  -7  -5   5    0.01    0.15
   7  -5  -5    0.02    0.17
  -7   5   5    0.01    0.27
  -7   5   5   -0.02    0.22
  -6  -5   5    0.28    0.17
   6  -5  -5    0.31    0.18
  -6  -5   5    0.36    0.18
   6  -5  -5    0.36    0.20
  -6   5   5    0.37    0.23
  -6   5   5    0.25    0.25
   5  -5  -5    0.92    0.24
  -5  -5   5    0.63    0.20
  -5  -5   5    0.70    0.17
  -5   5   5    0.46    0.21
  -5   5   5    0.42    0.19
   4  -5  -5    1.42    0.27
  -4  -5   5    1.71    0.20
  -4  -5   5    1.16    0.23
  -4   5   5    1.15    0.28
  -4   5   5    1.36    0.23
  -3  -5   5    0.67    0.13
   3  -5  -5    0.33    0.19
  -3   5   5    0.93    0.17
   3   5  -5    0.36    0.25
  -2  -5   5    0.84    0.12
   2  -5  -5    0.69    0.18
  -2   5   5    0.69    0.15
   2   5  -5    0.55    0.25
   1  -5  -5    0.68    0.20
  -1  -5   5    0.94    0.11
   1  -5  -5    1.08    0.22
   1   5  -5    0.69    0.25
  -1   5   5    0.89    0.15
   0  -5  -5    0.25    0.15
   0  -5  -5    0.34    0.15
   0  -5   5    0.43    0.08
   0   5   5    0.60    0.13
   0   5  -5    0.33    0.20
  -1  -5  -5    2.74    0.34
   1  -5   5    2.83    0.17
  -1  -5  -5    2.65    0.30
  -1   5  -5    2.80    0.37
  -1   5  -5    3.14    0.24
   1   5   5    3.19    0.24
  -1   5  -5    2.89    0.38
  -2  -5  -5   11.34    0.54
  -2  -5  -5   10.91    0.55
   2  -5   5   10.89    0.37
  -2   5  -5   11.00    0.59
  -2   5  -5   11.46    0.48
  -2   5  -5   11.50    0.62
  -3  -5  -5    4.03    0.36
   3  -5   5    3.70    0.25
  -3   5  -5    3.92    0.33
  -3   5  -5    4.49    0.44
  -3   5  -5    3.78    0.37
  -4  -5  -5    1.67    0.30
   4  -5   5    0.86    0.18
  -4   5  -5    1.10    0.27
  -4   5  -5    0.80    0.22
  -4   5  -5    1.27    0.26
   5  -5   5   -0.02    0.14
  -5  -5  -5   -0.17    0.16
  -5   5  -5   -0.12    0.19
  -5   5  -5   -0.20    0.17
  -5   5  -5   -0.12    0.20
   6  -5   5   -0.08    0.17
  -6  -5  -5    0.24    0.23
  -6   5  -5    0.39    0.22
  -6   5  -5    0.38    0.22
   7  -5   5    2.40    0.35
  -7   5  -5    2.58    0.44
  -6  -6   5    1.14    0.27
  -6  -6   5    1.09    0.21
   6  -6  -5    1.61    0.30
  -6   6   5    1.36    0.37
   5  -6  -5    0.43    0.21
  -5   6   5   -0.10    0.16
   4  -6  -5    0.67    0.24
   4   6  -5    0.97    0.34
  -4   6   5    0.42    0.24
   3  -6  -5    0.24    0.21
   3   6  -5    0.15    0.21
  -3   6   5    0.18    0.20
   2  -6  -5   -0.03    0.17
   2   6  -5    0.33    0.20
   1  -6  -5    0.23    0.21
   1   6  -5    0.50    0.24
   0  -6  -5    3.02    0.35
   0  -6  -5    2.85    0.38
   0   6  -5    3.12    0.43
  -1  -6  -5    6.31    0.45
  -1  -6  -5    6.92    0.50
  -1   6  -5    6.48    0.49
  -1   6  -5    6.62    0.54
  -2  -6  -5    0.22    0.22
  -2  -6  -5    0.21    0.19
  -2   6  -5    0.24    0.23
  -2   6  -5    0.30    0.20
  -3  -6  -5   -0.22    0.16
  -3   6  -5    0.05    0.18
  -3   6  -5   -0.20    0.14
  -4  -6  -5    1.37    0.31
  -4   6  -5    1.81    0.35
  -5  -6  -5    0.27    0.23
   5  -6   5    0.36    0.16
  -5   6  -5    0.49    0.25
  -5   6  -5    0.17    0.26
   6  -6   5    0.45    0.18
  -6   6  -5    0.09    0.24
   3  -7  -5    0.41    0.23
   2  -7  -5    0.30    0.25
   2   7  -5    0.75    0.32
   1  -7  -5    0.31    0.25
   1   7  -5    0.42    0.28
   0  -7  -5    2.16    0.34
   0   7  -5    2.14    0.39
   0   7  -5    1.91    0.38
  -1  -7  -5    0.03    0.20
  -1  -7  -5    0.14    0.19
  -1   7  -5    0.31    0.24
  -1   7  -5    0.05    0.24
  -2  -7  -5   -0.29    0.18
  -2   7  -5    0.11    0.25
  -2   7  -5    0.11    0.20
 -10   0   6    0.19    0.24
   9   0  -6    0.01    0.18
  -9   0   6   -0.22    0.16
  -9   0   6   -0.03    0.21
  -8   0   6   -0.16    0.13
  -8   0   6   -0.34    0.16
   8   0  -6   -0.01    0.21
  -8   0   6   -0.25    0.21
  -7   0   6    9.34    0.51
  -7   0   6    8.19    0.49
   7   0  -6    9.25    0.52
  -7   0   6    8.65    0.52
   6   0  -6    2.43    0.31
  -6   0   6    2.64    0.32
  -6   0   6    2.52    0.29
  -6   0   6    2.08    0.28
  -5   0   6   -0.17    0.13
   5   0  -6    0.02    0.15
  -5   0   6    0.04    0.10
   5   0  -6    0.05    0.09
  -4   0   6   29.09    0.50
   4   0  -6   28.35    0.75
   4   0  -6   30.53    0.83
  -4   0   6   29.88    0.82
  -3   0   6   37.42    0.91
   3   0  -6   36.94    0.92
   3   0  -6   38.72    0.89
   2   0  -6   26.86    0.67
  -2   0   6   26.20    0.68
   2   0  -6   27.34    0.63
  -2   0   6   26.50    0.69
   1   0  -6    8.87    0.33
  -1   0   6    8.67    0.33
   1   0  -6    8.75    0.32
  -1   0   6    8.35    0.32
   0   0  -6   23.47    0.63
   0   0   6   23.18    0.60
   0   0   6   23.89    0.63
   0   0  -6   23.84    0.60
  -1   0  -6   43.63    1.03
   1   0   6   42.38    0.96
  -1   0  -6   42.77    0.88
   2   0   6  114.68    2.20
  -2   0  -6  113.12    2.11
  -2   0  -6  110.00    2.26
  -2   0  -6  112.66    2.34
   3   0   6    0.92    0.17
  -3   0  -6    1.07    0.07
  -3   0  -6    0.91    0.16
  -3   0  -6    1.07    0.14
  -3   0  -6    1.18    0.20
  -4   0  -6   34.89    0.99
   4   0   6   35.30    0.95
  -4   0  -6   35.73    0.98
  -4   0  -6   34.70    0.87
  -5   0  -6    4.79    0.32
  -5   0  -6    4.12    0.32
  -5   0  -6    4.03    0.36
   5   0   6    4.15    0.36
   6   0   6    3.05    0.38
  -6   0  -6    2.83    0.31
  -6   0  -6    2.51    0.35
  -7   0  -6    0.08    0.19
  -7   0  -6    0.48    0.27
   7   0   6    0.41    0.27
   8   0   6    6.55    0.57
  -8   0  -6    4.69    0.41
  -8   0  -6    6.61    0.57
   9   0   6    4.35    0.54
  -9   0  -6    3.53    0.41
  -9   0  -6    4.30    0.54
 -10   1   6    0.58    0.31
  10   1  -6    0.46    0.29
  -9  -1   6    1.11    0.26
  -9  -1   6    1.03    0.27
   9  -1  -6    1.10    0.28
   9   1  -6    1.39    0.34
  -9   1   6    1.84    0.33
  -9   1   6    1.04    0.31
  -9   1   6    1.00    0.32
  -8  -1   6    2.00    0.34
  -8  -1   6    2.40    0.31
   8  -1  -6    1.59    0.30
  -8   1   6    1.63    0.31
  -8   1   6    1.67    0.32
   8   1  -6    2.29    0.36
  -8   1   6    1.64    0.32
   7  -1  -6    0.84    0.22
  -7  -1   6    0.72    0.21
  -7  -1   6    0.96    0.20
  -7   1   6    0.85    0.22
  -7   1   6    0.90    0.25
  -7   1   6    0.45    0.22
   7   1  -6    0.97    0.26
  -6  -1   6   11.71    0.34
  -6  -1   6   11.94    0.48
   6  -1  -6   11.40    0.57
  -6  -1   6   11.93    0.57
  -6   1   6   11.50    0.56
   6   1  -6   10.90    0.52
  -6   1   6    9.96    0.48
  -6   1   6   10.47    0.51
  -5  -1   6    8.64    0.45
  -5  -1   6    8.53    0.25
   5  -1  -6    8.63    0.43
  -5  -1   6    8.05    0.39
   5  -1  -6    9.20    0.28
   5   1  -6    8.53    0.45
  -5   1   6    9.55    0.46
  -5   1   6    9.13    0.43
   4  -1  -6    2.60    0.23
   4  -1  -6    2.92    0.14
  -4  -1   6    3.17    0.24
  -4  -1   6    2.91    0.12
   4   1  -6    2.85    0.24
  -4   1   6    2.77    0.26
   4   1  -6    2.72    0.26
  -4   1   6    2.81    0.21
  -4   1   6    2.98    0.12
   3  -1  -6    0.54    0.15
   3  -1  -6    0.80    0.09
  -3  -1   6    0.43    0.13
  -3   1   6    0.67    0.11
  -3   1   6    0.85    0.06
   3   1  -6    0.59    0.14
  -3   1   6    0.69    0.14
   3   1  -6    0.30    0.12
   2  -1  -6    2.87    0.15
  -2  -1   6    2.85    0.19
   2  -1  -6    2.70    0.19
  -2  -1   6    2.80    0.21
   2  -1  -6    3.19    0.16
  -2   1   6    3.09    0.16
   2   1  -6    3.21    0.11
  -2   1   6    3.06    0.22
  -2   1   6    2.96    0.16
   2   1  -6    3.08    0.23
   1  -1  -6    2.82    0.18
   1  -1  -6    2.53    0.12
   1  -1  -6    2.53    0.12
   1  -1  -6    2.37    0.15
  -1  -1   6    2.45    0.17
  -1   1   6    2.58    0.15
  -1   1   6    2.62    0.20
   1   1  -6    2.64    0.19
   0  -1  -6    0.22    0.09
   0  -1   6    0.28    0.09
   0  -1  -6    0.21    0.08
   0  -1  -6    0.20    0.03
   0  -1   6    0.16    0.10
   0   1   6    0.27    0.08
   0   1   6    0.26    0.09
   0   1  -6    0.49    0.10
  -1  -1  -6   70.08    1.26
   1  -1   6   72.33    1.45
  -1  -1  -6   71.48    1.54
  -1  -1  -6   70.62    1.44
  -1   1  -6   69.41    1.56
  -1   1  -6   72.23    1.45
   1   1   6   71.26    1.45
  -1   1  -6   69.39    1.48
  -2  -1  -6   92.23    1.70
   2  -1   6   93.41    1.85
  -2  -1  -6   94.17    1.64
  -2  -1  -6   90.32    1.98
   2   1   6   94.27    1.71
  -2   1  -6   91.94    1.99
  -2   1  -6   91.38    1.84
   2   1   6   91.14    1.84
  -2   1  -6   94.05    1.92
  -3  -1  -6   25.93    0.62
  -3  -1  -6   25.79    0.57
   3  -1   6   26.87    0.75
  -3  -1  -6   26.04    0.76
  -3  -1  -6   25.36    0.77
  -3   1  -6   27.94    0.73
   3   1   6   25.60    0.73
   3   1   6   25.91    0.63
  -3   1  -6   27.10    0.76
  -3   1  -6   27.11    0.79
  -4  -1  -6   13.97    0.54
  -4  -1  -6   13.52    0.44
   4  -1   6   13.41    0.54
  -4   1  -6   13.31    0.53
   4   1   6   12.54    0.51
  -4   1  -6   12.78    0.52
  -4   1  -6   13.70    0.51
  -5  -1  -6    1.07    0.18
  -5  -1  -6    0.82    0.22
   5  -1   6    1.27    0.24
  -5   1  -6    1.24    0.20
  -5   1  -6    1.14    0.20
   5   1   6    1.32    0.25
  -5   1  -6    1.01    0.20
  -6  -1  -6    5.67    0.37
   6  -1   6    6.44    0.44
  -6  -1  -6    5.95    0.45
  -6   1  -6    6.07    0.43
  -6   1  -6    6.22    0.44
  -6   1  -6    6.10    0.43
   6   1   6    5.79    0.42
   7  -1   6    0.59    0.22
  -7  -1  -6    1.24    0.31
  -7  -1  -6    1.26    0.24
  -7   1  -6    1.09    0.29
   7   1   6    1.44    0.29
  -7   1  -6    1.09    0.27
  -8  -1  -6    7.01    0.56
  -8  -1  -6    6.57    0.49
   8  -1   6    8.62    0.62
  -8   1  -6    7.34    0.61
  -8   1  -6    5.80    0.47
   8   1   6    7.17    0.58
   9  -1   6    0.52    0.23
  -9  -1  -6    0.79    0.32
  -9  -1  -6    0.42    0.25
  -9   1  -6   -0.02    0.28
  -9   1  -6    0.48    0.34
   9   1   6    0.40    0.29
   9  -2  -6    1.09    0.32
  -9  -2   6    1.41    0.34
  -9   2   6    1.03    0.27
  -9   2   6    0.75    0.30
  -9   2   6    0.64    0.31
   8  -2  -6    2.00    0.35
  -8  -2   6    1.97    0.35
  -8   2   6    1.45    0.31
   8   2  -6    1.53    0.32
  -8   2   6    1.76    0.35
  -8   2   6    1.06    0.29
  -7  -2   6    1.10    0.26
   7  -2  -6    0.84    0.22
  -7  -2   6    0.92    0.18
   7   2  -6    1.15    0.28
  -7   2   6    0.49    0.23
  -7   2   6    1.02    0.26
  -7   2   6    1.20    0.29
  -6  -2   6    5.12    0.41
   6  -2  -6    5.90    0.43
  -6  -2   6    5.61    0.31
  -6  -2   6    6.08    0.26
  -6   2   6    6.27    0.47
   6   2  -6    6.71    0.44
  -6   2   6    5.67    0.41
  -6   2   6    5.48    0.40
  -5  -2   6   19.54    0.49
  -5  -2   6   19.92    0.69
   5  -2  -6   19.09    0.67
  -5  -2   6   19.15    0.56
  -5   2   6   19.37    0.65
   5   2  -6   19.00    0.67
  -5   2   6   19.32    0.68
  -4  -2   6   31.83    0.86
  -4  -2   6   31.26    0.75
  -4  -2   6   32.60    0.68
   4  -2  -6   32.64    0.89
  -4   2   6   31.47    0.86
   4   2  -6   31.94    0.87
  -4   2   6   32.40    0.67
  -4   2   6   31.40    0.82
  -3  -2   6    5.45    0.29
  -3  -2   6    5.27    0.28
  -3   2   6    5.30    0.29
   3   2  -6    5.66    0.21
  -3   2   6    5.60    0.27
   3   2  -6    5.03    0.33
  -3   2   6    5.20    0.21
   2  -2  -6    5.24    0.27
  -2  -2   6    5.19    0.27
   2  -2  -6    5.38    0.21
   2  -2  -6    5.33    0.21
  -2  -2   6    5.13    0.26
   2   2  -6    5.13    0.33
  -2   2   6    5.31    0.22
   2   2  -6    5.68    0.21
  -2   2   6    5.42    0.27
  -2   2   6    5.57    0.19
  -2   2   6    5.37    0.21
   1  -2  -6    5.31    0.25
  -1  -2   6    4.54    0.25
   1  -2  -6    5.21    0.22
   1  -2  -6    5.14    0.17
  -1  -2   6    5.09    0.21
   1   2  -6    4.82    0.20
   1   2  -6    4.64    0.31
  -1   2   6    5.40    0.23
  -1   2   6    4.99    0.25
  -1   2   6    5.30    0.16
   0  -2  -6   45.38    0.98
   0  -2  -6   43.87    0.96
   0  -2  -6   44.76    0.93
   0  -2   6   44.95    0.97
   0  -2   6   44.84    0.99
   0   2   6   45.57    1.03
   0   2  -6   44.10    1.14
   0   2   6   46.62    0.99
  -1  -2  -6   33.72    0.79
   1  -2   6   34.96    0.82
  -1  -2  -6   34.99    0.82
  -1  -2  -6   34.06    0.79
  -1   2  -6   34.35    0.84
  -1   2  -6   34.00    0.93
   1   2   6   34.67    0.82
   2  -2   6   31.61    0.79
  -2  -2  -6   30.86    0.78
  -2  -2  -6   30.48    0.73
  -2   2  -6   30.93    0.87
  -2   2  -6   32.05    0.83
   2   2   6   30.71    0.62
  -2   2  -6   30.55    0.83
   2   2   6   30.45    0.78
  -2   2  -6   32.18    0.64
   3  -2   6    1.25    0.19
  -3  -2  -6    1.49    0.17
  -3   2  -6    1.36    0.19
  -3   2  -6    1.45    0.09
  -3   2  -6    1.35    0.20
   3   2   6    1.56    0.13
  -3   2  -6    1.09    0.20
   3   2   6    1.61    0.21
   4  -2   6    5.67    0.34
  -4  -2  -6    5.80    0.27
  -4   2  -6    5.62    0.35
  -4   2  -6    6.39    0.40
  -4   2  -6    6.00    0.36
   4   2   6    5.26    0.35
   5  -2   6    7.26    0.45
  -5  -2  -6    7.19    0.43
  -5  -2  -6    6.95    0.34
  -5   2  -6    6.98    0.46
  -5   2  -6    7.37    0.45
   5   2   6    6.55    0.40
  -5   2  -6    7.14    0.42
   6  -2   6    7.14    0.46
  -6  -2  -6    7.55    0.48
  -6  -2  -6    7.26    0.39
  -6   2  -6    6.93    0.47
  -6   2  -6    7.47    0.44
  -6   2  -6    7.96    0.51
   6   2   6    8.29    0.50
   7  -2   6    2.58    0.38
  -7  -2  -6    3.58    0.40
  -7  -2  -6    3.00    0.32
  -7   2  -6    3.57    0.38
  -7   2  -6    3.20    0.37
  -7   2  -6    2.73    0.42
   7   2   6    2.94    0.35
  -8  -2  -6    1.46    0.30
  -8  -2  -6    1.27    0.26
   8  -2   6    1.05    0.33
  -8   2  -6    1.30    0.31
  -8   2  -6    1.22    0.32
   8   2   6    1.41    0.34
  -9  -2  -6    0.35    0.23
   8  -3  -6    0.60    0.23
  -8  -3   6    0.93    0.28
  -8   3   6    0.71    0.34
  -8   3   6    0.50    0.27
   7  -3  -6    4.74    0.44
  -7  -3   6    5.00    0.43
  -7   3   6    5.08    0.49
  -7   3   6    4.44    0.44
  -6  -3   6   -0.04    0.10
  -6  -3   6   -0.19    0.14
   6  -3  -6   -0.05    0.16
   6   3  -6    0.08    0.16
  -6   3   6    0.28    0.17
  -6   3   6   -0.22    0.19
  -6   3   6    0.00    0.17
  -5  -3   6    4.25    0.35
  -5  -3   6    3.98    0.24
   5  -3  -6    4.17    0.36
  -5   3   6    4.06    0.34
   5   3  -6    4.08    0.33
  -5   3   6    3.82    0.32
  -4  -3   6    4.17    0.31
  -4  -3   6    3.94    0.24
   4  -3  -6    3.77    0.32
  -4  -3   6    4.07    0.16
  -4   3   6    3.69    0.28
  -4   3   6    3.97    0.29
  -3  -3   6    1.99    0.19
  -3  -3   6    2.49    0.22
  -3  -3   6    2.01    0.10
  -3  -3   6    1.99    0.09
  -3   3   6    2.44    0.22
   3   3  -6    2.17    0.30
  -3   3   6    2.02    0.20
  -2  -3   6    5.49    0.27
   2  -3  -6    5.24    0.30
  -2  -3   6    5.33    0.26
  -2  -3   6    5.42    0.17
   2  -3  -6    5.18    0.24
  -2   3   6    5.41    0.27
  -2   3   6    5.23    0.23
   2   3  -6    5.04    0.36
  -1  -3   6   12.60    0.40
   1  -3  -6   13.06    0.42
   1  -3  -6   13.13    0.41
   1  -3  -6   12.59    0.47
  -1  -3   6   12.88    0.42
  -1  -3   6   13.74    0.35
  -1   3   6   12.20    0.33
  -1   3   6   12.73    0.41
  -1   3   6   12.62    0.41
   1   3  -6   12.93    0.57
   0  -3  -6    1.31    0.18
   0  -3  -6    1.36    0.20
   0  -3   6    1.53    0.13
   0  -3   6    1.42    0.16
   0  -3  -6    1.38    0.15
   0   3   6    1.46    0.08
   0   3  -6    1.14    0.19
   0   3   6    1.54    0.16
   1  -3   6    0.26    0.10
  -1  -3  -6    0.35    0.10
  -1  -3  -6    0.36    0.14
  -1  -3  -6    0.32    0.12
   1   3   6    0.22    0.04
   1   3   6    0.26    0.09
   1   3   6    0.20    0.04
  -1   3  -6    0.19    0.11
  -1   3  -6    0.18    0.13
  -2  -3  -6    6.52    0.32
  -2  -3  -6    7.35    0.33
   2  -3   6    6.94    0.32
  -2  -3  -6    6.75    0.34
  -2   3  -6    7.36    0.36
  -2   3  -6    7.43    0.41
  -2   3  -6    6.97    0.40
   2   3   6    7.26    0.33
   2   3   6    6.90    0.21
  -3  -3  -6    1.28    0.20
   3  -3   6    1.36    0.19
  -3  -3  -6    1.40    0.18
  -3  -3  -6    1.34    0.22
  -3   3  -6    1.07    0.21
  -3   3  -6    1.24    0.20
   3   3   6    1.16    0.13
  -3   3  -6    0.99    0.21
   3   3   6    1.28    0.18
  -3   3  -6    1.23    0.14
  -4  -3  -6    4.78    0.33
   4  -3   6    4.61    0.34
  -4   3  -6    4.82    0.40
  -4   3  -6    5.49    0.40
   4   3   6    4.45    0.32
  -4   3  -6    4.50    0.38
  -5  -3  -6    5.13    0.36
   5  -3   6    5.60    0.41
  -5   3  -6    5.05    0.41
  -5   3  -6    5.77    0.45
  -5   3  -6    5.00    0.39
   5   3   6    5.39    0.37
   6  -3   6    6.21    0.47
  -6   3  -6    5.47    0.44
  -6   3  -6    5.46    0.44
  -6   3  -6    7.01    0.51
   7  -3   6    1.28    0.29
  -7   3  -6    0.83    0.23
  -7   3  -6    1.56    0.32
  -7   3  -6    2.01    0.38
   8  -3   6    0.05    0.25
  -8  -3  -6    0.08    0.17
  -8   3  -6   -0.33    0.24
  -8   3  -6    0.37    0.24
  -8  -4   6    1.79    0.36
  -8   4   6    1.73    0.35
   7  -4  -6    2.07    0.31
   7  -4  -6    2.98    0.38
  -7  -4   6    2.43    0.33
  -7   4   6    2.36    0.35
  -7   4   6    2.43    0.40
   6  -4  -6    0.13    0.16
  -6  -4   6    0.19    0.13
   6  -4  -6    0.07    0.17
  -6  -4   6    0.13    0.18
  -6   4   6   -0.09    0.22
  -6   4   6   -0.01    0.17
  -5  -4   6    6.07    0.34
   5  -4  -6    6.83    0.42
   5  -4  -6    6.63    0.42
  -5  -4   6    6.43    0.39
  -5   4   6    5.91    0.39
  -5   4   6    6.51    0.45
  -4  -4   6    4.81    0.31
  -4  -4   6    4.96    0.31
   4  -4  -6    4.98    0.37
  -4   4   6    5.53    0.34
   4   4  -6    4.37    0.42
  -3  -4   6    0.95    0.16
   3  -4  -6    0.84    0.21
   3   4  -6    0.59    0.20
  -3   4   6    1.00    0.17
  -2  -4   6    3.67    0.23
   2  -4  -6    2.94    0.30
   2   4  -6    3.38    0.35
  -2   4   6    3.81    0.23
  -1  -4   6    0.90    0.13
   1  -4  -6    0.90    0.20
   1  -4  -6    1.29    0.20
   1  -4  -6    0.85    0.13
  -1  -4   6    1.29    0.14
  -1   4   6    1.01    0.13
  -1   4   6    1.26    0.15
   1   4  -6    0.75    0.20
   0  -4   6    2.51    0.19
   0  -4  -6    2.06    0.24
   0  -4  -6    2.13    0.17
   0  -4  -6    2.16    0.23
   0  -4   6    2.28    0.15
   0   4  -6    1.89    0.29
   0   4   6    2.02    0.17
   0   4  -6    2.24    0.17
   0   4   6    2.18    0.14
  -1  -4  -6    0.65    0.18
  -1  -4  -6    0.63    0.20
   1  -4   6    0.57    0.13
  -1   4  -6    0.34    0.19
  -1   4  -6    0.63    0.17
   1   4   6    0.63    0.12
  -1   4  -6    0.62    0.15
   1   4   6    0.62    0.09
  -2  -4  -6   16.59    0.61
  -2  -4  -6   16.95    0.62
   2  -4   6   17.67    0.54
  -2   4  -6   16.93    0.59
  -2   4  -6   16.27    0.66
  -2   4  -6   17.18    0.69
   3  -4   6    3.22    0.26
  -3  -4  -6    3.05    0.32
  -3  -4  -6    2.82    0.27
  -3   4  -6    2.96    0.31
  -3   4  -6    2.20    0.28
  -3   4  -6    2.61    0.33
   4  -4   6    0.20    0.15
  -4  -4  -6    0.43    0.20
  -4   4  -6    0.57    0.20
  -4   4  -6    0.33    0.20
  -4   4  -6    0.42    0.21
  -5  -4  -6    0.97    0.25
   5  -4   6    0.55    0.19
  -5   4  -6    0.60    0.23
  -5   4  -6    1.11    0.24
  -5   4  -6    1.10    0.28
   6  -4   6    2.32    0.33
  -6  -4  -6    3.07    0.40
  -6   4  -6    2.53    0.34
  -6   4  -6    3.50    0.45
  -6   4  -6    3.65    0.46
  -7  -4  -6    0.48    0.24
   7  -4   6    0.23    0.22
  -7   4  -6    0.23    0.29
  -7   4  -6    0.08    0.24
   7  -5  -6    0.36    0.21
  -7  -5   6    0.15    0.19
   7  -5  -6    0.21    0.21
  -7   5   6    0.10    0.26
  -6  -5   6    0.06    0.16
   6  -5  -6   -0.22    0.16
  -6   5   6   -0.29    0.19
  -6   5   6   -0.16    0.14
  -5  -5   6    1.27    0.22
   5  -5  -6    1.33    0.28
  -5  -5   6    1.37    0.22
  -5   5   6    1.29    0.24
   5   5  -6    1.43    0.31
  -5   5   6    1.10    0.31
  -4  -5   6    0.47    0.14
   4  -5  -6   -0.07    0.18
  -4   5   6    0.44    0.16
  -4   5   6    0.34    0.18
   4   5  -6    0.45    0.21
   3  -5  -6    0.35    0.20
  -3  -5   6    0.42    0.12
   3   5  -6    0.39    0.25
  -3   5   6    0.58    0.14
  -2  -5   6    0.96    0.14
   2  -5  -6    1.02    0.22
   2   5  -6    1.02    0.29
  -2   5   6    1.11    0.16
   1  -5  -6    0.33    0.19
   1  -5  -6    0.26    0.14
  -1  -5   6    0.23    0.09
   1   5  -6    0.39    0.19
   0  -5  -6    0.56    0.18
   0  -5   6    0.34    0.10
   0  -5  -6    0.29    0.14
   0   5  -6    0.27    0.21
  -1  -5  -6    0.22    0.20
  -1  -5  -6    0.23    0.18
   1  -5   6    0.50    0.11
  -1   5  -6    0.39    0.14
  -1   5  -6    0.34    0.18
  -1   5  -6    0.49    0.19
  -2  -5  -6    1.31    0.24
  -2  -5  -6    1.66    0.29
   2  -5   6    1.71    0.18
  -2   5  -6    1.50    0.28
  -2   5  -6    1.37    0.29
  -2   5  -6    1.41    0.22
  -3  -5  -6    2.42    0.33
  -3  -5  -6    3.60    0.37
   3  -5   6    3.36    0.26
  -3   5  -6    3.24    0.36
  -3   5  -6    2.69    0.30
  -3   5  -6    3.40    0.39
   4  -5   6    1.11    0.20
  -4  -5  -6    1.13    0.24
  -4   5  -6    0.89    0.23
  -4   5  -6    0.83    0.25
  -4   5  -6    0.96    0.25
  -5  -5  -6    0.16    0.19
   5  -5   6    0.05    0.16
  -5   5  -6    0.11    0.19
  -5   5  -6   -0.07    0.20
  -5   5  -6    0.10    0.23
   6  -5   6    0.35    0.20
  -6  -5  -6    0.20    0.18
  -6   5  -6    0.06    0.23
  -6   5  -6   -0.02    0.25
   6  -6  -6    0.47    0.23
  -6  -6   6    0.19    0.15
   5  -6  -6    0.23    0.16
   5   6  -6    0.06    0.28
  -5   6   6   -0.49    0.20
   4  -6  -6    0.61    0.24
   4   6  -6    0.17    0.28
  -4   6   6    0.15    0.21
   3  -6  -6    5.17    0.46
   3   6  -6    5.35    0.52
  -3   6   6    4.66    0.42
   2  -6  -6    0.19    0.21
   2   6  -6    0.58    0.28
   1  -6  -6    0.15    0.21
   1   6  -6    0.32    0.20
   0  -6  -6    1.37    0.25
   0  -6  -6    1.43    0.27
   0   6  -6    0.99    0.30
  -1  -6  -6    0.36    0.17
  -1  -6  -6    0.54    0.24
  -1   6  -6    0.66    0.26
  -1   6  -6    0.26    0.18
  -2  -6  -6    0.46    0.22
  -2  -6  -6   -0.01    0.22
  -2   6  -6    0.57    0.25
  -2   6  -6    0.63    0.25
  -3  -6  -6    0.13    0.19
  -3   6  -6    0.18    0.20
  -3   6  -6    0.26    0.25
   4  -6   6    0.33    0.14
  -4  -6  -6    0.19    0.17
  -4   6  -6    0.29    0.20
   5  -6   6    1.03    0.21
   6  -6   6    0.20    0.18
  -6   6  -6    0.19    0.25
  -4   7   6    0.60    0.28
   2  -7  -6    0.21    0.25
   2   7  -6    0.42    0.24
   1  -7  -6    0.73    0.30
   1   7  -6    1.08    0.33
   0  -7  -6    1.03    0.26
   0   7  -6    1.10    0.34
   0   7  -6    1.14    0.34
  -1  -7  -6    4.68    0.46
  -1  -7  -6    4.28    0.44
  -1   7  -6    5.16    0.55
  -1   7  -6    5.23    0.58
  -2   7  -6    0.09    0.16
 -10   0   7    0.40    0.26
  -9   0   7   -0.26    0.18
  -9   0   7   -0.06    0.25
   9   0  -7    0.20    0.26
  -8   0   7   -0.25    0.20
  -8   0   7   -0.01    0.16
   8   0  -7   -0.03    0.22
  -7   0   7    1.12    0.25
  -7   0   7    1.40    0.27
   7   0  -7    1.39    0.26
   6   0  -7    5.09    0.30
  -6   0   7    5.42    0.42
  -6   0   7    4.74    0.34
   6   0  -7    5.06    0.38
   5   0  -7   -0.02    0.08
  -5   0   7   -0.19    0.13
   5   0  -7   -0.16    0.14
   4   0  -7    0.23    0.09
  -4   0   7    0.08    0.13
   4   0  -7    0.18    0.16
   3   0  -7    0.06    0.07
  -3   0   7    0.15    0.10
  -2   0   7    4.94    0.25
   2   0  -7    5.38    0.26
  -2   0   7    4.84    0.27
   2   0  -7    5.32    0.23
   1   0  -7   12.94    0.43
  -1   0   7   12.51    0.44
  -1   0   7   13.19    0.44
   0   0   7    0.36    0.11
   0   0  -7    0.51    0.12
  -1   0  -7   31.58    0.82
  -1   0  -7   30.05    0.68
   1   0   7   29.85    0.78
   2   0   7   17.95    0.56
  -2   0  -7   17.70    0.59
  -2   0  -7   18.02    0.48
   3   0   7    3.34    0.25
  -3   0  -7    2.86    0.20
  -3   0  -7    2.99    0.24
  -3   0  -7    2.94    0.12
  -3   0  -7    3.18    0.30
  -4   0  -7   32.95    0.98
   4   0   7   33.59    0.95
  -4   0  -7   34.18    1.00
  -4   0  -7   34.61    0.86
  -5   0  -7   -0.10    0.12
  -5   0  -7    0.00    0.12
   5   0   7   -0.07    0.13
  -5   0  -7   -0.21    0.11
   6   0   7   -0.02    0.20
  -6   0  -7    0.01    0.14
  -6   0  -7   -0.22    0.19
  -7   0  -7    7.88    0.57
  -7   0  -7    6.90    0.47
   7   0   7    7.89    0.58
   8   0   7    1.85    0.35
  -8   0  -7    2.52    0.42
  -8   0  -7    1.33    0.31
   9   0   7    0.08    0.28
  -9   0  -7   -0.06    0.24
  -9   0  -7    0.36    0.31
  -9  -1   7    0.13    0.25
  -9  -1   7    0.16    0.20
   9  -1  -7    0.61    0.25
  -9   1   7    0.37    0.21
   9   1  -7    0.13    0.25
  -9   1   7    0.41    0.28
  -9   1   7    0.56    0.27
  -8  -1   7    3.94    0.36
  -8  -1   7    4.51    0.48
   8  -1  -7    3.81    0.40
  -8   1   7    4.08    0.45
  -8   1   7    3.70    0.38
  -8   1   7    3.27    0.38
   8   1  -7    3.97    0.45
  -7  -1   7    0.82    0.23
   7  -1  -7    0.67    0.25
  -7  -1   7    0.46    0.17
   7   1  -7    0.37    0.16
   7   1  -7    0.82    0.25
  -7   1   7    0.36    0.22
  -7   1   7    0.47    0.24
  -7   1   7    0.42    0.22
  -6  -1   7    6.07    0.36
  -6  -1   7    5.49    0.39
   6  -1  -7    5.47    0.40
  -6   1   7    5.84    0.40
   6   1  -7    6.44    0.45
  -6   1   7    5.63    0.37
  -6   1   7    6.62    0.45
   6   1  -7    6.41    0.42
  -5  -1   7    3.67    0.13
   5  -1  -7    3.37    0.17
  -5  -1   7    3.58    0.33
   5  -1  -7    3.79    0.34
  -5   1   7    3.68    0.30
   5   1  -7    3.50    0.29
  -5   1   7    2.64    0.27
   5   1  -7    3.51    0.30
   4  -1  -7   14.87    0.57
   4  -1  -7   15.39    0.40
  -4  -1   7   14.82    0.56
   4   1  -7   14.23    0.56
  -4   1   7   14.77    0.29
  -4   1   7   14.86    0.50
  -4   1   7   14.96    0.56
   4   1  -7   15.56    0.57
  -3  -1   7   24.22    0.70
   3  -1  -7   24.92    0.58
  -3   1   7   23.78    0.70
   3   1  -7   23.38    0.71
  -3   1   7   24.03    0.62
   2  -1  -7   24.59    0.61
  -2  -1   7   24.67    0.68
   2  -1  -7   25.16    0.47
   2  -1  -7   25.52    0.58
   2   1  -7   23.23    0.71
  -2   1   7   25.17    0.63
  -2   1   7   25.47    0.69
   2   1  -7   24.69    0.47
  -1  -1   7   16.68    0.53
   1  -1  -7   17.38    0.40
   1  -1  -7   17.43    0.49
   1  -1  -7   17.20    0.39
  -1   1   7   17.98    0.53
   1   1  -7   16.86    0.56
  -1   1   7   18.04    0.50
   0  -1  -7   68.53    1.48
   0  -1   7   67.02    1.42
   0  -1  -7   69.89    1.43
   0  -1  -7   68.67    1.22
   0   1  -7   68.34    1.55
   0   1   7   67.77    1.43
  -1  -1  -7    1.87    0.20
   1  -1   7    1.53    0.19
  -1  -1  -7    1.35    0.08
  -1   1  -7    1.79    0.22
   1   1   7    1.31    0.16
  -1   1  -7    1.39    0.17
  -2  -1  -7   13.67    0.50
   2  -1   7   13.42    0.49
  -2  -1  -7   14.97    0.40
  -2  -1  -7   13.87    0.35
  -2   1  -7   13.71    0.46
  -2   1  -7   13.02    0.51
   2   1   7   13.52    0.48
  -2   1  -7   14.17    0.51
  -3  -1  -7    6.56    0.25
  -3  -1  -7    6.48    0.25
   3  -1   7    6.11    0.36
  -3  -1  -7    6.71    0.39
   3   1   7    6.12    0.36
  -3   1  -7    6.49    0.39
   3   1   7    6.08    0.26
  -3   1  -7    6.17    0.37
  -3   1  -7    6.14    0.32
   4  -1   7    0.63    0.16
  -4  -1  -7    1.30    0.16
  -4  -1  -7    0.96    0.20
  -4   1  -7    0.90    0.18
  -4   1  -7    1.21    0.23
   4   1   7    1.07    0.21
  -4   1  -7    0.96    0.22
   5  -1   7    2.32    0.28
  -5  -1  -7    2.72    0.33
  -5  -1  -7    2.38    0.23
   5   1   7    2.19    0.30
  -5   1  -7    2.65    0.34
  -5   1  -7    2.37    0.29
  -5   1  -7    2.04    0.29
  -6  -1  -7    1.80    0.32
  -6  -1  -7    2.40    0.31
   6  -1   7    2.36    0.35
  -6   1  -7    2.04    0.28
   6   1   7    3.13    0.41
  -6   1  -7    2.40    0.32
  -6   1  -7    2.21    0.30
  -7  -1  -7    3.35    0.44
  -7  -1  -7    2.67    0.34
   7  -1   7    3.51    0.46
   7   1   7    3.28    0.42
  -7   1  -7    3.05    0.39
  -7   1  -7    3.18    0.38
   8  -1   7    0.53    0.29
  -8  -1  -7    0.07    0.20
  -8  -1  -7    0.23    0.22
   8   1   7    0.59    0.30
  -8   1  -7    0.16    0.29
  -8   1  -7    0.22    0.25
  -9  -1  -7    0.34    0.24
  -9  -1  -7    0.60    0.33
   9   1   7    0.49    0.26
  -9   1  -7    0.15    0.28
  -9   2   7    2.70    0.41
  -9   2   7    4.40    0.47
   8  -2  -7    1.09    0.30
  -8  -2   7    1.06    0.30
  -8   2   7    0.94    0.27
  -8   2   7    1.20    0.30
   8   2  -7    1.10    0.29
  -8   2   7    0.73    0.26
  -7  -2   7    3.30    0.34
  -7  -2   7    2.68    0.28
   7  -2  -7    2.95    0.34
  -7   2   7    3.09    0.38
  -7   2   7    2.38    0.34
   7   2  -7    3.59    0.40
  -7   2   7    2.40    0.32
  -6  -2   7    0.10    0.12
  -6  -2   7    0.05    0.17
   6  -2  -7    0.07    0.17
  -6   2   7    0.01    0.16
  -6   2   7    0.12    0.16
   6   2  -7    0.03    0.18
  -6   2   7    0.23    0.19
   5  -2  -7    4.71    0.38
  -5  -2   7    4.46    0.20
  -5  -2   7    3.72    0.25
  -5  -2   7    4.08    0.36
   5   2  -7    3.83    0.37
  -5   2   7    4.09    0.35
  -5   2   7    4.36    0.33
   5   2  -7    3.95    0.35
   4  -2  -7    8.72    0.44
  -4  -2   7    9.32    0.44
   4   2  -7    9.18    0.50
  -4   2   7    8.52    0.27
  -4   2   7    8.30    0.38
  -4   2   7    8.39    0.42
  -3  -2   7    9.33    0.41
  -3   2   7    9.13    0.28
   3   2  -7    9.59    0.46
   3   2  -7    9.70    0.29
  -3   2   7    9.87    0.35
  -3   2   7    9.92    0.42
  -2  -2   7    2.06    0.17
   2  -2  -7    2.02    0.13
   2  -2  -7    1.77    0.14
  -2  -2   7    1.97    0.20
   2  -2  -7    1.91    0.19
   2   2  -7    2.03    0.14
  -2   2   7    1.96    0.14
  -2   2   7    2.22    0.14
  -2   2   7    1.85    0.20
   2   2  -7    1.77    0.24
   1  -2  -7    5.24    0.22
   1  -2  -7    4.85    0.26
  -1  -2   7    4.47    0.22
  -1  -2   7    4.37    0.26
   1  -2  -7    4.87    0.15
   1   2  -7    4.26    0.29
  -1   2   7    5.20    0.23
  -1   2   7    5.10    0.27
   0  -2  -7   21.98    0.61
   0  -2  -7   21.49    0.56
   0  -2   7   22.82    0.62
   0   2   7   21.69    0.61
   0   2  -7   23.17    0.73
   1  -2   7   30.02    0.77
  -1  -2  -7   29.92    0.72
  -1  -2  -7   30.46    0.73
  -1  -2  -7   30.40    0.77
  -1   2  -7   29.06    0.77
  -1   2  -7   28.93    0.87
   1   2   7   28.26    0.75
   2  -2   7   17.30    0.56
  -2  -2  -7   17.25    0.51
  -2   2  -7   16.59    0.58
  -2   2  -7   17.56    0.59
   2   2   7   17.34    0.37
   2   2   7   18.01    0.57
  -2   2  -7   15.92    0.60
  -3  -2  -7    0.88    0.15
   3  -2   7    0.73    0.18
  -3   2  -7    0.85    0.19
   3   2   7    0.93    0.17
  -3   2  -7    0.82    0.08
  -3   2  -7    0.77    0.18
   3   2   7    0.99    0.11
  -3   2  -7    0.88    0.17
  -4  -2  -7    4.83    0.27
  -4  -2  -7    4.81    0.25
   4  -2   7    4.55    0.36
   4   2   7    4.75    0.36
  -4   2  -7    5.00    0.40
  -4   2  -7    4.46    0.36
  -4   2  -7    4.65    0.37
   5  -2   7   13.44    0.61
  -5  -2  -7   13.79    0.49
  -5   2  -7   14.25    0.64
   5   2   7   13.67    0.61
  -5   2  -7   14.54    0.66
  -5   2  -7   13.29    0.61
  -6  -2  -7   10.10    0.57
  -6  -2  -7    9.51    0.44
   6  -2   7   10.13    0.58
  -6   2  -7   10.30    0.61
  -6   2  -7    8.65    0.54
   6   2   7    9.89    0.56
  -6   2  -7    9.78    0.56
  -7  -2  -7    0.37    0.18
   7  -2   7    0.27    0.25
  -7  -2  -7    0.62    0.26
   7   2   7    0.76    0.28
  -7   2  -7    0.43    0.25
  -7   2  -7    0.45    0.21
  -7   2  -7    0.24    0.28
   8  -2   7   -0.19    0.23
  -8  -2  -7    0.45    0.22
  -8  -2  -7    0.54    0.26
  -8   2  -7    0.76    0.28
  -8   2  -7    0.05    0.28
   8   2   7    0.30    0.28
  -9  -2  -7    1.00    0.30
   8  -3  -7    1.48    0.31
  -8  -3   7    1.57    0.32
  -8   3   7    0.98    0.28
  -8   3   7    0.90    0.29
   7  -3  -7   -0.03    0.19
  -7  -3   7   -0.20    0.18
  -7   3   7    0.01    0.25
  -7   3   7   -0.10    0.20
   6  -3  -7    0.72    0.23
  -6  -3   7    1.02    0.25
  -6   3   7    0.70    0.21
  -6   3   7    0.85    0.22
  -6   3   7    0.73    0.28
   5  -3  -7    9.63    0.51
  -5  -3   7   10.36    0.50
  -5  -3   7   10.79    0.38
  -5   3   7   10.08    0.49
   5   3  -7   10.78    0.63
  -5   3   7   10.61    0.50
  -4  -3   7   39.94    1.03
  -4   3   7   39.51    0.98
   4   3  -7   39.58    1.22
  -4   3   7   38.79    1.01
  -3  -3   7    2.11    0.21
  -3  -3   7    2.10    0.22
  -3  -3   7    2.06    0.12
  -3   3   7    1.61    0.20
   3   3  -7    1.96    0.27
  -3   3   7    2.11    0.20
  -2  -3   7    0.57    0.08
  -2  -3   7    0.58    0.12
   2  -3  -7    0.39    0.11
   2  -3  -7    0.50    0.09
   2  -3  -7    0.42    0.13
   2  -3  -7    0.71    0.12
  -2  -3   7    0.57    0.13
   2   3  -7    0.67    0.19
  -2   3   7    0.48    0.09
  -2   3   7    0.58    0.13
  -2   3   7    0.44    0.09
  -1  -3   7    3.77    0.24
   1  -3  -7    3.79    0.23
   1  -3  -7    3.67    0.28
  -1  -3   7    3.59    0.22
  -1  -3   7    3.65    0.18
   1  -3  -7    3.66    0.23
  -1   3   7    3.40    0.24
   1   3  -7    3.62    0.31
  -1   3   7    3.53    0.14
  -1   3   7    3.68    0.23
   0  -3  -7    9.44    0.38
   0  -3   7    9.49    0.37
   0  -3  -7    9.73    0.36
   0  -3  -7    9.38    0.41
   0   3  -7    8.84    0.46
   0   3   7    9.39    0.37
  -1  -3  -7    0.96    0.17
   1  -3   7    1.47    0.18
  -1  -3  -7    1.67    0.18
  -1  -3  -7    1.23    0.19
   1   3   7    1.21    0.17
  -1   3  -7    1.03    0.19
  -1   3  -7    1.21    0.19
  -2  -3  -7    7.36    0.35
  -2  -3  -7    7.57    0.39
   2  -3   7    7.86    0.37
  -2  -3  -7    7.65    0.38
  -2   3  -7    7.90    0.39
  -2   3  -7    7.58    0.45
  -2   3  -7    8.22    0.45
   2   3   7    7.05    0.19
   2   3   7    7.80    0.36
  -3  -3  -7   12.92    0.53
  -3  -3  -7   12.05    0.47
   3  -3   7   11.52    0.50
  -3   3  -7   12.04    0.54
  -3   3  -7   12.77    0.54
   3   3   7   11.76    0.49
  -3   3  -7   12.44    0.57
  -4  -3  -7    6.81    0.42
  -4  -3  -7    6.39    0.36
   4  -3   7    7.05    0.42
  -4   3  -7    6.28    0.41
   4   3   7    6.91    0.40
  -4   3  -7    7.02    0.47
  -4   3  -7    5.71    0.40
  -5  -3  -7    3.03    0.30
   5  -3   7    3.93    0.37
  -5   3  -7    3.33    0.35
  -5   3  -7    3.66    0.41
  -5   3  -7    3.29    0.39
   5   3   7    3.21    0.33
   6  -3   7    0.77    0.24
  -6   3  -7    1.05    0.31
  -6   3  -7    0.95    0.27
  -6   3  -7    0.82    0.25
   7  -3   7    4.04    0.45
  -7   3  -7    3.55    0.40
  -7   3  -7    4.06    0.51
  -7   3  -7    3.82    0.42
   8  -4  -7    0.11    0.19
  -8   4   7   -0.28    0.22
  -7  -4   7    0.21    0.20
   7  -4  -7    0.21    0.20
   7  -4  -7    0.19    0.19
  -7   4   7    0.06    0.21
  -7   4   7    0.69    0.26
   6  -4  -7    1.58    0.28
   6  -4  -7    1.92    0.29
  -6  -4   7    1.36    0.25
  -6   4   7    1.43    0.26
  -6   4   7    1.84    0.37
   6   4  -7    1.58    0.31
   5  -4  -7    2.62    0.32
  -5  -4   7    3.21    0.33
   5   4  -7    2.05    0.34
  -5   4   7    2.65    0.32
  -4  -4   7    0.12    0.14
   4  -4  -7    0.05    0.17
   4   4  -7   -0.07    0.14
  -4   4   7    0.07    0.12
  -3  -4   7    0.31    0.13
   3  -4  -7    0.07    0.17
  -3   4   7    0.41    0.13
   3   4  -7    0.41    0.18
   2  -4  -7    3.93    0.35
  -2  -4   7    3.88    0.25
   2   4  -7    2.99    0.34
  -2   4   7    3.86    0.22
   1  -4  -7    2.11    0.23
  -1  -4   7    2.18    0.20
   1  -4  -7    1.92    0.28
   1   4  -7    2.08    0.29
   0  -4  -7    2.68    0.26
   0  -4   7    2.90    0.22
   0  -4  -7    2.90    0.27
   0   4   7    2.96    0.14
   0   4  -7    2.80    0.36
  -1  -4  -7   -0.05    0.11
   1  -4   7    0.06    0.10
  -1  -4  -7    0.06    0.11
  -1   4  -7    0.09    0.14
  -1   4  -7    0.01    0.13
  -1   4  -7    0.04    0.12
   2  -4   7   10.87    0.43
  -2  -4  -7   10.75    0.48
  -2  -4  -7   11.13    0.52
  -2   4  -7   11.70    0.59
  -2   4  -7   10.51    0.47
  -2   4  -7   11.01    0.58
   3  -4   7    2.60    0.26
  -3  -4  -7    2.33    0.31
  -3  -4  -7    2.24    0.29
  -3   4  -7    2.17    0.31
  -3   4  -7    2.16    0.29
  -3   4  -7    2.05    0.29
   4  -4   7    2.95    0.30
  -4  -4  -7    2.97    0.30
  -4   4  -7    3.28    0.37
  -4   4  -7    2.69    0.33
  -4   4  -7    2.73    0.32
  -5  -4  -7    0.17    0.16
   5  -4   7    0.17    0.18
  -5   4  -7    0.11    0.17
  -5   4  -7    0.20    0.20
  -5   4  -7   -0.17    0.19
  -6  -4  -7    0.71    0.22
   6  -4   7    0.87    0.24
  -6   4  -7    0.13    0.25
  -6   4  -7    0.54    0.26
  -6   4  -7    0.57    0.28
  -7  -4  -7    0.84    0.24
   7  -4   7    0.89    0.29
  -7   4  -7    0.89    0.28
  -7   4  -7    1.11    0.33
  -7  -5   7    2.95    0.36
   7  -5  -7    2.24    0.34
   6  -5  -7    2.39    0.35
  -6  -5   7    3.00    0.34
  -6   5   7    3.11    0.45
   6   5  -7    2.02    0.38
  -5  -5   7    0.30    0.16
   5  -5  -7    0.59    0.23
   5   5  -7    0.11    0.26
  -5   5   7   -0.03    0.23
   4  -5  -7    0.29    0.21
  -4  -5   7    0.17    0.14
   4   5  -7    0.60    0.24
  -3  -5   7    1.67    0.20
   3  -5  -7    1.65    0.30
   3   5  -7    1.04    0.31
   2  -5  -7    2.94    0.31
  -2  -5   7    2.79    0.23
   2   5  -7    3.28    0.45
   1  -5  -7    0.43    0.21
   1  -5  -7    0.47    0.18
  -1  -5   7    0.49    0.12
   1   5  -7    0.54    0.20
   0  -5  -7    0.23    0.17
   0  -5   7    0.09    0.10
   0  -5  -7   -0.08    0.13
   0   5  -7    0.10    0.15
  -1  -5  -7    2.70    0.27
  -1  -5  -7    2.47    0.34
   1  -5   7    2.80    0.22
  -1   5  -7    2.03    0.31
  -1   5  -7    2.97    0.39
   2  -5   7    0.02    0.11
  -2  -5  -7   -0.11    0.18
  -2  -5  -7   -0.06    0.15
  -2   5  -7    0.02    0.13
  -2   5  -7   -0.02    0.13
  -2   5  -7    0.02    0.14
  -3  -5  -7    2.87    0.36
   3  -5   7    3.34    0.28
  -3  -5  -7    2.70    0.30
  -3   5  -7    3.18    0.37
  -3   5  -7    2.78    0.39
  -3   5  -7    3.32    0.33
  -4  -5  -7    0.33    0.22
   4  -5   7    0.18    0.14
  -4   5  -7    0.29    0.22
  -4   5  -7    0.35    0.24
  -4   5  -7    0.13    0.19
  -5  -5  -7    1.19    0.29
   5  -5   7    1.00    0.23
  -5   5  -7    1.44    0.31
  -5   5  -7    1.49    0.30
  -5   5  -7    1.10    0.29
   6  -5   7    0.54    0.23
  -6  -5  -7    0.68    0.28
  -6   5  -7    0.38    0.26
  -6  -6   7    0.23    0.18
   5  -6  -7    0.82    0.24
  -5   6   7    0.56    0.29
   4  -6  -7    1.31    0.30
  -4   6   7    1.30    0.29
   4   6  -7    1.13    0.31
   3  -6  -7    0.53    0.25
   3   6  -7    0.14    0.26
   2  -6  -7    0.97    0.28
   2   6  -7    1.42    0.34
   1  -6  -7    0.72    0.26
   1   6  -7    0.55    0.28
   0  -6  -7    0.07    0.21
   0  -6  -7    0.00    0.17
   0   6  -7    0.20    0.23
  -1  -6  -7    0.77    0.26
  -1  -6  -7    0.54    0.24
  -1   6  -7    0.09    0.22
  -1   6  -7    0.63    0.25
  -2  -6  -7    0.53    0.19
  -2  -6  -7    0.57    0.26
  -2   6  -7    0.66    0.23
  -2   6  -7    0.57    0.25
  -3  -6  -7    2.08    0.32
  -3   6  -7    2.64    0.41
  -3   6  -7    1.95    0.33
  -4  -6  -7    1.28    0.31
   4  -6   7    1.72    0.23
  -4   6  -7    1.25    0.31
  -4   6  -7    1.12    0.33
   5  -6   7    1.05    0.23
  -4   7   7    0.91    0.31
   1   7  -7    0.25    0.30
   0   7  -7   -0.17    0.16
  -1  -7  -7    1.17    0.31
  -1   7  -7    1.45    0.35
  -2   7  -7    1.18    0.30
 -10   0   8    3.28    0.46
   9   0  -8    0.50    0.29
  -9   0   8    0.33    0.28
  -9   0   8    0.55    0.26
  -8   0   8    1.31    0.28
   8   0  -8    1.16    0.31
  -8   0   8    1.19    0.32
   7   0  -8   -0.10    0.14
  -7   0   8    0.11    0.17
  -7   0   8   -0.16    0.14
  -6   0   8   17.02    0.69
   6   0  -8   18.08    0.72
  -6   0   8   19.11    0.70
   6   0  -8   17.91    0.60
   5   0  -8    4.63    0.28
   5   0  -8    4.02    0.37
  -5   0   8    4.85    0.38
   4   0  -8    1.19    0.17
  -4   0   8    1.06    0.19
   3   0  -8    1.51    0.16
  -3   0   8    1.20    0.19
  -2   0   8    2.98    0.23
   2   0  -8    2.72    0.06
   2   0  -8    2.78    0.21
   1   0  -8   25.13    0.69
  -1   0   8   23.47    0.68
   0   0   8   25.54    0.72
   0   0  -8   25.61    0.72
  -1   0  -8    0.27    0.08
   1   0   8    0.27    0.11
  -1   0  -8    0.26    0.10
  -2   0  -8    2.90    0.28
   2   0   8    2.37    0.25
  -2   0  -8    2.25    0.16
  -3   0  -8    0.26    0.07
  -3   0  -8    0.32    0.13
  -3   0  -8    0.28    0.13
  -3   0  -8    0.20    0.10
   3   0   8    0.21    0.13
   4   0   8    0.57    0.19
  -4   0  -8    0.33    0.18
  -4   0  -8    0.11    0.13
  -4   0  -8    0.23    0.11
  -5   0  -8    0.06    0.12
   5   0   8   -0.16    0.18
  -5   0  -8   -0.15    0.13
  -5   0  -8   -0.03    0.13
  -6   0  -8    0.15    0.15
  -6   0  -8    0.06    0.23
   6   0   8    0.00    0.15
   7   0   8    2.85    0.42
  -7   0  -8    2.25    0.37
  -7   0  -8    2.40    0.32
  -8   0  -8    2.81    0.43
   8   0   8    4.05    0.46
  -8   0  -8    3.44    0.43
  -9   0  -8   -0.57    0.21
  -9  -1   8    0.02    0.26
   9  -1  -8    0.67    0.30
   9   1  -8    0.94    0.27
  -9   1   8    0.77    0.26
  -9   1   8    0.56    0.29
  -8  -1   8    1.63    0.34
  -8  -1   8    2.12    0.31
   8  -1  -8    1.26    0.31
  -8   1   8    1.16    0.30
   8   1  -8    1.53    0.30
  -8   1   8    1.46    0.29
  -8   1   8    1.09    0.28
  -7  -1   8    2.14    0.34
  -7  -1   8    2.67    0.30
   7  -1  -8    2.63    0.37
  -7   1   8    2.82    0.38
   7   1  -8    2.16    0.34
  -7   1   8    2.20    0.31
   7   1  -8    2.42    0.30
  -7   1   8    2.37    0.31
  -6  -1   8    0.00    0.14
  -6  -1   8    0.27    0.21
   6  -1  -8    0.13    0.19
  -6   1   8    0.10    0.16
   6   1  -8    0.28    0.15
  -6   1   8    0.55    0.23
   6   1  -8    0.33    0.21
  -5  -1   8    0.63    0.18
   5  -1  -8    0.76    0.19
   5  -1  -8    1.04    0.12
   5   1  -8    0.57    0.21
  -5   1   8    0.81    0.19
   5   1  -8    0.56    0.16
  -5   1   8    0.76    0.21
   4  -1  -8    1.53    0.14
  -4  -1   8    1.26    0.22
  -4   1   8    1.49    0.23
   4   1  -8    1.37    0.20
  -3  -1   8    1.56    0.21
   3  -1  -8    1.25    0.14
  -3   1   8    1.63    0.22
   3   1  -8    1.68    0.21
   2  -1  -8   32.12    0.71
  -2  -1   8   30.55    0.84
   2  -1  -8   32.23    0.59
   2  -1  -8   33.18    0.78
  -2   1   8   31.08    0.83
   2   1  -8   31.10    0.59
  -2   1   8   32.14    0.79
   2   1  -8   31.56    0.89
  -1  -1   8    7.55    0.36
   1  -1  -8    8.04    0.24
   1  -1  -8    8.54    0.33
   1  -1  -8    8.15    0.25
   1   1  -8    7.16    0.35
  -1   1   8    7.68    0.36
   0  -1   8   17.81    0.56
   0  -1  -8   18.14    0.38
   0  -1  -8   18.77    0.57
   0   1   8   18.33    0.58
   0   1  -8   17.64    0.60
  -1  -1  -8    5.13    0.16
  -1  -1  -8    5.20    0.29
   1  -1   8    5.43    0.32
  -1   1  -8    5.04    0.28
  -1   1  -8    5.35    0.33
   1   1   8    5.44    0.30
  -2  -1  -8   30.96    0.65
   2  -1   8   31.68    0.85
  -2  -1  -8   31.10    0.69
  -2  -1  -8   30.70    0.88
  -2   1  -8   30.00    0.89
   2   1   8   29.79    0.83
  -2   1  -8   30.67    0.80
  -2   1  -8   30.14    0.85
  -3  -1  -8    0.07    0.11
  -3  -1  -8    0.40    0.09
   3  -1   8    0.13    0.15
  -3  -1  -8    0.39    0.10
  -3   1  -8    0.51    0.16
   3   1   8    0.24    0.16
  -3   1  -8    0.39    0.13
  -3   1  -8    0.55    0.19
   3   1   8    0.27    0.08
  -4  -1  -8    4.14    0.19
  -4  -1  -8    4.56    0.26
   4  -1   8    4.07    0.32
  -4  -1  -8    3.66    0.32
   4   1   8    4.25    0.32
  -4   1  -8    4.02    0.33
  -4   1  -8    4.06    0.40
  -4   1  -8    4.33    0.32
  -5  -1  -8   15.66    0.67
   5  -1   8   12.92    0.60
  -5  -1  -8   14.13    0.51
   5   1   8   14.49    0.62
  -5   1  -8   13.92    0.66
  -5   1  -8   13.82    0.55
  -5   1  -8   12.63    0.60
  -6  -1  -8    1.60    0.23
  -6  -1  -8    1.91    0.34
   6  -1   8    1.88    0.33
  -6   1  -8    2.15    0.32
  -6   1  -8    2.43    0.33
   6   1   8    2.06    0.34
  -6   1  -8    1.87    0.28
  -7  -1  -8    0.74    0.21
  -7  -1  -8    0.89    0.31
   7  -1   8    0.76    0.30
  -7   1  -8    1.15    0.27
   7   1   8    0.90    0.29
  -7   1  -8    1.03    0.32
  -8  -1  -8    1.07    0.34
  -8  -1  -8    1.23    0.27
   8  -1   8    1.73    0.39
  -8   1  -8    1.89    0.35
   8   1   8    1.79    0.39
  -8   1  -8    1.17    0.31
   9   1   8    0.21    0.23
  -9   2   8    0.72    0.28
   8  -2  -8    1.49    0.35
  -8  -2   8    1.23    0.32
  -8   2   8    1.08    0.26
  -8   2   8    1.32    0.29
   8   2  -8    1.38    0.28
  -8   2   8    1.45    0.31
   8   2  -8    1.63    0.32
   7  -2  -8    0.09    0.16
  -7  -2   8   -0.21    0.13
  -7   2   8   -0.19    0.21
   7   2  -8    0.10    0.18
  -7   2   8    0.11    0.18
   7   2  -8    0.04    0.20
  -7   2   8   -0.07    0.20
   6  -2  -8    0.17    0.15
  -6  -2   8   -0.11    0.11
  -6  -2   8    0.01    0.14
  -6   2   8   -0.07    0.15
  -6   2   8   -0.03    0.16
   6   2  -8    0.08    0.16
   6   2  -8    0.18    0.15
  -5  -2   8    0.21    0.18
  -5  -2   8    0.51    0.14
   5  -2  -8    0.57    0.21
   5   2  -8    0.30    0.19
  -5   2   8    0.71    0.22
  -5   2   8    0.15    0.15
  -4  -2   8   30.30    0.88
  -4   2   8   30.24    0.88
   4   2  -8   30.00    0.97
  -4   2   8   30.03    0.79
  -3  -2   8    0.82    0.16
   3   2  -8    1.17    0.20
  -3   2   8    1.18    0.20
   3   2  -8    1.10    0.11
  -3   2   8    1.39    0.11
  -3   2   8    0.92    0.14
   2  -2  -8   15.50    0.40
   2  -2  -8   15.07    0.39
  -2  -2   8   15.05    0.53
   2   2  -8   14.60    0.39
   2   2  -8   14.54    0.59
  -2   2   8   15.47    0.44
  -2   2   8   15.72    0.53
   1  -2  -8    3.63    0.20
   1  -2  -8    3.57    0.12
  -1  -2   8    3.18    0.25
   1  -2  -8    3.71    0.22
   1   2  -8    3.48    0.30
  -1   2   8    3.03    0.25
   0  -2  -8    2.32    0.19
   0  -2   8    2.72    0.24
   0  -2  -8    2.44    0.18
   0   2  -8    2.79    0.28
   0   2   8    2.30    0.20
  -1  -2  -8   10.32    0.39
   1  -2   8    9.89    0.41
  -1  -2  -8   10.55    0.38
  -1   2  -8   10.22    0.47
   1   2   8   10.62    0.43
  -2  -2  -8   11.57    0.42
   2  -2   8   11.77    0.48
  -2   2  -8   12.28    0.50
   2   2   8   11.73    0.48
  -2   2  -8   11.46    0.49
  -2   2  -8   11.86    0.52
  -3  -2  -8   20.44    0.57
   3  -2   8   19.49    0.68
  -3   2  -8   20.48    0.71
   3   2   8   20.20    0.49
  -3   2  -8   18.82    0.43
  -3   2  -8   20.19    0.75
  -3   2  -8   20.11    0.69
   3   2   8   20.01    0.68
   4  -2   8    6.25    0.40
  -4  -2  -8    6.60    0.29
  -4  -2  -8    6.68    0.30
   4   2   8    6.61    0.43
  -4   2  -8    6.66    0.45
  -4   2  -8    6.54    0.47
  -4   2  -8    5.32    0.37
  -5  -2  -8    4.83    0.29
   5  -2   8    5.66    0.44
  -5   2  -8    4.90    0.42
   5   2   8    5.42    0.42
  -5   2  -8    5.73    0.47
  -5   2  -8    4.49    0.44
   6  -2   8    1.41    0.30
  -6  -2  -8    1.74    0.23
  -6   2  -8    1.39    0.25
   6   2   8    1.55    0.32
  -6   2  -8    1.41    0.26
  -6   2  -8    1.39    0.34
   7  -2   8    2.03    0.37
   7   2   8    2.07    0.36
  -7   2  -8    1.95    0.34
  -7   2  -8    1.91    0.38
  -7   2  -8    1.44    0.31
  -8  -2  -8    2.40    0.40
   8  -2   8    2.28    0.38
  -8   2  -8    2.39    0.45
  -8   2  -8    1.97    0.37
  -8  -3   8    0.32    0.26
   8  -3  -8   -0.26    0.21
  -8   3   8    0.32    0.24
   8   3  -8    0.47    0.24
  -8   3   8    0.29    0.23
  -7  -3   8   -0.03    0.20
   7  -3  -8    0.06    0.21
   7   3  -8    0.68    0.26
  -7   3   8    0.28    0.21
  -7   3   8    0.02    0.18
  -6  -3   8    0.23    0.19
   6  -3  -8   -0.36    0.16
  -6   3   8   -0.03    0.16
  -6   3   8   -0.47    0.13
  -6   3   8    0.00    0.17
   6   3  -8    0.05    0.14
  -5  -3   8    5.59    0.40
  -5   3   8    5.07    0.38
   5   3  -8    4.83    0.42
  -5   3   8    5.41    0.36
  -4  -3   8   16.83    0.63
  -4   3   8   17.38    0.63
   4   3  -8   17.50    0.78
  -4   3   8   17.74    0.57
  -3  -3   8    3.74    0.30
   3   3  -8    4.18    0.40
  -3   3   8    3.15    0.28
   2  -3  -8    2.36    0.16
  -2  -3   8    2.61    0.16
  -2  -3   8    2.51    0.21
   2  -3  -8    2.42    0.23
  -2  -3   8    2.24    0.23
   2  -3  -8    2.39    0.20
  -2   3   8    2.30    0.17
   2   3  -8    2.34    0.28
  -2   3   8    2.63    0.23
  -2   3   8    2.43    0.16
  -1  -3   8    0.10    0.11
  -1  -3   8    0.12    0.09
   1  -3  -8    0.04    0.09
   1  -3  -8    0.13    0.14
  -1  -3   8    0.11    0.07
   1  -3  -8    0.15    0.10
  -1   3   8    0.06    0.10
   1   3  -8    0.05    0.11
   0  -3  -8    4.64    0.28
   0  -3  -8    4.66    0.32
   0  -3  -8    4.75    0.27
   0  -3   8    4.63    0.29
   0   3   8    4.75    0.29
   0   3  -8    4.65    0.39
  -1  -3  -8    2.50    0.23
   1  -3   8    2.36    0.23
  -1  -3  -8    2.49    0.23
  -1  -3  -8    2.33    0.24
   1   3   8    2.66    0.24
  -1   3  -8    2.32    0.23
  -1   3  -8    1.72    0.26
  -2  -3  -8   89.45    1.85
  -2  -3  -8   90.35    1.84
   2  -3   8   90.27    1.91
  -2   3  -8   95.62    2.07
  -2   3  -8   93.13    2.00
  -2   3  -8   92.09    2.16
   2   3   8   91.87    1.91
  -3  -3  -8    2.44    0.29
   3  -3   8    2.56    0.30
  -3  -3  -8    2.05    0.24
  -3   3  -8    1.95    0.29
   3   3   8    1.96    0.26
  -3   3  -8    2.46    0.30
  -3   3  -8    2.26    0.30
  -4  -3  -8    8.14    0.39
   4  -3   8    8.38    0.48
  -4  -3  -8    7.66    0.46
  -4   3  -8    8.42    0.49
  -4   3  -8    8.19    0.49
  -4   3  -8    8.56    0.52
   4   3   8    8.23    0.46
   5  -3   8    4.29    0.41
  -5   3  -8    4.13    0.39
  -5   3  -8    4.05    0.43
   5   3   8    3.86    0.37
  -5   3  -8    4.77    0.46
   6  -3   8    1.51    0.31
  -6   3  -8    1.29    0.29
  -6   3  -8    1.86    0.36
  -6   3  -8    1.93    0.34
   7  -3   8    1.15    0.30
  -7   3  -8    1.09    0.34
  -7   3  -8    0.47    0.24
  -7   3  -8    0.56    0.25
   8  -4  -8    0.29    0.22
  -8   4   8   -0.23    0.23
   8   4  -8    0.23    0.26
   7  -4  -8    0.52    0.22
  -7  -4   8    0.39    0.23
  -7   4   8    0.57    0.26
  -7   4   8    0.34    0.22
   7   4  -8    0.66    0.28
   6  -4  -8    0.34    0.20
  -6  -4   8    0.63    0.22
   6   4  -8    0.59    0.23
  -6   4   8    0.28    0.21
  -6   4   8    0.44    0.24
  -5  -4   8    0.88    0.21
   5  -4  -8    1.10    0.25
  -5   4   8    0.69    0.20
   5   4  -8    0.83    0.25
  -4  -4   8    2.60    0.28
   4  -4  -8    2.93    0.30
  -4   4   8    2.77    0.27
   4   4  -8    3.12    0.43
   3  -4  -8    0.16    0.14
  -3  -4   8    0.00    0.13
   3   4  -8    0.47    0.19
  -3   4   8   -0.06    0.10
  -2  -4   8    3.01    0.27
   2  -4  -8    2.58    0.32
   2   4  -8    3.34    0.41
  -1  -4   8    0.52    0.15
   1  -4  -8    0.32    0.18
   1  -4  -8    0.49    0.15
   1   4  -8    0.53    0.19
   0  -4   8   10.54    0.42
   0  -4  -8   10.50    0.44
   0  -4  -8    9.00    0.46
   0   4  -8    9.70    0.55
  -1  -4  -8    4.91    0.34
   1  -4   8    4.53    0.30
  -1  -4  -8    4.49    0.34
  -1   4  -8    4.15    0.43
  -1   4  -8    4.82    0.31
  -1   4  -8    4.64    0.38
  -2  -4  -8    8.41    0.46
  -2  -4  -8    7.78    0.45
   2  -4   8    8.03    0.41
  -2   4  -8    8.26    0.54
  -2   4  -8    7.52    0.43
  -2   4  -8    8.21    0.54
   3  -4   8   13.15    0.54
  -3  -4  -8   12.06    0.55
  -3  -4  -8   12.33    0.55
  -3   4  -8   14.34    0.68
  -3   4  -8   13.75    0.59
  -3   4  -8   14.01    0.68
  -4  -4  -8    1.70    0.27
   4  -4   8    2.55    0.31
  -4  -4  -8    2.12    0.32
  -4   4  -8    2.21    0.33
  -4   4  -8    2.31    0.34
  -4   4  -8    2.63    0.31
   5  -4   8    0.46    0.21
  -5  -4  -8    0.51    0.23
  -5   4  -8    0.75    0.27
  -5   4  -8    0.71    0.27
  -5   4  -8   -0.21    0.21
  -6  -4  -8    2.43    0.35
   6  -4   8    3.66    0.40
  -6   4  -8    2.08    0.39
  -6   4  -8    1.80    0.34
  -6   4  -8    3.26    0.41
  -7   4  -8   -0.27    0.18
   7  -5  -8    0.66    0.25
  -6  -5   8    0.32    0.19
   6  -5  -8    0.50    0.24
  -6   5   8    0.52    0.30
   6   5  -8    0.67    0.32
  -5  -5   8    1.13    0.23
   5  -5  -8    1.15    0.25
  -5   5   8    1.30    0.29
   5   5  -8    1.45    0.37
   4  -5  -8    0.29    0.21
  -4  -5   8   -0.14    0.12
   4   5  -8   -0.04    0.17
   3  -5  -8   -0.15    0.18
  -3  -5   8    0.28    0.15
   3   5  -8   -0.14    0.20
  -2  -5   8    0.39    0.13
   2  -5  -8    0.46    0.18
   2   5  -8    0.40    0.25
   1  -5  -8    4.95    0.36
  -1  -5   8    5.37    0.29
   1  -5  -8    4.70    0.38
   1   5  -8    4.98    0.52
   0  -5  -8    0.56    0.20
   0  -5   8    0.83    0.16
   0  -5  -8    1.11    0.23
   0   5  -8    0.89    0.27
  -1  -5  -8    1.25    0.25
   1  -5   8    0.93    0.17
  -1  -5  -8    0.98    0.26
  -1   5  -8    0.97    0.27
  -1   5  -8    0.92    0.27
   2  -5   8    0.76    0.17
  -2  -5  -8    1.00    0.25
  -2  -5  -8    1.12    0.26
  -2   5  -8    0.55    0.21
  -2   5  -8    0.93    0.21
  -2   5  -8    0.78    0.25
   3  -5   8    1.17    0.20
  -3  -5  -8    1.23    0.27
  -3  -5  -8    1.56    0.29
  -3   5  -8    1.17    0.26
  -3   5  -8    1.37    0.25
  -3   5  -8    1.19    0.26
  -4  -5  -8    2.06    0.32
   4  -5   8    1.96    0.27
  -4   5  -8    1.85    0.32
  -4   5  -8    1.82    0.33
  -4   5  -8    2.49    0.38
  -5  -5  -8    1.72    0.31
   5  -5   8    1.15    0.24
  -5   5  -8    1.17    0.31
  -5   5  -8    1.76    0.34
  -5   5  -8    1.70    0.32
   6  -5   8    0.48    0.23
  -6   5  -8    0.49    0.27
  -6  -6   8    0.24    0.19
  -5  -6   8    1.62    0.24
  -5   6   8    1.47    0.37
   4  -6  -8    0.79    0.28
   4   6  -8    0.71    0.32
   3  -6  -8    0.17    0.22
   3   6  -8    0.28    0.20
   2  -6  -8    2.13    0.34
   2   6  -8    1.52    0.32
   1  -6  -8   -0.11    0.20
   1   6  -8    0.09    0.18
   0  -6  -8    0.39    0.18
   0  -6  -8    0.64    0.27
   0   6  -8    0.51    0.27
  -1  -6  -8    4.33    0.45
  -1  -6  -8    4.31    0.37
  -1   6  -8    4.28    0.51
  -1   6  -8    3.36    0.45
  -2  -6  -8    0.30    0.18
  -2  -6  -8    0.70    0.24
  -2   6  -8    0.23    0.18
  -2   6  -8    0.25    0.21
  -3  -6  -8   -0.28    0.22
  -3  -6  -8    0.11    0.21
  -3   6  -8    0.24    0.26
  -3   6  -8    0.09    0.24
   4  -6   8    0.10    0.14
  -4   6  -8   -0.20    0.23
   5  -6   8    0.06    0.16
   0  -7  -8   -0.16    0.19
  -1   7  -8    0.52    0.23
  -2   7  -8    0.59    0.27
   9   0  -9    0.94    0.32
  -9   0   9    0.24    0.28
  -9   0   9    0.89    0.29
  -8   0   9   -0.15    0.23
   8   0  -9   -0.11    0.21
  -8   0   9   -0.13    0.17
   7   0  -9    0.07    0.20
  -7   0   9    0.40    0.21
  -7   0   9    0.29    0.20
  -6   0   9    2.05    0.33
   6   0  -9    1.90    0.32
   6   0  -9    2.40    0.24
   5   0  -9    1.00    0.16
  -5   0   9    0.98    0.21
   4   0  -9    1.22    0.17
  -4   0   9    1.39    0.24
  -3   0   9    4.24    0.30
   3   0  -9    4.48    0.27
  -2   0   9    1.38    0.19
   2   0  -9    1.87    0.19
   2   0  -9    1.72    0.07
   1   0  -9    0.22    0.12
  -1   0   9    0.04    0.13
   0   0   9   23.51    0.71
   0   0  -9   23.26    0.71
   1   0   9    6.26    0.36
  -1   0  -9    7.04    0.28
  -1   0  -9    7.08    0.39
  -2   0  -9   10.00    0.46
   2   0   9    8.65    0.42
  -2   0  -9    9.45    0.34
  -3   0  -9    6.33    0.22
  -3   0  -9    5.90    0.29
  -3   0  -9    5.97    0.38
   3   0   9    6.60    0.38
  -4   0  -9   12.58    0.58
  -4   0  -9   13.25    0.61
   4   0   9   12.81    0.59
  -4   0  -9   12.76    0.47
  -5   0  -9    0.49    0.16
  -5   0  -9    0.70    0.21
  -5   0  -9    0.25    0.20
   5   0   9    0.46    0.24
  -6   0  -9    1.41    0.23
   6   0   9    1.85    0.32
  -6   0  -9    1.50    0.29
  -7   0  -9   -0.06    0.17
  -7   0  -9    0.61    0.32
   7   0   9    0.74    0.29
  -8   0  -9    0.21    0.31
   8   0   9    0.24    0.22
  -9   0  -9   -0.66    0.20
   9   1  -9    0.88    0.32
  -9   1   9    0.11    0.27
  -9   1   9   -0.13    0.22
  -8  -1   9    1.02    0.24
  -8  -1   9    0.33    0.27
   8  -1  -9    0.57    0.28
  -8   1   9    0.78    0.28
   8   1  -9    0.97    0.27
  -8   1   9    0.75    0.25
  -7  -1   9    0.27    0.18
  -7  -1   9    0.15    0.23
   7  -1  -9    0.41    0.24
   7   1  -9    0.46    0.25
  -7   1   9    0.58    0.25
  -7   1   9    0.16    0.23
  -6  -1   9    0.66    0.18
  -6  -1   9    0.31    0.21
   6  -1  -9    0.45    0.24
  -6   1   9    0.38    0.22
   6   1  -9    0.59    0.23
   6   1  -9    0.39    0.16
  -5  -1   9    3.21    0.32
  -5   1   9    3.75    0.38
   5   1  -9    4.27    0.35
   4  -1  -9   13.23    0.41
  -4  -1   9   12.79    0.56
   4   1  -9   13.11    0.54
  -4   1   9   12.40    0.53
   3  -1  -9   13.88    0.44
  -3  -1   9   13.43    0.53
   3   1  -9   13.35    0.53
  -3   1   9   14.35    0.56
   2  -1  -9   13.71    0.45
   2  -1  -9   12.70    0.30
  -2  -1   9   12.79    0.51
   2  -1  -9   13.28    0.38
   2   1  -9   13.95    0.54
  -2   1   9   13.07    0.50
   2   1  -9   12.84    0.30
   1  -1  -9   11.64    0.43
   1  -1  -9   11.15    0.32
  -1  -1   9   10.62    0.46
   1  -1  -9   11.21    0.30
   1   1  -9   11.01    0.46
  -1   1   9   10.66    0.44
   0  -1  -9    9.66    0.24
   0  -1   9    9.54    0.43
   0  -1  -9    9.63    0.40
   0   1   9    9.35    0.41
   0   1  -9    9.80    0.45
  -1  -1  -9   17.16    0.61
  -1  -1  -9   16.25    0.38
   1  -1   9   16.97    0.59
  -1   1  -9   17.53    0.55
  -1   1  -9   17.88    0.64
   1   1   9   16.84    0.58
  -2  -1  -9    7.20    0.39
  -2  -1  -9    6.85    0.23
   2  -1   9    7.27    0.40
  -2  -1  -9    7.25    0.29
  -2   1  -9    6.86    0.35
  -2   1  -9    7.75    0.44
   2   1   9    7.36    0.41
  -3  -1  -9    3.20    0.20
   3  -1   9    3.15    0.32
  -3  -1  -9    3.47    0.35
  -3  -1  -9    3.46    0.20
   3   1   9    3.69    0.34
  -3   1  -9    3.17    0.27
  -3   1  -9    3.13    0.28
  -3   1  -9    3.13    0.31
   4  -1   9    0.92    0.23
  -4  -1  -9    1.05    0.24
  -4  -1  -9    1.35    0.17
  -4  -1  -9    1.21    0.14
  -4   1  -9    1.20    0.24
  -4   1  -9    1.05    0.27
  -4   1  -9    1.08    0.19
   4   1   9    1.10    0.22
  -5  -1  -9    1.52    0.19
  -5  -1  -9    1.46    0.28
   5  -1   9    1.05    0.27
  -5   1  -9    1.00    0.27
  -5   1  -9    1.18    0.29
  -5   1  -9    1.10    0.21
   5   1   9    1.49    0.26
  -6  -1  -9    1.44    0.29
  -6  -1  -9    1.31    0.22
   6  -1   9    1.24    0.31
  -6   1  -9    1.22    0.25
   6   1   9    0.97    0.29
  -6   1  -9    0.96    0.27
  -6   1  -9    0.89    0.23
   7  -1   9    0.61    0.30
  -7  -1  -9    0.70    0.20
  -7  -1  -9    0.14    0.25
  -7   1  -9    0.66    0.21
  -7   1  -9    0.60    0.23
   7   1   9    0.15    0.25
  -7   1  -9   -0.16    0.26
   8  -1   9    0.15    0.28
  -8  -1  -9    0.24    0.28
  -8   1  -9    0.05    0.23
   8   1   9    0.58    0.31
  -8   1  -9    0.34    0.30
   8  -2  -9    0.18    0.27
  -8  -2   9   -0.13    0.23
  -8   2   9    0.39    0.28
  -8   2   9    0.60    0.23
  -8   2   9    0.33    0.23
   7  -2  -9    0.02    0.15
  -7  -2   9   -0.04    0.15
  -7   2   9    0.13    0.18
  -7   2   9    0.09    0.25
   7   2  -9   -0.11    0.15
   7   2  -9   -0.33    0.18
  -7   2   9    0.08    0.21
  -6  -2   9    0.56    0.23
  -6  -2   9    0.33    0.15
  -6   2   9    0.49    0.18
   6   2  -9    0.29    0.18
  -6   2   9    0.48    0.19
  -5  -2   9    1.34    0.23
  -5   2   9    1.15    0.21
   5   2  -9    1.03    0.23
  -5   2   9    1.01    0.24
  -4  -2   9   21.55    0.74
  -4   2   9   21.74    0.74
   4   2  -9   21.64    0.81
  -4   2   9   21.33    0.64
  -3  -2   9   29.60    0.87
  -3   2   9   29.04    0.85
   3   2  -9   30.84    0.97
  -2  -2   9    6.79    0.38
   2  -2  -9    7.47    0.25
   2  -2  -9    7.40    0.26
   2  -2  -9    7.36    0.30
   2   2  -9    7.31    0.26
   2   2  -9    7.38    0.44
  -2   2   9    7.38    0.39
  -2   2   9    7.88    0.31
   1  -2  -9    0.41    0.10
   1  -2  -9    0.36    0.12
  -1  -2   9    0.42    0.13
   1  -2  -9    0.37    0.05
   1   2  -9    0.26    0.15
  -1   2   9    0.26    0.15
   0  -2  -9    2.66    0.24
   0  -2   9    2.47    0.22
   0  -2  -9    2.20    0.19
   0   2   9    2.17    0.24
   0   2  -9    2.34    0.28
  -1  -2  -9   18.46    0.57
  -1  -2  -9   19.39    0.57
   1  -2   9   18.80    0.63
  -1  -2  -9   18.09    0.63
   1   2   9   19.31    0.63
  -1   2  -9   18.45    0.69
  -1   2  -9   18.78    0.63
  -2  -2  -9   25.01    0.69
   2  -2   9   26.59    0.80
  -2   2  -9   27.32    0.82
   2   2   9   24.62    0.78
  -2   2  -9   25.59    0.85
  -2   2  -9   26.02    0.80
   3  -2   9   71.95    1.63
  -3  -2  -9   69.08    1.41
   3   2   9   71.32    1.62
  -3   2  -9   71.14    1.63
  -3   2  -9   67.38    1.73
  -3   2  -9   68.06    1.66
   4  -2   9    9.10    0.51
  -4  -2  -9    9.27    0.33
  -4  -2  -9    9.05    0.37
   4   2   9    8.44    0.49
  -4   2  -9    8.84    0.47
  -4   2  -9    9.45    0.57
  -4   2  -9    9.09    0.51
   5  -2   9    0.86    0.27
  -5  -2  -9    0.60    0.14
  -5   2  -9    0.83    0.20
   5   2   9    0.62    0.20
  -5   2  -9    1.04    0.28
  -5   2  -9    0.68    0.23
   6  -2   9    1.99    0.34
  -6   2  -9    1.35    0.31
   6   2   9    1.11    0.29
  -6   2  -9    1.52    0.29
  -6   2  -9    1.76    0.34
   7  -2   9    1.17    0.33
   7   2   9    1.20    0.32
  -7   2  -9    1.37    0.32
  -7   2  -9    0.95    0.24
  -7   2  -9    1.42    0.31
  -8   2  -9    0.84    0.29
  -8   3   9    0.55    0.26
   8   3  -9    1.12    0.30
  -7  -3   9    1.13    0.28
  -7   3   9    0.63    0.23
   7   3  -9    0.31    0.23
  -7   3   9    0.79    0.26
  -6  -3   9    0.24    0.20
   6   3  -9    0.38    0.22
  -6   3   9   -0.01    0.15
  -5  -3   9    1.00    0.23
   5   3  -9    1.13    0.27
  -5   3   9    0.99    0.19
  -5   3   9    1.02    0.23
  -4  -3   9   10.09    0.50
   4   3  -9    9.83    0.60
  -4   3   9   10.34    0.42
  -4   3   9   10.69    0.50
  -3  -3   9    5.33    0.37
   3   3  -9    6.06    0.44
  -3   3   9    5.40    0.36
  -3   3   9    5.61    0.27
   2  -3  -9    2.09    0.19
  -2  -3   9    1.96    0.24
   2   3  -9    2.25    0.32
  -2   3   9    1.95    0.24
   1  -3  -9    2.28    0.23
   1  -3  -9    1.86    0.19
  -1  -3   9    1.74    0.23
  -1  -3   9    1.90    0.23
   1   3  -9    1.74    0.26
  -1   3   9    1.52    0.21
   0  -3  -9    8.27    0.42
   0  -3   9    8.70    0.42
   0  -3  -9    8.83    0.38
   0   3  -9    8.57    0.52
   0   3   9    8.34    0.40
  -1  -3  -9    5.59    0.36
   1  -3   9    5.12    0.35
  -1  -3  -9    6.43    0.35
  -1   3  -9    5.26    0.40
   1   3   9    6.10    0.36
  -2  -3  -9   19.57    0.65
   2  -3   9   19.46    0.67
  -2  -3  -9   19.18    0.66
   2   3   9   18.56    0.65
  -2   3  -9   19.41    0.75
  -2   3  -9   18.92    0.68
  -2   3  -9   18.65    0.75
  -3  -3  -9   26.68    0.78
  -3  -3  -9   27.69    0.85
   3  -3   9   28.01    0.87
  -3   3  -9   27.70    0.97
  -3   3  -9   28.67    0.94
  -3   3  -9   27.20    0.90
   3   3   9   26.83    0.84
  -4  -3  -9    6.27    0.38
   4  -3   9    6.92    0.47
  -4  -3  -9    6.60    0.45
  -4   3  -9    7.36    0.50
   4   3   9    6.07    0.42
  -4   3  -9    6.76    0.53
  -4   3  -9    7.68    0.51
   5  -3   9    1.24    0.28
  -5   3  -9    1.18    0.31
  -5   3  -9    1.13    0.27
  -5   3  -9    1.27    0.31
   6  -3   9    2.40    0.37
  -6   3  -9    2.20    0.36
  -6   3  -9    2.52    0.41
  -6   3  -9    3.43    0.44
   7  -3   9    1.11    0.32
  -7   3  -9    0.86    0.29
  -7   3  -9    1.14    0.30
  -7   3  -9    0.86    0.30
   8  -4  -9    0.35    0.24
   7  -4  -9   -0.13    0.18
  -7  -4   9   -0.25    0.19
  -7   4   9   -0.31    0.16
   7   4  -9    0.14    0.25
   6  -4  -9    0.68    0.25
  -6  -4   9    0.64    0.22
  -6   4   9    0.54    0.24
   6   4  -9    0.88    0.26
   5  -4  -9    1.25    0.27
  -5  -4   9    0.99    0.23
   5   4  -9    0.73    0.24
  -4  -4   9    2.02    0.27
   4  -4  -9    2.55    0.34
   4   4  -9    2.15    0.36
  -3  -4   9    1.48    0.23
   3  -4  -9    2.02    0.31
   3   4  -9    1.35    0.27
  -2  -4   9    0.31    0.17
   2  -4  -9    0.68    0.16
   2  -4  -9    0.78    0.20
   2   4  -9    0.64    0.24
   1  -4  -9    5.08    0.32
   1  -4  -9    5.07    0.36
  -1  -4   9    5.60    0.35
   1   4  -9    5.56    0.45
   0  -4   9   16.49    0.58
   0  -4  -9   15.68    0.64
   0  -4  -9   15.21    0.57
   0   4  -9   16.03    0.73
  -1  -4  -9    6.66    0.43
  -1  -4  -9    6.27    0.39
   1  -4   9    5.93    0.36
  -1   4  -9    6.47    0.46
  -1   4  -9    5.96    0.49
   2  -4   9    2.11    0.27
  -2  -4  -9    2.49    0.32
  -2  -4  -9    2.29    0.26
  -2   4  -9    2.37    0.28
  -2   4  -9    1.50    0.30
  -2   4  -9    1.79    0.31
   3  -4   9    4.63    0.36
  -3  -4  -9    4.52    0.35
  -3  -4  -9    4.57    0.37
  -3   4  -9    4.56    0.46
  -3   4  -9    4.96    0.48
  -3   4  -9    5.08    0.43
  -4  -4  -9    2.17    0.34
  -4  -4  -9    2.26    0.30
  -4   4  -9    2.15    0.35
  -4   4  -9    2.72    0.37
  -4   4  -9    2.22    0.35
  -5  -4  -9    2.25    0.36
   5  -4   9    2.22    0.33
  -5   4  -9    2.25    0.37
  -5   4  -9    2.55    0.39
  -5   4  -9    1.88    0.36
  -6  -4  -9    2.21    0.38
   6  -4   9    2.49    0.36
  -6   4  -9    1.32    0.33
  -6   4  -9    1.75    0.32
  -6   4  -9    2.63    0.42
  -6  -5   9    0.75    0.24
   6  -5  -9    0.65    0.22
   6   5  -9    0.61    0.32
  -6   5   9    0.54    0.32
   5  -5  -9    1.25    0.29
  -5  -5   9    0.80    0.22
   5   5  -9    0.96    0.34
   4  -5  -9    1.10    0.26
  -4  -5   9    0.59    0.19
   4   5  -9    0.53    0.30
  -3  -5   9    0.70    0.17
   3  -5  -9    0.86    0.23
   3   5  -9    0.96    0.26
  -2  -5   9    1.09    0.19
   2  -5  -9    1.09    0.28
   2   5  -9    0.84    0.25
   1  -5  -9    3.62    0.32
  -1  -5   9    3.63    0.28
   1  -5  -9    3.04    0.34
   1   5  -9    3.76    0.48
   0  -5  -9    1.76    0.27
   0  -5  -9    1.32    0.28
   0  -5   9    0.93    0.18
   0   5  -9    1.21    0.27
  -1  -5  -9    0.70    0.19
  -1  -5  -9    0.76    0.26
   1  -5   9    0.52    0.16
  -1   5  -9    0.51    0.21
  -1   5  -9    0.37    0.25
  -2  -5  -9    0.25    0.18
   2  -5   9    0.48    0.16
  -2  -5  -9    0.73    0.25
  -2   5  -9    0.71    0.27
  -2   5  -9    0.66    0.26
   3  -5   9   -0.23    0.11
  -3  -5  -9   -0.02    0.18
  -3  -5  -9   -0.04    0.18
  -3   5  -9   -0.06    0.15
  -3   5  -9    0.00    0.17
  -3   5  -9    0.36    0.20
  -4  -5  -9    0.28    0.18
   4  -5   9    0.24    0.18
  -4   5  -9    0.26    0.26
  -4   5  -9    0.11    0.24
  -4   5  -9    0.22    0.21
   5  -5   9    0.14    0.20
  -5  -5  -9    0.16    0.23
  -5   5  -9   -0.46    0.24
  -5   5  -9    0.23    0.24
  -5   5  -9    0.19    0.26
  -6   5  -9    0.11    0.26
  -5  -6   9    0.35    0.20
   3  -6  -9    1.11    0.28
   3   6  -9    1.27    0.35
   2  -6  -9    0.03    0.22
   2   6  -9    0.39    0.30
   1  -6  -9   -0.18    0.20
   1  -6  -9    0.05    0.17
   1   6  -9   -0.07    0.23
   0  -6  -9    0.38    0.25
   0  -6  -9   -0.02    0.19
   0   6  -9    0.39    0.22
  -1  -6  -9    1.68    0.33
  -1  -6  -9    1.99    0.32
  -1   6  -9    1.21    0.29
  -1   6  -9    0.94    0.28
  -2  -6  -9    1.08    0.29
  -2  -6  -9    0.67    0.27
  -2   6  -9    0.49    0.22
  -2   6  -9    0.86    0.26
  -3  -6  -9   -0.22    0.15
   3  -6   9   -0.15    0.12
  -3  -6  -9    0.12    0.22
  -3   6  -9   -0.08    0.24
   4  -6   9    0.47    0.19
  -4   6  -9    0.28    0.22
  -9   0  10    1.00    0.29
  -8   0  10    0.85    0.31
  -8   0  10    0.49    0.25
   8   0 -10    1.61    0.36
   7   0 -10   -0.34    0.13
  -7   0  10   -0.12    0.17
  -7   0  10   -0.10    0.16
  -6   0  10   -0.11    0.20
   5   0 -10    0.52    0.13
  -5   0  10    0.38    0.18
  -4   0  10    0.49    0.20
   4   0 -10    0.41    0.13
   3   0 -10    1.09    0.17
  -3   0  10    1.17    0.20
  -2   0  10    2.87    0.26
   2   0 -10    2.74    0.10
   2   0 -10    3.07    0.26
  -1   0  10   15.66    0.59
   1   0 -10   15.56    0.57
   0   0  10   15.17    0.56
   0   0 -10   15.74    0.57
  -1   0 -10    0.34    0.10
   1   0  10    0.14    0.16
  -1   0 -10    0.44    0.14
   2   0  10    6.87    0.42
  -2   0 -10    7.22    0.42
  -2   0 -10    7.19    0.31
  -3   0 -10    0.68    0.12
   3   0  10    0.26    0.19
  -3   0 -10    0.54    0.18
  -3   0 -10    0.64    0.10
  -4   0 -10    4.66    0.30
   4   0  10    4.30    0.41
  -4   0 -10    4.44    0.42
  -5   0 -10    1.37    0.28
  -5   0 -10    1.03    0.20
  -5   0 -10    1.48    0.30
   5   0  10    1.00    0.29
  -6   0 -10    0.10    0.19
  -6   0 -10    0.00    0.16
   6   0  10   -0.25    0.19
  -6   0 -10   -0.07    0.15
  -7   0 -10    2.25    0.42
  -7   0 -10    1.40    0.26
   7   0  10    1.74    0.38
   8   0  10    0.76    0.34
   9   1 -10    1.40    0.37
  -9   1  10    0.93    0.34
  -9   1  10    1.11    0.34
   8  -1 -10   -0.05    0.24
  -8  -1  10   -0.02    0.26
  -8   1  10    0.51    0.27
   8   1 -10    0.06    0.23
  -8   1  10   -0.04    0.22
  -7  -1  10    0.31    0.18
  -7  -1  10    0.01    0.23
  -7   1  10   -0.01    0.23
  -7   1  10    0.06    0.22
  -6  -1  10    0.95    0.28
  -6   1  10    0.94    0.26
   6   1 -10    1.23    0.22
  -5  -1  10    3.13    0.37
   5   1 -10    3.38    0.34
  -5   1  10    3.05    0.38
   4  -1 -10    0.24    0.10
  -4  -1  10    0.12    0.17
   4   1 -10    0.16    0.14
  -4   1  10    0.42    0.16
   3  -1 -10    5.84    0.30
  -3  -1  10    5.95    0.37
   3   1 -10    6.28    0.39
  -3   1  10    5.51    0.40
   2  -1 -10    0.87    0.15
  -2  -1  10    0.77    0.20
   2  -1 -10    0.92    0.09
   2  -1 -10    0.78    0.11
   2   1 -10    1.11    0.20
   2   1 -10    0.97    0.09
  -2   1  10    0.93    0.21
   1  -1 -10    8.95    0.40
   1  -1 -10    8.75    0.27
   1  -1 -10    8.27    0.28
  -1  -1  10    8.71    0.42
  -1   1  10    8.55    0.44
   1   1 -10    9.27    0.46
   0  -1 -10    2.19    0.22
   0  -1  10    2.79    0.29
   0  -1 -10    2.16    0.11
   0  -1 -10    1.93    0.13
   0   1 -10    2.92    0.26
   0   1  10    2.17    0.27
  -1  -1 -10   32.26    0.93
   1  -1  10   30.74    0.90
  -1  -1 -10   30.10    0.63
  -1   1 -10   31.72    0.84
   1   1  10   30.50    0.88
  -1   1 -10   32.82    0.97
  -2  -1 -10    3.86    0.36
  -2  -1 -10    3.87    0.25
   2  -1  10    3.87    0.31
  -2  -1 -10    3.64    0.17
   2   1  10    3.54    0.30
  -2   1 -10    4.01    0.34
  -2   1 -10    3.96    0.28
  -3  -1 -10    1.60    0.15
  -3  -1 -10    1.25    0.16
   3  -1  10    1.31    0.26
  -3  -1 -10    1.61    0.25
  -3   1 -10    1.46    0.24
   3   1  10    1.23    0.22
  -3   1 -10    0.96    0.22
  -3   1 -10    1.71    0.22
  -4  -1 -10    1.90    0.19
  -4  -1 -10    2.13    0.29
   4  -1  10    1.82    0.28
  -4   1 -10    2.40    0.27
  -4   1 -10    1.83    0.31
  -4   1 -10    2.14    0.31
   4   1  10    1.85    0.28
   5  -1  10    0.85    0.24
  -5  -1 -10    0.75    0.16
  -5   1 -10    0.65    0.27
   5   1  10    0.89    0.24
  -5   1 -10    0.93    0.28
  -5   1 -10    0.84    0.20
  -6  -1 -10    0.01    0.14
   6  -1  10    0.34    0.26
  -6   1 -10    0.21    0.18
  -6   1 -10    0.16    0.23
  -6   1 -10    0.08    0.26
   6   1  10    0.38    0.26
   7  -1  10    0.98    0.34
  -7  -1 -10    1.59    0.37
  -7   1 -10    0.98    0.26
  -7   1 -10    1.38    0.38
  -7   1 -10    1.67    0.33
   7   1  10    1.09    0.34
  -8  -1 -10    1.07    0.37
  -8   1 -10    0.68    0.26
   8   1  10    0.57    0.35
  -8  -2  10    0.41    0.27
  -8   2  10    0.36    0.26
  -8   2  10    0.44    0.30
  -7  -2  10    0.06    0.17
  -7   2  10   -0.15    0.23
   7   2 -10    0.32    0.21
  -7   2  10   -0.05    0.20
  -6  -2  10    0.56    0.24
  -6   2  10    0.19    0.17
   6   2 -10    0.16    0.17
  -5  -2  10    1.91    0.30
   5   2 -10    2.09    0.28
  -5   2  10    1.93    0.29
  -4  -2  10    3.48    0.35
   4   2 -10    3.30    0.37
  -4   2  10    3.52    0.35
  -3  -2  10    9.34    0.49
   3  -2 -10    9.38    0.33
   3   2 -10    9.24    0.50
  -3   2  10    8.30    0.47
   2  -2 -10    4.29    0.20
  -2  -2  10    4.08    0.34
   2  -2 -10    4.69    0.26
   2   2 -10    4.57    0.38
  -2   2  10    4.39    0.32
   1  -2 -10    1.37    0.16
  -1  -2  10    1.13    0.21
   1  -2 -10    1.44    0.19
   1  -2 -10    1.27    0.05
   1   2 -10    1.01    0.22
  -1   2  10    1.00    0.21
   0  -2  10    5.24    0.36
   0  -2 -10    4.62    0.32
   0  -2 -10    4.99    0.27
   0   2  10    4.40    0.31
   0   2 -10    4.78    0.35
  -1  -2 -10   32.73    0.83
   1  -2  10   33.03    0.93
  -1  -2 -10   32.68    0.85
  -1  -2 -10   33.31    0.97
  -1   2 -10   34.64    1.05
  -1   2 -10   33.59    0.95
   1   2  10   32.62    0.93
   2  -2  10    0.41    0.17
  -2  -2 -10    0.57    0.17
  -2   2 -10    0.54    0.19
  -2   2 -10    0.52    0.18
   2   2  10    0.55    0.21
  -3  -2 -10   11.71    0.46
   3  -2  10   13.43    0.60
  -3   2 -10   13.65    0.67
  -3   2 -10   13.57    0.58
  -3   2 -10   12.70    0.58
   3   2  10   11.15    0.53
   4  -2  10    0.86    0.21
  -4  -2 -10    0.87    0.16
   4   2  10    0.71    0.24
  -4   2 -10    0.72    0.22
  -4   2 -10    0.65    0.21
  -4   2 -10    0.61    0.20
   5  -2  10    0.05    0.22
  -5   2 -10    0.25    0.25
  -5   2 -10    0.13    0.14
  -5   2 -10    0.06    0.18
   5   2  10    0.11    0.17
   6  -2  10    0.26    0.24
  -6   2 -10    0.52    0.27
   6   2  10    0.77    0.28
  -6   2 -10    0.45    0.22
  -6   2 -10    0.21    0.21
   7  -2  10    1.14    0.35
   7   2  10    0.94    0.32
  -7   2 -10    1.26    0.38
  -7   2 -10    0.91    0.24
  -7   2 -10    0.85    0.25
  -8   3  10    1.56    0.31
  -7  -3  10    0.40    0.25
  -7   3  10    0.31    0.20
  -7   3  10    0.24    0.23
   7   3 -10    0.36    0.22
  -6  -3  10    1.89    0.32
   6   3 -10    1.73    0.33
  -6   3  10    1.40    0.23
  -5  -3  10    0.31    0.20
  -5   3  10    0.10    0.18
   5   3 -10    0.20    0.20
  -5   3  10    0.23    0.14
  -4  -3  10    0.81    0.23
  -4   3  10    1.27    0.24
  -4   3  10    1.28    0.18
   4   3 -10    0.97    0.23
  -3  -3  10   14.98    0.60
  -3   3  10   14.70    0.59
   3   3 -10   14.69    0.70
  -2  -3  10    1.02    0.22
   2  -3 -10    1.18    0.16
   2   3 -10    0.76    0.24
  -2   3  10    1.20    0.22
  -1  -3  10    2.04    0.26
   1  -3 -10    2.06    0.22
   1  -3 -10    2.16    0.28
   1   3 -10    2.34    0.30
  -1   3  10    1.94    0.25
   0  -3 -10   12.63    0.47
   0  -3 -10   13.16    0.54
   0  -3  10   12.73    0.54
   0   3 -10   13.06    0.62
   0   3  10   12.16    0.52
  -1  -3 -10    5.69    0.38
   1  -3  10    4.75    0.38
  -1  -3 -10    5.72    0.35
   1   3  10    5.52    0.38
  -1   3 -10    5.54    0.47
  -1   3 -10    5.15    0.43
  -2  -3 -10    2.58    0.30
  -2  -3 -10    2.67    0.29
   2  -3  10    1.77    0.26
   2   3  10    2.58    0.31
  -2   3 -10    1.67    0.28
  -2   3 -10    2.56    0.31
  -2   3 -10    1.70    0.26
  -3  -3 -10    7.97    0.44
   3  -3  10    8.08    0.49
  -3  -3 -10    8.04    0.46
   3   3  10    7.49    0.45
  -3   3 -10    7.39    0.54
  -3   3 -10    8.97    0.51
  -3   3 -10    7.53    0.51
  -4  -3 -10    9.86    0.46
   4  -3  10   10.00    0.56
  -4  -3 -10    9.13    0.53
  -4   3 -10    9.74    0.55
  -4   3 -10    9.46    0.57
   4   3  10    9.30    0.55
  -4   3 -10   10.45    0.59
   5  -3  10   -0.22    0.19
  -5   3 -10   -0.02    0.23
  -5   3 -10    0.12    0.20
  -5   3 -10   -0.23    0.23
   6  -3  10    0.53    0.26
  -6   3 -10   -0.15    0.24
  -6   3 -10    0.06    0.28
  -6   3 -10    0.20    0.22
  -7   3 -10    0.25    0.24
  -7   3 -10   -0.10    0.25
  -7   3 -10   -0.11    0.20
   7  -4 -10   -0.06    0.21
   7   4 -10    0.30    0.26
  -6  -4  10    0.17    0.19
   6  -4 -10   -0.12    0.12
   6   4 -10   -0.09    0.20
   5  -4 -10    0.20    0.20
  -5  -4  10   -0.05    0.16
   5   4 -10    0.41    0.20
  -4  -4  10    9.16    0.51
   4  -4 -10    8.87    0.51
   4   4 -10    9.13    0.66
  -3  -4  10    1.68    0.26
   3  -4 -10    1.64    0.27
   3   4 -10    1.74    0.31
   2  -4 -10    7.72    0.38
  -2  -4  10    7.27    0.42
   2  -4 -10    7.90    0.49
   2   4 -10    6.98    0.52
   1  -4 -10   12.87    0.60
   1  -4 -10   13.40    0.51
  -1  -4  10   12.14    0.52
   1   4 -10   12.78    0.71
   0  -4 -10    6.09    0.37
   0  -4  10    5.28    0.37
   0  -4 -10    5.66    0.43
   0   4 -10    5.59    0.51
   1  -4  10    3.39    0.33
  -1  -4 -10    3.19    0.35
  -1  -4 -10    3.70    0.33
  -1   4 -10    3.79    0.44
  -1   4 -10    3.54    0.44
   2  -4  10    1.08    0.23
  -2  -4 -10    1.19    0.24
  -2  -4 -10    1.18    0.25
  -2   4 -10    0.65    0.21
  -2   4 -10    1.16    0.24
  -2   4 -10    0.86    0.24
  -3  -4 -10    1.55    0.27
  -3  -4 -10    1.59    0.28
   3  -4  10    1.44    0.26
  -3   4 -10    1.62    0.28
  -3   4 -10    1.38    0.27
  -3   4 -10    1.44    0.32
  -4  -4 -10    0.52    0.22
  -4  -4 -10    0.39    0.20
   4  -4  10    0.65    0.23
  -4   4 -10    0.79    0.27
  -4   4 -10    0.50    0.22
  -4   4 -10    0.64    0.26
   5  -4  10    0.49    0.23
  -5  -4 -10   -0.15    0.18
  -5   4 -10   -0.43    0.24
  -5   4 -10   -0.10    0.21
  -5   4 -10    0.08    0.25
  -6  -4 -10   -0.16    0.21
   6  -4  10   -0.12    0.20
  -6   4 -10    0.16    0.28
  -6   4 -10   -0.11    0.23
  -6   4 -10   -0.58    0.24
  -5  -5  10    0.85    0.23
   5  -5 -10    0.71    0.27
   5   5 -10    0.93    0.33
   4  -5 -10    0.46    0.26
  -4  -5  10    0.23    0.17
   4   5 -10    0.41    0.28
   3  -5 -10    1.62    0.32
  -3  -5  10    1.55    0.24
   3   5 -10    1.64    0.33
   2  -5 -10    0.44    0.25
  -2  -5  10    1.08    0.21
   2   5 -10    0.47    0.22
   1  -5 -10    2.00    0.34
  -1  -5  10    1.69    0.23
   1  -5 -10    2.49    0.29
   1   5 -10    1.84    0.33
   0  -5  10    1.20    0.21
   0  -5 -10    1.14    0.28
   0  -5 -10    1.42    0.25
   0   5 -10    1.38    0.33
  -1  -5 -10    1.50    0.27
   1  -5  10    1.13    0.21
  -1  -5 -10    1.39    0.27
  -1   5 -10    1.04    0.30
  -1   5 -10    1.04    0.31
  -2  -5 -10    0.94    0.25
  -2  -5 -10    0.69    0.24
   2  -5  10    0.57    0.19
  -2   5 -10    0.72    0.29
  -2   5 -10    0.41    0.26
  -3  -5 -10   -0.24    0.11
  -3  -5 -10   -0.30    0.16
   3  -5  10    0.11    0.16
  -3   5 -10    0.09    0.18
  -3   5 -10   -0.08    0.17
  -4  -5 -10    0.31    0.24
  -4  -5 -10   -0.08    0.20
   4  -5  10    0.14    0.18
  -4   5 -10   -0.17    0.23
  -4   5 -10   -0.13    0.19
  -4   5 -10   -0.27    0.25
   5  -5  10    1.88    0.32
  -5   5 -10    1.97    0.37
  -5   5 -10    1.90    0.41
  -5  -6  10   -0.01    0.17
  -4  -6  10    0.00    0.15
   2  -6 -10    1.05    0.31
   2   6 -10    0.69    0.27
   1  -6 -10    0.11    0.23
   1  -6 -10    0.01    0.17
   1   6 -10    0.38    0.22
   0  -6 -10    0.54    0.22
   0  -6 -10    0.83    0.26
   0   6 -10    1.12    0.30
  -1  -6 -10    1.23    0.30
  -1  -6 -10    1.28    0.29
  -1   6 -10    1.30    0.31
  -1   6 -10    1.52    0.36
   2  -6  10    0.54    0.16
  -2  -6 -10    0.36    0.19
  -2  -6 -10    0.61    0.28
  -2   6 -10    0.44    0.23
  -3  -6 -10    0.39    0.26
   3  -6  10    0.40    0.17
  -3   6 -10    0.75    0.33
   4  -6  10    0.06    0.16
  -9   0  11    3.71    0.46
  -8   0  11   -0.13    0.23
  -8   0  11   -0.25    0.17
  -7   0  11    0.08    0.18
  -7   0  11    0.14    0.20
  -6   0  11   -0.23    0.21
  -5   0  11    5.31    0.41
   5   0 -11    4.87    0.32
   4   0 -11    0.61    0.16
  -4   0  11    0.14    0.21
  -3   0  11    3.56    0.36
   3   0 -11    4.01    0.30
  -2   0  11    2.00    0.28
   2   0 -11    2.08    0.25
   2   0 -11    1.75    0.09
  -1   0  11    3.47    0.30
   1   0 -11    3.49    0.31
   0   0  11    2.50    0.30
   0   0 -11    2.35    0.30
  -1   0 -11    1.01    0.23
  -1   0 -11    0.80    0.13
   1   0  11    0.75    0.21
   2   0  11    1.24    0.25
  -2   0 -11    1.68    0.18
  -2   0 -11    1.36    0.23
  -3   0 -11    0.38    0.11
  -3   0 -11    0.29    0.10
   3   0  11    0.18    0.16
  -3   0 -11    0.26    0.17
  -4   0 -11    0.47    0.14
  -4   0 -11   -0.02    0.21
   4   0  11    0.28    0.19
  -5   0 -11    7.39    0.41
   5   0  11    6.89    0.50
  -5   0 -11    6.79    0.50
  -6   0 -11    0.69    0.20
  -6   0 -11    0.84    0.28
  -6   0 -11    0.65    0.31
   6   0  11    0.48    0.27
  -7   0 -11   -0.16    0.20
   7   0  11    0.18    0.27
  -8  -1  11    0.02    0.25
  -8   1  11    0.11    0.25
  -8   1  11   -0.25    0.19
  -7  -1  11    0.13    0.20
  -7  -1  11    0.13    0.23
  -7   1  11   -0.19    0.22
  -6  -1  11    1.19    0.30
  -6   1  11    1.23    0.31
   6   1 -11    1.46    0.24
  -5  -1  11    0.12    0.20
   5   1 -11    0.09    0.14
  -5   1  11    0.31    0.22
   4  -1 -11    4.54    0.27
  -4  -1  11    4.68    0.41
  -4   1  11    4.48    0.37
   4   1 -11    4.90    0.37
   3  -1 -11   11.16    0.44
  -3  -1  11   11.37    0.53
  -3   1  11   11.37    0.56
   3   1 -11   11.63    0.54
   2  -1 -11    2.12    0.24
  -2  -1  11    2.20    0.29
   2  -1 -11    1.87    0.12
   2   1 -11    2.26    0.30
  -2   1  11    2.21    0.26
   1  -1 -11   28.71    0.65
   1  -1 -11   29.68    0.66
  -1  -1  11   30.14    0.90
   1  -1 -11   29.80    0.86
  -1   1  11   29.62    0.90
   1   1 -11   30.25    0.93
   0  -1 -11    9.11    0.26
   0  -1  11    9.11    0.45
   0  -1 -11    9.70    0.47
   0  -1 -11    8.75    0.27
   0   1  11    9.14    0.48
   0   1 -11   10.07    0.51
  -1  -1 -11   12.76    0.57
   1  -1  11   11.93    0.53
  -1  -1 -11   11.62    0.31
  -1   1 -11   13.54    0.61
  -1   1 -11   12.39    0.48
   1   1  11   12.53    0.56
  -2  -1 -11   -0.11    0.10
  -2  -1 -11    0.01    0.06
   2  -1  11    0.04    0.17
  -2  -1 -11   -0.32    0.14
   2   1  11   -0.09    0.12
  -2   1 -11   -0.11    0.11
  -2   1 -11    0.12    0.19
   3  -1  11    1.60    0.29
  -3  -1 -11    1.31    0.17
  -3  -1 -11    1.72    0.16
  -3  -1 -11    2.01    0.28
   3   1  11    1.86    0.30
  -3   1 -11    1.49    0.21
  -3   1 -11    1.55    0.30
   4  -1  11    2.50    0.36
  -4  -1 -11    2.33    0.31
  -4   1 -11    2.68    0.38
  -4   1 -11    2.40    0.36
   4   1  11    2.19    0.34
  -4   1 -11    2.97    0.30
   5  -1  11    1.19    0.31
  -5   1 -11    1.14    0.32
  -5   1 -11    1.36    0.32
  -5   1 -11    1.18    0.22
   5   1  11    0.97    0.29
   6  -1  11    0.00    0.23
  -6   1 -11    0.05    0.24
   6   1  11   -0.19    0.22
  -6   1 -11    0.21    0.18
  -6   1 -11   -0.07    0.23
   7  -1  11   -0.19    0.24
  -7   1 -11    0.23    0.23
  -7   1 -11    0.24    0.25
  -7   1 -11   -0.05    0.18
   7   1  11    0.29    0.22
  -8   1 -11   -0.26    0.21
   8   1  11    0.21    0.24
  -8   2  11    0.70    0.31
  -7  -2  11    4.22    0.48
   7   2 -11    3.89    0.42
  -7   2  11    3.73    0.46
  -6  -2  11    0.51    0.25
   6   2 -11    0.85    0.24
  -6   2  11    0.99    0.27
  -5  -2  11   -0.09    0.17
   5   2 -11   -0.01    0.15
  -5   2  11   -0.16    0.17
  -4  -2  11    0.21    0.19
   4   2 -11    0.36    0.16
  -4   2  11    0.34    0.21
  -3  -2  11    7.17    0.42
   3  -2 -11    6.75    0.30
  -3   2  11    6.16    0.43
   3   2 -11    6.89    0.45
  -2  -2  11   14.15    0.61
   2  -2 -11   15.36    0.51
   2  -2 -11   14.20    0.40
  -2   2  11   14.00    0.61
   2   2 -11   14.38    0.66
  -1  -2  11   12.20    0.56
   1  -2 -11   11.15    0.47
   1  -2 -11   11.46    0.39
  -1   2  11   11.17    0.53
   1   2 -11   12.61    0.61
   0  -2 -11    6.23    0.38
   0  -2  11    5.80    0.41
   0  -2 -11    6.19    0.31
   0   2 -11    7.97    0.50
   0   2  11    6.10    0.41
  -1  -2 -11    7.33    0.37
  -1  -2 -11    6.72    0.40
   1  -2  11    6.45    0.40
  -1  -2 -11    7.19    0.38
  -1   2 -11    7.12    0.42
   1   2  11    6.79    0.44
  -1   2 -11    7.99    0.52
  -2  -2 -11   10.86    0.46
   2  -2  11   11.26    0.56
   2   2  11   11.52    0.56
  -2   2 -11   11.45    0.59
  -2   2 -11   11.29    0.53
  -3  -2 -11    1.00    0.20
   3  -2  11    0.89    0.25
  -3   2 -11    1.48    0.25
   3   2  11    1.04    0.26
  -3   2 -11    1.46    0.27
  -3   2 -11    0.94    0.23
   4  -2  11    2.11    0.33
  -4   2 -11    2.20    0.33
   4   2  11    2.48    0.35
  -4   2 -11    1.74    0.25
  -4   2 -11    1.58    0.33
   5  -2  11    0.75    0.24
  -5   2 -11    0.84    0.30
  -5   2 -11    0.36    0.27
  -5   2 -11    0.87    0.22
   5   2  11    0.76    0.27
   6  -2  11    0.12    0.27
   6   2  11   -0.07    0.23
  -6   2 -11    0.05    0.19
  -6   2 -11   -0.18    0.23
  -6   2 -11    0.26    0.23
  -7   2 -11    0.31    0.33
  -7   2 -11    0.34    0.23
  -7   2 -11    0.26    0.27
  -7  -3  11    0.34    0.24
   7   3 -11    0.87    0.27
  -7   3  11    1.02    0.34
  -6  -3  11    1.97    0.33
   6   3 -11    2.05    0.35
  -5  -3  11    0.34    0.21
   5   3 -11    0.60    0.25
  -4  -3  11    3.69    0.38
   4   3 -11    3.88    0.45
  -4   3  11    4.33    0.38
  -3  -3  11    3.40    0.35
  -3   3  11    2.73    0.32
   3   3 -11    2.97    0.35
  -2  -3  11    0.97    0.23
   2  -3 -11    1.26    0.17
  -2   3  11    0.96    0.22
   2   3 -11    1.04    0.26
   1  -3 -11   10.39    0.51
  -1  -3  11    9.35    0.49
   1  -3 -11   11.08    0.41
  -1   3  11   10.36    0.49
   1   3 -11    8.79    0.54
   0  -3 -11    9.39    0.46
   0  -3 -11   10.89    0.44
   0  -3  11   10.37    0.51
   0   3  11    9.10    0.48
   0   3 -11   10.63    0.61
  -1  -3 -11    4.87    0.34
  -1  -3 -11    4.96    0.34
   1  -3  11    5.03    0.38
  -1   3 -11    4.85    0.43
   1   3  11    4.28    0.36
  -1   3 -11    5.00    0.47
   2  -3  11   13.71    0.61
  -2  -3 -11   12.56    0.55
  -2  -3 -11   12.51    0.54
   2   3  11   12.61    0.57
  -2   3 -11   12.13    0.64
  -2   3 -11   12.55    0.63
  -3  -3 -11   15.60    0.65
  -3  -3 -11   15.79    0.60
   3  -3  11   16.72    0.69
   3   3  11   15.75    0.68
  -3   3 -11   18.09    0.75
  -3   3 -11   16.86    0.72
  -3   3 -11   16.30    0.79
  -4  -3 -11    1.58    0.29
   4  -3  11    1.31    0.25
  -4  -3 -11    1.66    0.24
  -4   3 -11    1.18    0.33
  -4   3 -11    1.57    0.29
  -4   3 -11    1.49    0.26
   5  -3  11   -0.03    0.22
  -5  -3 -11    0.17    0.16
  -5   3 -11   -0.20    0.18
  -5   3 -11    0.33    0.28
  -5   3 -11    0.18    0.20
   6  -3  11    0.35    0.26
  -6   3 -11   -0.12    0.27
  -6   3 -11    0.32    0.24
  -6   3 -11    0.34    0.24
  -7   3 -11    0.01    0.27
   7   4 -11    0.53    0.27
  -6  -4  11    0.19    0.21
   6   4 -11    0.58    0.26
   5  -4 -11    1.44    0.28
  -5  -4  11    1.00    0.26
   5   4 -11    1.27    0.29
  -4  -4  11    3.30    0.36
   4  -4 -11    3.08    0.40
   4   4 -11    2.72    0.43
  -3  -4  11    8.24    0.48
   3  -4 -11    8.71    0.54
   3   4 -11    8.32    0.59
   2  -4 -11    6.50    0.44
  -2  -4  11    6.10    0.41
   2  -4 -11    6.67    0.35
   2   4 -11    7.08    0.53
  -1  -4  11    1.13    0.23
   1  -4 -11    1.48    0.26
   1  -4 -11    1.30    0.21
   1   4 -11    1.09    0.29
   0  -4 -11    0.82    0.24
   0  -4  11    0.66    0.21
   0  -4 -11    0.59    0.17
   0   4 -11    0.91    0.24
   1  -4  11    0.05    0.15
  -1  -4 -11    0.14    0.15
  -1  -4 -11    0.30    0.17
  -1   4 -11   -0.06    0.15
  -1   4 -11   -0.18    0.19
   2  -4  11    2.64    0.33
  -2  -4 -11    2.56    0.34
  -2  -4 -11    3.03    0.33
  -2   4 -11    2.39    0.35
  -2   4 -11    2.74    0.38
   3  -4  11    0.34    0.19
  -3  -4 -11    0.47    0.20
  -3  -4 -11    0.74    0.24
  -3   4 -11    0.18    0.17
  -3   4 -11    0.80    0.24
  -3   4 -11    0.62    0.29
  -4  -4 -11    0.63    0.22
   4  -4  11    0.64    0.23
  -4  -4 -11    0.59    0.25
  -4   4 -11    0.07    0.28
  -4   4 -11    0.41    0.25
  -4   4 -11    0.43    0.21
   5  -4  11    0.24    0.22
  -5  -4 -11    0.11    0.23
  -5   4 -11    0.59    0.28
  -5   4 -11    0.09    0.23
  -5   4 -11   -0.11    0.21
  -6   4 -11    0.26    0.31
  -6   4 -11   -0.56    0.26
  -5  -5  11    1.87    0.31
  -4  -5  11    4.08    0.39
   4  -5 -11    3.81    0.41
   4   5 -11    3.40    0.47
   3  -5 -11    2.12    0.33
  -3  -5  11    1.41    0.25
   3   5 -11    1.35    0.37
   2  -5 -11    2.16    0.36
  -2  -5  11    2.28    0.28
   2   5 -11    2.44    0.40
   1  -5 -11   -0.11    0.13
   1  -5 -11   -0.06    0.14
  -1  -5  11    0.06    0.15
   1   5 -11    0.42    0.27
   0  -5  11    0.48    0.19
   0  -5 -11    0.40    0.18
   0  -5 -11    0.47    0.21
   0   5 -11    0.60    0.23
   1  -5  11    0.86    0.21
  -1  -5 -11    0.82    0.27
  -1  -5 -11    1.09    0.25
  -1   5 -11    1.45    0.30
  -1   5 -11    1.11    0.31
  -2  -5 -11    0.02    0.21
   2  -5  11    0.55    0.20
  -2  -5 -11    0.66    0.19
  -2   5 -11    0.18    0.26
  -2   5 -11    0.56    0.28
  -3  -5 -11    0.54    0.21
  -3  -5 -11    0.49    0.24
   3  -5  11    0.69    0.22
  -3   5 -11    0.72    0.27
  -3   5 -11    0.90    0.31
   4  -5  11    1.27    0.26
  -4  -5 -11    1.04    0.29
  -4  -5 -11    1.28    0.31
  -4   5 -11    1.10    0.35
  -4   5 -11    1.57    0.36
  -4   5 -11    1.53    0.33
  -5   5 -11    0.62    0.30
  -5   5 -11   -0.10    0.31
  -4  -6  11    0.54    0.21
  -3  -6  11    1.47    0.24
  -2  -6  11    0.79    0.20
   1  -6 -11    0.30    0.20
  -1  -6  11   -0.22    0.14
   0  -6 -11    0.85    0.32
   0  -6  11    1.17    0.23
   0  -6 -11    1.41    0.27
   0   6 -11    0.37    0.25
  -1  -6 -11    0.42    0.27
  -1  -6 -11   -0.08    0.18
  -1   6 -11    0.03    0.27
  -2  -6 -11    2.90    0.35
   2  -6  11    2.74    0.32
   3  -6  11    0.49    0.19
  -8   0  12    0.39    0.24
  -8   0  12    0.22    0.22
  -7   0  12    0.17    0.26
  -6   0  12    0.27    0.23
  -5   0  12   20.88    0.82
  -4   0  12    0.82    0.26
   4   0 -12    0.21    0.13
  -3   0  12   67.18    1.63
   3   0 -12   62.83    1.55
  -2   0  12    4.09    0.34
   2   0 -12    3.71    0.33
   1   0 -12    0.24    0.14
  -1   0  12    0.28    0.16
   0   0  12    0.57    0.21
   0   0 -12    0.72    0.22
  -1   0 -12    8.13    0.34
  -1   0 -12    8.69    0.48
   1   0  12    8.57    0.46
   2   0  12    6.92    0.48
  -2   0 -12    7.09    0.32
  -2   0 -12    7.20    0.50
  -3   0 -12    5.04    0.41
  -3   0 -12    4.81    0.29
   3   0  12    5.24    0.45
  -4   0 -12    1.34    0.19
  -4   0 -12    1.09    0.29
   4   0  12    1.12    0.30
   5   0  12    1.49    0.35
  -5   0 -12    2.09    0.33
  -6   0 -12    0.26    0.26
   6   0  12   -0.11    0.19
   7   0  12   -0.04    0.19
  -8   1  12   -0.10    0.25
  -8   1  12    0.20    0.25
  -7  -1  12    3.36    0.41
  -7  -1  12    2.37    0.34
  -7   1  12    2.45    0.40
  -6  -1  12    1.08    0.31
  -6   1  12    1.01    0.29
  -5  -1  12    1.76    0.32
  -5   1  12    1.67    0.32
   5   1 -12    0.94    0.22
  -4  -1  12    4.18    0.43
   4  -1 -12    3.46    0.27
  -4   1  12    3.80    0.36
   4   1 -12    3.88    0.35
   3  -1 -12   29.20    0.84
  -3  -1  12   32.64    1.00
   3   1 -12   30.31    0.96
  -3   1  12   28.98    0.94
   2  -1 -12   20.24    0.70
  -2  -1  12   21.90    0.79
   2   1 -12   20.17    0.76
  -2   1  12   21.04    0.78
  -1  -1  12    5.72    0.43
   1  -1 -12    4.77    0.24
   1  -1 -12    5.75    0.38
   1   1 -12    6.24    0.44
  -1   1  12    5.82    0.43
   0  -1 -12    2.33    0.31
   0  -1 -12    2.55    0.15
   0  -1  12    2.33    0.31
   0   1  12    2.39    0.28
   0   1 -12    2.15    0.30
   1  -1  12    0.80    0.23
  -1  -1 -12    0.91    0.23
   1   1  12    0.61    0.22
  -1   1 -12    0.83    0.24
  -1   1 -12    0.81    0.16
  -2  -1 -12    5.28    0.30
  -2  -1 -12    4.89    0.43
   2  -1  12    5.77    0.44
  -2   1 -12    4.86    0.32
  -2   1 -12    4.85    0.41
   2   1  12    4.44    0.37
  -3  -1 -12    4.42    0.44
   3  -1  12    5.63    0.42
  -3  -1 -12    5.13    0.29
  -3   1 -12    5.60    0.37
  -3   1 -12    4.40    0.41
   3   1  12    5.03    0.45
  -4  -1 -12    3.10    0.36
   4  -1  12    2.64    0.35
   4   1  12    2.73    0.35
  -4   1 -12    2.81    0.37
  -4   1 -12    2.24    0.28
   5  -1  12   -0.01    0.23
  -5   1 -12    0.00    0.19
  -5   1 -12   -0.28    0.22
   5   1  12    0.07    0.23
  -5   1 -12   -0.19    0.12
   6  -1  12    0.10    0.21
  -6   1 -12    0.37    0.20
   6   1  12    0.61    0.29
  -6   1 -12    0.51    0.25
  -6   1 -12    0.11    0.26
   7   1  12    0.06    0.27
  -7  -2  12    1.12    0.32
  -7   2  12    0.86    0.28
  -6  -2  12    1.54    0.29
  -6   2  12    2.27    0.35
   6   2 -12    1.66    0.29
  -5  -2  12    1.43    0.27
   5   2 -12    1.43    0.27
  -5   2  12    1.68    0.32
  -4  -2  12    0.24    0.22
  -4   2  12    0.17    0.15
   4   2 -12    0.35    0.19
  -3  -2  12    5.99    0.45
  -3   2  12    5.22    0.39
   3   2 -12    6.10    0.46
   2  -2 -12    6.93    0.37
  -2  -2  12    7.99    0.49
  -2   2  12    7.09    0.47
   2   2 -12    7.26    0.50
   1  -2 -12    6.31    0.38
  -1  -2  12    6.50    0.45
   1  -2 -12    6.38    0.30
  -1   2  12    5.94    0.43
   1   2 -12    6.81    0.45
   0  -2 -12   12.18    0.45
   0  -2  12   12.57    0.59
   0  -2 -12   11.73    0.54
   0   2  12   12.65    0.58
   0   2 -12   11.85    0.60
   1  -2  12    0.73    0.24
  -1  -2 -12    0.71    0.17
  -1  -2 -12    1.01    0.23
  -1  -2 -12    1.06    0.21
  -1   2 -12    1.00    0.21
   1   2  12    0.99    0.25
  -1   2 -12    0.78    0.25
  -2  -2 -12    1.44    0.22
   2  -2  12    1.35    0.28
  -2  -2 -12    1.38    0.24
   2   2  12    1.46    0.27
  -2   2 -12    1.26    0.22
  -2   2 -12    1.14    0.29
   3  -2  12    8.49    0.51
  -3  -2 -12    8.45    0.40
  -3   2 -12    8.88    0.50
  -3   2 -12    8.53    0.61
   3   2  12    8.37    0.53
   4  -2  12    5.00    0.43
  -4   2 -12    5.87    0.46
   4   2  12    5.19    0.46
  -4   2 -12    6.04    0.44
  -4   2 -12    5.40    0.55
   5  -2  12    1.15    0.32
  -5   2 -12    1.14    0.25
  -5   2 -12    0.49    0.28
   5   2  12    0.71    0.28
  -5   2 -12    0.49    0.30
   6  -2  12    0.28    0.27
   6   2  12   -0.03    0.23
  -6   2 -12    0.25    0.20
  -6   2 -12   -0.40    0.23
  -6   2 -12    0.25    0.28
  -7   2 -12    0.39    0.25
   7   3 -12    1.18    0.32
  -6  -3  12    0.32    0.24
   6   3 -12    0.02    0.21
  -5  -3  12    0.42    0.24
   5   3 -12    0.48    0.21
  -4  -3  12    1.12    0.25
   4   3 -12    1.92    0.34
  -3  -3  12    0.16    0.19
   3   3 -12    0.25    0.18
  -3   3  12   -0.08    0.13
  -2  -3  12    0.77    0.22
   2   3 -12    0.69    0.21
  -2   3  12    0.35    0.19
  -1  -3  12    0.51    0.21
   1  -3 -12    1.00    0.24
   1  -3 -12    0.55    0.14
  -1   3  12    0.48    0.20
   1   3 -12    0.65    0.25
   0  -3 -12    0.32    0.19
   0  -3 -12    0.30    0.14
   0  -3  12    0.07    0.19
   0   3  12    0.12    0.18
   0   3 -12    0.31    0.18
   1  -3  12   -0.26    0.15
  -1  -3 -12    0.32    0.15
  -1  -3 -12   -0.07    0.15
  -1   3 -12    0.14    0.17
  -1   3 -12    0.07    0.20
   1   3  12    0.23    0.19
  -2  -3 -12    0.98    0.23
   2  -3  12    1.16    0.26
  -2  -3 -12    0.98    0.22
   2   3  12    1.07    0.22
  -2   3 -12    0.63    0.23
  -2   3 -12    0.52    0.23
  -3  -3 -12    4.62    0.36
   3  -3  12    4.66    0.44
  -3  -3 -12    3.96    0.34
  -3   3 -12    4.94    0.44
  -3   3 -12    4.22    0.44
   4  -3  12    2.59    0.37
  -4  -3 -12    2.66    0.37
  -4   3 -12    2.48    0.36
  -4   3 -12    3.11    0.40
  -4   3 -12    2.04    0.35
  -5  -3 -12    0.43    0.21
   5  -3  12    0.14    0.19
  -5   3 -12    0.05    0.30
  -5   3 -12    0.29    0.18
  -5   3 -12    0.60    0.30
  -6   3 -12   -0.02    0.26
  -6   3 -12   -0.19    0.19
  -6   3 -12   -0.31    0.27
   6   4 -12    0.22    0.20
   5  -4 -12    0.35    0.20
  -5  -4  12    0.45    0.22
   5   4 -12    0.31    0.21
   4  -4 -12    0.92    0.28
  -4  -4  12    1.16    0.26
   4   4 -12    1.07    0.31
   3  -4 -12    7.84    0.54
  -3  -4  12    7.13    0.47
   3   4 -12    6.51    0.54
   2  -4 -12    1.96    0.30
  -2  -4  12    1.52    0.27
   2   4 -12    1.75    0.35
   1  -4 -12    2.23    0.24
   1  -4 -12    2.42    0.35
  -1  -4  12    2.03    0.29
   1   4 -12    2.01    0.33
   0  -4 -12    2.77    0.32
   0  -4 -12    3.12    0.29
   0  -4  12    2.97    0.33
   0   4 -12    3.50    0.47
  -1  -4 -12    1.52    0.29
  -1  -4 -12    1.11    0.23
   1  -4  12    1.58    0.27
  -1   4 -12    0.78    0.28
  -1   4 -12    1.36    0.29
  -2  -4 -12    0.52    0.22
  -2  -4 -12    1.04    0.24
   2  -4  12    0.46    0.22
  -2   4 -12    0.21    0.23
  -2   4 -12    0.50    0.24
  -3  -4 -12    1.20    0.26
   3  -4  12    0.75    0.26
  -3  -4 -12    1.06    0.27
  -3   4 -12    0.86    0.26
  -3   4 -12    1.43    0.31
   4  -4  12    0.31    0.22
  -4  -4 -12    0.40    0.25
  -4   4 -12    0.71    0.28
  -4   4 -12    0.48    0.24
  -4   4 -12   -0.30    0.27
  -5  -4 -12    0.63    0.28
  -5   4 -12    0.82    0.30
  -5   4 -12    0.32    0.27
  -5   4 -12   -0.36    0.29
  -4  -5  12    5.27    0.42
   4   5 -12    4.58    0.53
   3  -5 -12    0.63    0.27
  -3  -5  12    0.81    0.23
   3   5 -12    1.47    0.36
   2  -5 -12    0.64    0.24
  -2  -5  12    0.68    0.21
   2   5 -12    0.20    0.20
   1  -5 -12    0.20    0.16
  -1  -5  12   -0.23    0.13
   1  -5 -12    0.04    0.21
   1   5 -12   -0.20    0.16
   0  -5 -12    0.24    0.25
   0  -5  12    0.33    0.20
   0  -5 -12    0.49    0.20
   0   5 -12    0.31    0.28
   1  -5  12    0.19    0.17
  -1  -5 -12   -0.03    0.17
  -1  -5 -12   -0.09    0.14
  -1   5 -12    0.32    0.26
  -1   5 -12    0.01    0.19
  -2  -5 -12    2.37    0.37
   2  -5  12    2.07    0.30
  -2  -5 -12    1.92    0.30
  -2   5 -12    2.00    0.36
  -2   5 -12    2.33    0.37
  -3  -5 -12    0.74    0.27
   3  -5  12    0.39    0.20
  -3  -5 -12    0.99    0.29
  -3   5 -12    0.63    0.30
  -3   5 -12    0.68    0.27
  -3  -6  12    1.59    0.27
  -2  -6  12    2.86    0.32
  -1  -6  12    0.89    0.23
   0  -6  12    0.86    0.22
   0  -6 -12    1.40    0.30
   1  -6  12    0.73    0.22
  -1  -6 -12    1.39    0.30
   2  -6  12    0.56    0.19
  -8   0  13    0.28    0.24
  -7   0  13    0.38    0.28
  -6   0  13    0.55    0.23
  -5   0  13   11.55    0.67
  -4   0  13    2.21    0.32
   4   0 -13    2.12    0.28
  -3   0  13    2.66    0.33
   3   0 -13    2.96    0.34
   2   0 -13    1.41    0.22
  -2   0  13    1.71    0.32
  -1   0  13    1.16    0.28
   1   0 -13    1.25    0.25
   0   0  13   -0.24    0.19
   0   0 -13   -0.24    0.17
   0   0 -13   -0.03    0.09
  -1   0 -13    0.40    0.12
  -1   0 -13   -0.05    0.20
   1   0  13    0.23    0.22
  -2   0 -13    3.40    0.25
  -2   0 -13    3.03    0.35
   2   0  13    3.97    0.42
  -3   0 -13    3.58    0.45
   3   0  13    3.51    0.44
   4   0  13    0.72    0.29
  -4   0 -13    0.58    0.21
  -5   0 -13    0.06    0.18
   5   0  13    0.29    0.21
   6   0  13    0.00    0.27
  -6   0 -13   -0.36    0.22
  -8   1  13    0.78    0.28
  -7  -1  13    0.64    0.30
  -7   1  13    0.85    0.26
  -6  -1  13    1.52    0.31
  -6   1  13    1.75    0.36
  -5  -1  13    1.03    0.25
  -5   1  13    1.54    0.33
   5   1 -13    1.51    0.25
  -4  -1  13    8.60    0.57
   4   1 -13    8.52    0.50
  -4   1  13    8.98    0.57
   3  -1 -13    0.92    0.19
  -3  -1  13    1.33    0.29
   3   1 -13    1.24    0.25
  -3   1  13    1.04    0.28
  -2  -1  13   19.19    0.77
   2  -1 -13   16.63    0.65
  -2   1  13   16.87    0.71
   2   1 -13   18.65    0.74
   1  -1 -13    2.11    0.18
  -1  -1  13    1.50    0.30
   1  -1 -13    2.19    0.31
   1   1 -13    1.81    0.29
  -1   1  13    1.88    0.32
   0  -1  13    0.57    0.24
   0  -1 -13    0.79    0.19
   0   1  13    0.66    0.25
   0   1 -13    0.69    0.24
   1  -1  13    6.06    0.46
  -1  -1 -13    6.19    0.42
  -1   1 -13    6.05    0.36
  -1   1 -13    5.86    0.49
   1   1  13    5.51    0.41
  -2  -1 -13    1.88    0.31
   2  -1  13    1.84    0.29
  -2  -1 -13    1.97    0.23
  -2   1 -13    1.90    0.30
   2   1  13    1.87    0.29
  -2   1 -13    2.15    0.25
  -3  -1 -13    0.43    0.24
   3  -1  13    0.33    0.19
  -3   1 -13    0.31    0.14
  -3   1 -13    0.35    0.25
   3   1  13    0.48    0.21
  -4  -1 -13    0.83    0.27
   4  -1  13    1.18    0.31
  -4   1 -13    0.80    0.20
   4   1  13    1.30    0.30
  -4   1 -13    0.91    0.31
   5  -1  13    0.56    0.29
  -5   1 -13    0.44    0.19
   5   1  13    0.21    0.26
  -5   1 -13    0.16    0.20
   6  -1  13    0.70    0.32
   6   1  13    0.87    0.33
  -6   1 -13    0.77    0.33
   7   1  13   -0.25    0.24
  -6  -2  13    0.28    0.25
   6   2 -13    0.26    0.19
  -6   2  13    0.20    0.26
  -5  -2  13    0.04    0.22
  -5   2  13   -0.12    0.20
   5   2 -13    0.03    0.15
  -4  -2  13    1.61    0.31
   4   2 -13    1.31    0.27
  -4   2  13    1.71    0.31
  -3  -2  13    1.61    0.27
  -3   2  13    1.82    0.31
   3   2 -13    1.56    0.29
  -2  -2  13    4.85    0.44
   2  -2 -13    4.33    0.32
   2   2 -13    4.65    0.44
  -2   2  13    4.02    0.36
   1  -2 -13    0.75    0.14
   1  -2 -13    0.44    0.17
  -1  -2  13    0.73    0.24
   1   2 -13    0.52    0.24
  -1   2  13    0.68    0.23
   0  -2 -13    1.21    0.20
   0  -2  13    1.00    0.26
   0  -2 -13    1.28    0.24
   0   2  13    1.36    0.26
   0   2 -13    1.29    0.26
  -1  -2 -13    0.80    0.20
  -1  -2 -13    0.67    0.18
  -1  -2 -13    0.75    0.22
   1  -2  13    0.58    0.24
  -1   2 -13    0.70    0.20
   1   2  13    0.76    0.21
  -1   2 -13    0.70    0.22
   2  -2  13    1.13    0.27
  -2  -2 -13    1.31    0.23
  -2  -2 -13    1.24    0.24
   2   2  13    1.33    0.29
  -2   2 -13    1.23    0.31
  -2   2 -13    1.18    0.22
  -3  -2 -13    1.78    0.25
   3  -2  13    2.16    0.35
   3   2  13    1.99    0.31
  -3   2 -13    1.59    0.36
  -3   2 -13    2.88    0.34
   4  -2  13    8.65    0.61
  -4   2 -13    7.94    0.65
   4   2  13    7.73    0.57
  -4   2 -13    8.96    0.52
   5  -2  13    0.44    0.23
  -5   2 -13    0.48    0.21
  -5   2 -13    0.82    0.28
   5   2  13    0.55    0.29
  -6   2 -13    0.49    0.33
  -6   2 -13    0.21    0.23
  -6   2 -13    0.09    0.18
  -6  -3  13    0.14    0.24
   6   3 -13    0.33    0.19
  -5  -3  13   -0.22    0.19
   5   3 -13    0.33    0.20
  -4  -3  13    0.40    0.24
   4   3 -13    0.87    0.27
  -3  -3  13    0.58    0.23
   3   3 -13    0.44    0.19
  -2  -3  13    2.00    0.32
  -2   3  13    1.78    0.31
   2   3 -13    1.91    0.31
   1  -3 -13    4.65    0.40
   1  -3 -13    4.34    0.28
  -1  -3  13    4.54    0.40
  -1   3  13    4.28    0.39
   1   3 -13    4.86    0.44
   0  -3  13    0.75    0.24
   0  -3 -13    0.77    0.23
   0  -3 -13    1.02    0.20
   0   3  13    0.35    0.22
   0   3 -13    0.70    0.27
  -1  -3 -13    0.51    0.21
  -1  -3 -13    0.69    0.18
   1  -3  13    0.30    0.21
  -1   3 -13    0.49    0.22
  -1   3 -13    0.24    0.20
   2  -3  13    0.16    0.21
  -2  -3 -13    0.43    0.19
  -2  -3 -13    0.12    0.20
  -2   3 -13   -0.02    0.19
  -2   3 -13   -0.10    0.18
  -3  -3 -13    1.03    0.25
   3  -3  13    0.84    0.27
  -3  -3 -13    1.65    0.26
  -3   3 -13    1.35    0.28
  -3   3 -13    0.95    0.28
   4  -3  13    0.02    0.17
  -4  -3 -13    0.29    0.21
  -4   3 -13    0.02    0.23
  -4   3 -13    0.42    0.23
   5  -3  13    0.16    0.26
  -5  -3 -13   -0.34    0.19
  -5   3 -13   -0.19    0.17
  -5   3 -13   -0.06    0.22
  -5   3 -13    0.80    0.33
  -6   3 -13    0.03    0.22
  -5  -4  13    2.44    0.36
   5   4 -13    2.00    0.37
   4  -4 -13    0.24    0.25
  -4  -4  13    0.13    0.20
   4   4 -13    0.38    0.22
   3  -4 -13    4.50    0.46
  -3  -4  13    4.19    0.44
   3   4 -13    4.80    0.56
  -2  -4  13    0.39    0.21
   2  -4 -13    1.02    0.27
   2   4 -13    0.37    0.27
  -1  -4  13    0.09    0.19
   1  -4 -13    0.50    0.25
   1   4 -13    0.43    0.27
   0  -4  13    0.06    0.18
   0  -4 -13    0.26    0.16
   0  -4 -13    0.15    0.21
   0   4 -13    0.25    0.19
  -1  -4 -13    0.84    0.23
  -1  -4 -13    0.37    0.22
   1  -4  13    0.27    0.21
  -1   4 -13    0.03    0.21
  -1   4 -13    0.03    0.24
   2  -4  13    0.79    0.25
  -2  -4 -13    0.71    0.24
  -2  -4 -13    0.49    0.21
  -2   4 -13    0.23    0.24
  -2   4 -13    0.56    0.24
  -3  -4 -13    0.00    0.15
  -3  -4 -13    0.75    0.25
   3  -4  13    0.60    0.24
  -3   4 -13    0.31    0.25
  -3   4 -13   -0.25    0.19
   4  -4  13    0.38    0.25
  -4  -4 -13    0.03    0.22
  -4   4 -13    0.30    0.24
  -4   4 -13    0.15    0.25
  -5   4 -13    0.23    0.28
  -3  -5  13    3.31    0.39
  -2  -5  13    2.43    0.34
   2  -5 -13    3.27    0.39
   2   5 -13    3.98    0.56
   1  -5 -13    0.54    0.27
  -1  -5  13    0.21    0.20
   1   5 -13    0.49    0.30
   0  -5 -13    0.46    0.25
   0  -5 -13    0.22    0.18
   0  -5  13    0.27    0.20
   0   5 -13    0.07    0.22
   0   5 -13    0.09    0.20
  -1  -5 -13    0.13    0.18
   1  -5  13   -0.09    0.19
  -1  -5 -13    0.38    0.25
  -1   5 -13    0.00    0.28
  -1   5 -13    0.01    0.26
  -2  -5 -13    1.29    0.31
  -2  -5 -13    1.57    0.31
   2  -5  13    1.33    0.29
  -2   5 -13    1.74    0.38
  -3  -5 -13    1.45    0.33
  -3  -5 -13    1.20    0.29
  -2  -6  13    4.46    0.44
  -1  -6  13    0.51    0.22
   0  -6  13    0.18    0.19
   1  -6  13    0.86    0.23
  -8   0  14    6.09    0.55
  -7   0  14    4.47    0.55
  -6   0  14    0.13    0.26
  -5   0  14   10.34    0.67
   4   0 -14    7.74    0.48
  -4   0  14    7.77    0.57
   3   0 -14   -0.10    0.16
  -3   0  14    0.15    0.24
  -2   0  14    5.29    0.49
   2   0 -14    5.10    0.42
  -1   0  14   -0.11    0.21
   1   0 -14   -0.07    0.18
   0   0 -14    0.01    0.20
   0   0  14    0.27    0.18
   1   0  14    3.25    0.36
  -1   0 -14    2.98    0.42
  -2   0 -14    0.56    0.26
   2   0  14    0.84    0.24
  -3   0 -14   -0.21    0.14
   3   0  14    0.13    0.24
   4   0  14    0.35    0.28
  -4   0 -14    0.22    0.19
  -5   0 -14   -0.22    0.23
   5   0  14   -0.03    0.24
   6   0  14   -0.26    0.18
  -7   1  14    1.00    0.33
  -6  -1  14    6.57    0.58
  -6   1  14    6.35    0.53
  -5  -1  14    2.40    0.39
  -5   1  14    1.63    0.32
   5   1 -14    1.82    0.27
  -4  -1  14    3.37    0.38
  -4   1  14    3.75    0.45
   4   1 -14    4.04    0.39
  -3  -1  14    1.81    0.34
   3  -1 -14    1.44    0.23
  -3   1  14    1.65    0.30
   3   1 -14    1.49    0.27
   2  -1 -14    7.09    0.45
  -2  -1  14    7.98    0.51
  -2   1  14    7.82    0.50
   2   1 -14    7.84    0.52
  -1  -1  14    1.33    0.29
   1  -1 -14    1.48    0.24
   1   1 -14    1.36    0.29
  -1   1  14    1.40    0.30
   0  -1 -14    1.39    0.27
   0  -1  14    1.45    0.30
   0   1 -14    1.42    0.27
   0   1  14    1.19    0.29
   1  -1  14    0.46    0.23
  -1  -1 -14    0.43    0.22
   1   1  14    0.06    0.21
  -1   1 -14    0.12    0.17
  -1   1 -14    0.25    0.14
   2  -1  14    3.14    0.36
  -2  -1 -14    3.55    0.37
  -2  -1 -14    3.19    0.30
  -2   1 -14    3.82    0.32
  -2   1 -14    3.32    0.43
   2   1  14    2.70    0.38
   3  -1  14    0.39    0.21
  -3  -1 -14    0.36    0.19
   3   1  14    0.26    0.20
  -3   1 -14    0.25    0.20
  -3   1 -14    0.46    0.16
   4  -1  14    1.27    0.34
  -4  -1 -14    1.02    0.26
   4   1  14    0.91    0.32
  -4   1 -14    0.98    0.33
   5  -1  14    0.67    0.26
   5   1  14    0.60    0.25
  -5   1 -14    0.69    0.31
   6   1  14   -0.29    0.24
  -6  -2  14    0.14    0.27
  -6   2  14    0.05    0.19
  -5  -2  14    0.57    0.29
  -5   2  14    0.29    0.23
   5   2 -14    0.51    0.22
  -4  -2  14    0.17    0.23
   4   2 -14    0.32    0.21
  -4   2  14    0.40    0.24
  -3  -2  14    0.07    0.23
   3   2 -14    0.19    0.16
  -3   2  14   -0.01    0.15
   2  -2 -14    2.30    0.27
  -2  -2  14    1.83    0.32
  -2   2  14    2.46    0.36
   2   2 -14    1.81    0.30
  -1  -2  14    3.94    0.42
   1  -2 -14    3.36    0.34
  -1   2  14    3.20    0.40
   1   2 -14    3.36    0.38
   0  -2 -14    3.07    0.25
   0  -2  14    2.68    0.36
   0  -2 -14    3.27    0.35
   0   2  14    3.42    0.40
   0   2 -14    2.89    0.40
   1  -2  14    0.20    0.17
  -1  -2 -14   -0.13    0.15
  -1  -2 -14    0.17    0.19
  -1  -2 -14    0.08    0.14
  -1   2 -14    0.18    0.20
  -1   2 -14    0.29    0.18
   1   2  14    0.05    0.21
  -2  -2 -14   -0.08    0.12
  -2  -2 -14   -0.11    0.17
   2  -2  14   -0.41    0.11
  -2   2 -14   -0.09    0.15
  -2   2 -14   -0.26    0.24
   2   2  14   -0.23    0.20
   3  -2  14    0.88    0.29
   3   2  14    0.55    0.22
  -3   2 -14    0.39    0.24
  -3   2 -14    0.43    0.19
   4  -2  14    2.10    0.39
  -4   2 -14    1.72    0.28
  -4   2 -14    1.49    0.33
   4   2  14    2.25    0.38
   5  -2  14    0.30    0.27
   5   2  14    0.38    0.23
  -5   2 -14   -0.02    0.31
  -5   2 -14    0.30    0.22
   6   3 -14    0.02    0.16
  -5  -3  14    0.43    0.26
   5   3 -14    0.48    0.25
  -4  -3  14    0.59    0.25
   4   3 -14    0.52    0.25
  -3  -3  14    0.01    0.15
   3   3 -14    0.16    0.22
  -2  -3  14    1.46    0.30
   2   3 -14    1.22    0.31
  -1  -3  14    1.90    0.31
   1  -3 -14    1.45    0.28
   1   3 -14    1.34    0.33
   0  -3 -14    1.34    0.21
   0  -3 -14    1.31    0.27
   0  -3  14    1.50    0.30
   0   3 -14    1.16    0.28
  -1  -3 -14    0.30    0.17
  -1  -3 -14    0.06    0.18
   1  -3  14   -0.17    0.20
  -1   3 -14    0.12    0.15
  -1   3 -14    0.28    0.26
  -2  -3 -14    0.57    0.21
   2  -3  14    0.84    0.28
  -2  -3 -14    0.64    0.22
  -2   3 -14    0.80    0.26
  -2   3 -14    0.84    0.24
   3  -3  14    0.57    0.27
  -3  -3 -14    0.96    0.27
  -3   3 -14    0.74    0.24
  -3   3 -14   -0.01    0.30
  -4  -3 -14    4.80    0.46
   4  -3  14    5.71    0.54
  -4   3 -14    4.99    0.47
  -4   3 -14    3.21    0.51
  -5   3 -14    0.23    0.21
  -4  -4  14    2.73    0.39
   4   4 -14    3.16    0.44
   3  -4 -14    1.35    0.32
  -3  -4  14    0.86    0.27
   3   4 -14    1.06    0.33
   2  -4 -14    1.40    0.31
  -2  -4  14    1.14    0.27
   2   4 -14    0.98    0.28
   1  -4 -14    0.45    0.24
  -1  -4  14    0.33    0.22
   1   4 -14    0.33    0.21
   0  -4  14    0.82    0.26
   0  -4 -14    0.80    0.27
   0   4 -14    0.72    0.26
  -1  -4 -14    0.97    0.22
  -1  -4 -14    0.85    0.26
   1  -4  14    0.92    0.28
  -1   4 -14    1.03    0.33
  -1   4 -14    0.59    0.27
   2  -4  14    0.52    0.24
  -2  -4 -14    0.48    0.20
  -2  -4 -14    0.49    0.23
  -2   4 -14    0.64    0.27
  -2   4 -14    0.28    0.25
  -3  -4 -14    2.66    0.38
   3  -4  14    2.40    0.38
  -3   4 -14    4.31    0.50
  -3   4 -14    2.41    0.43
  -4  -4 -14    0.61    0.26
  -4   4 -14    0.81    0.28
  -2  -5  14    1.05    0.28
  -1  -5  14    0.49    0.23
   0  -5 -14   -0.02    0.24
   0  -5  14   -0.31    0.16
   1  -5  14   -0.10    0.21
  -1  -5 -14    0.21    0.20
  -1  -5 -14   -0.28    0.20
  -2  -5 -14    0.37    0.26
  -2  -5 -14    0.28    0.19
  -6   0  15    1.65    0.39
  -5   0  15    0.19    0.21
  -4   0  15    0.94    0.32
   3   0 -15    5.16    0.46
  -3   0  15    5.98    0.48
  -2   0  15   16.45    0.74
   2   0 -15   15.10    0.70
  -1   0  15    3.41    0.44
   1   0 -15    2.97    0.41
   0   0  15    0.22    0.23
   0   0 -15   -0.24    0.14
  -1   0 -15    0.04    0.17
   1   0  15    0.14    0.25
  -2   0 -15    3.75    0.42
   2   0  15    4.57    0.49
  -3   0 -15    0.32    0.21
   3   0  15    0.30    0.26
  -4   0 -15    1.10    0.33
   4   0  15    1.34    0.36
   5   0  15    0.11    0.27
  -6  -1  15    0.71    0.32
  -6   1  15    1.02    0.33
  -5  -1  15    1.11    0.32
  -5   1  15    1.02    0.32
  -4  -1  15    0.47    0.28
  -4   1  15    0.46    0.27
   4   1 -15    0.23    0.20
  -3  -1  15    0.17    0.20
   3   1 -15    0.01    0.19
  -3   1  15    0.16    0.26
  -2  -1  15    3.36    0.43
   2  -1 -15    2.13    0.30
  -2   1  15    3.03    0.41
   2   1 -15    2.88    0.35
   1  -1 -15    2.23    0.32
  -1  -1  15    2.13    0.35
   1   1 -15    1.68    0.29
  -1   1  15    2.83    0.39
   0  -1 -15   -0.05    0.17
   0  -1  15    0.09    0.17
   0   1 -15   -0.16    0.16
   0   1  15   -0.31    0.19
   0   1 -15   -0.02    0.13
  -1  -1 -15    0.20    0.22
   1  -1  15    0.27    0.24
  -1   1 -15    0.05    0.19
   1   1  15    0.13    0.18
   2  -1  15    0.60    0.29
  -2  -1 -15    0.58    0.26
  -2   1 -15    0.56    0.30
   2   1  15    0.46    0.27
  -3  -1 -15   -0.09    0.16
   3  -1  15    0.12    0.19
  -3   1 -15   -0.30    0.25
   3   1  15   -0.07    0.23
  -4  -1 -15    2.27    0.36
   4  -1  15    2.43    0.43
   4   1  15    2.00    0.39
  -4   1 -15    1.96    0.36
   5  -1  15    0.29    0.28
   5   1  15    0.41    0.24
  -5  -2  15    0.04    0.19
   5   2 -15    0.16    0.20
  -5   2  15   -0.12    0.23
  -4  -2  15    1.76    0.36
  -4   2  15    1.81    0.36
   4   2 -15    1.43    0.30
  -3  -2  15    1.75    0.31
  -3   2  15    1.62    0.35
   3   2 -15    1.59    0.33
  -2  -2  15    0.68    0.23
   2   2 -15    0.56    0.26
  -2   2  15    0.50    0.26
   1  -2 -15    0.33    0.20
  -1  -2  15    0.37    0.25
   1   2 -15    0.45    0.26
  -1   2  15    0.65    0.27
   0  -2  15    1.86    0.31
   0  -2 -15    2.12    0.31
   0   2  15    1.99    0.35
   0   2 -15    2.18    0.38
  -1  -2 -15    0.18    0.19
  -1  -2 -15    0.36    0.16
   1  -2  15   -0.06    0.22
  -1  -2 -15    0.01    0.17
  -1   2 -15    0.49    0.23
  -1   2 -15    0.47    0.19
   1   2  15    0.40    0.24
  -2  -2 -15    0.26    0.17
  -2  -2 -15    0.20    0.17
   2  -2  15   -0.05    0.23
   2   2  15    0.05    0.23
  -2   2 -15   -0.22    0.27
  -2   2 -15    0.33    0.17
   3  -2  15    0.01    0.26
  -3   2 -15   -0.01    0.22
   3   2  15    0.00    0.17
  -3   2 -15    0.33    0.17
   4  -2  15    0.75    0.31
   4   2  15    0.90    0.32
  -4   2 -15    0.16    0.33
   6   3 -15    0.09    0.21
   5   3 -15    0.00    0.22
  -4  -3  15    1.58    0.34
   4   3 -15    0.78    0.25
  -3  -3  15    0.62    0.28
   3   3 -15    0.83    0.30
  -2  -3  15    0.32    0.24
   2   3 -15    0.25    0.19
  -1  -3  15    0.58    0.25
   1  -3 -15    0.98    0.26
   1   3 -15    0.28    0.22
   0  -3  15    1.30    0.31
   0  -3 -15    1.54    0.30
   0   3 -15    1.31    0.35
   1  -3  15    0.60    0.22
  -1  -3 -15    0.33    0.21
  -1  -3 -15    0.45    0.17
  -1   3 -15    0.20    0.21
  -1   3 -15    0.02    0.27
   2  -3  15   -0.16    0.22
  -2  -3 -15   -0.10    0.18
  -2  -3 -15    0.04    0.18
  -2   3 -15   -0.09    0.20
  -2   3 -15   -0.03    0.19
   3  -3  15    0.04    0.24
  -3  -3 -15   -0.20    0.17
  -3   3 -15    0.08    0.19
  -3   3 -15   -0.44    0.30
  -4  -3 -15    0.29    0.19
  -4   3 -15    0.43    0.22
  -5   3 -15    0.37    0.23
   3   4 -15    0.23    0.21
   2  -4 -15    2.12    0.34
  -2  -4  15    1.74    0.33
   2   4 -15    2.28    0.42
   1  -4 -15    0.31    0.24
  -1  -4  15    0.73    0.27
   1   4 -15    0.70    0.33
   0  -4 -15    0.79    0.27
   0  -4  15    0.29    0.23
   0   4 -15    0.32    0.26
   0   4 -15    0.73    0.32
  -1  -4 -15    0.68    0.26
   1  -4  15    0.37    0.25
  -1   4 -15    0.26    0.25
  -1   4 -15    0.49    0.28
  -2  -4 -15    0.47    0.23
  -2  -4 -15    0.18    0.19
  -2   4 -15    0.73    0.27
  -3  -4 -15    0.17    0.20
  -3   4 -15   -0.05    0.21
  -5   0  16   -0.30    0.24
  -4   0  16    0.01    0.25
   3   0 -16   -0.50    0.17
  -3   0  16    0.05    0.25
  -2   0  16    4.01    0.42
   2   0 -16    3.44    0.43
   1   0 -16   -0.29    0.21
  -1   0  16    0.32    0.27
   0   0 -16   -0.19    0.14
   0   0  16   -0.22    0.22
  -1   0 -16   -0.41    0.21
   1   0  16   -0.17    0.16
  -2   0 -16   -0.10    0.24
   2   0  16   -0.11    0.25
   3   0  16    0.31    0.23
  -3   0 -16    0.05    0.25
  -4   0 -16    2.12    0.42
   4   0  16    2.33    0.42
  -6   1  16    0.32    0.31
  -5  -1  16    0.72    0.31
  -5   1  16    0.36    0.24
  -4  -1  16   -0.10    0.18
  -4   1  16   -0.13    0.22
   4   1 -16   -0.29    0.18
  -3  -1  16    0.25    0.27
  -3   1  16    0.54    0.29
   3   1 -16    0.18    0.22
   2  -1 -16    5.01    0.44
  -2  -1  16    6.24    0.55
   2   1 -16    4.85    0.50
  -2   1  16    5.02    0.52
  -1  -1  16    2.28    0.39
   1  -1 -16    1.37    0.29
   1   1 -16    0.97    0.26
  -1   1  16    1.55    0.35
   0  -1 -16    0.09    0.21
   0  -1  16    0.02    0.23
   0   1  16    0.27    0.21
   0   1 -16   -0.19    0.17
  -1  -1 -16    0.23    0.22
   1  -1  16    0.16    0.26
  -1   1 -16   -0.14    0.18
   1   1  16   -0.24    0.22
  -2  -1 -16    0.33    0.25
   2  -1  16    0.83    0.31
  -2   1 -16    0.29    0.24
   2   1  16    0.32    0.22
   3  -1  16    0.48    0.31
  -3  -1 -16    0.01    0.24
   3   1  16   -0.17    0.26
  -3   1 -16    0.12    0.30
   4  -1  16    0.77    0.34
   4   1  16    0.82    0.33
   5   1  16    1.30    0.36
  -4  -2  16   -0.18    0.24
  -4   2  16    0.09    0.19
   4   2 -16    0.09    0.21
  -3  -2  16    2.23    0.39
  -3   2  16    1.89    0.39
   3   2 -16    1.76    0.34
  -2  -2  16    0.68    0.29
   2   2 -16    0.40    0.22
  -2   2  16    0.23    0.25
   1  -2 -16    0.23    0.18
  -1  -2  16   -0.16    0.23
  -1   2  16   -0.12    0.22
   1   2 -16    0.08    0.19
   0  -2  16    0.63    0.29
   0  -2 -16    0.74    0.23
   0   2 -16    0.52    0.25
   0   2 -16    0.87    0.22
   0   2  16    0.98    0.26
  -1  -2 -16    1.03    0.27
   1  -2  16    1.18    0.29
  -1  -2 -16    1.11    0.24
   1   2  16    1.31    0.32
  -1   2 -16    0.65    0.20
  -1   2 -16    1.08    0.30
  -2  -2 -16    0.42    0.19
   2  -2  16    0.44    0.29
   2   2  16    0.45    0.28
  -2   2 -16   -0.04    0.30
   3  -2  16   -0.03    0.20
  -3   2 -16   -0.24    0.30
   3   2  16    0.05    0.27
   5   3 -16    0.61    0.27
   4   3 -16    2.02    0.38
  -3  -3  16    1.82    0.37
   3   3 -16    1.12    0.29
  -2  -3  16    0.82    0.29
   2   3 -16    0.55    0.28
   1  -3 -16   -0.07    0.22
  -1  -3  16   -0.15    0.22
   1   3 -16   -0.34    0.24
   0  -3  16    1.62    0.31
   0  -3 -16    1.47    0.27
   0   3 -16    1.56    0.31
   0   3 -16    1.19    0.36
   1  -3  16    0.35    0.27
  -1  -3 -16    0.32    0.22
  -1   3 -16    0.05    0.20
  -1   3 -16   -0.04    0.29
  -2  -3 -16    0.42    0.22
  -2   3 -16    0.25    0.21
  -3  -3 -16    0.38    0.23
  -3   3 -16    0.62    0.24
   0  -4 -16    0.07    0.23
   0   4 -16   -0.18    0.21
  -1  -4 -16    0.23    0.23
  -1   4 -16    0.10    0.23
  -4   0  17   -0.51    0.22
  -3   0  17   -0.34    0.25
  -2   0  17    1.97    0.38
   2   0 -17    1.35    0.35
   1   0 -17    0.48    0.28
  -1   0  17    1.11    0.34
   0   0 -17    0.57    0.24
   0   0  17    0.01    0.26
   1   0  17   -0.05    0.26
  -1   0 -17   -0.43    0.24
   2   0  17    0.00    0.20
  -2   0 -17   -0.59    0.23
   3   0  17    0.52    0.32
  -5   1  17    0.16    0.30
  -4  -1  17   -0.01    0.27
  -4   1  17    0.34    0.29
  -3  -1  17   -0.37    0.24
  -3   1  17   -0.10    0.20
   3   1 -17   -0.31    0.21
  -2  -1  17    1.60    0.36
  -2   1  17    1.90    0.39
   2   1 -17    1.04    0.32
   1  -1 -17    5.14    0.49
  -1  -1  17    5.69    0.56
  -1   1  17    5.32    0.55
   1   1 -17    4.07    0.54
   0  -1 -17   -0.38    0.19
   0  -1  17    0.48    0.30
   0   1 -17   -0.21    0.19
   0   1  17   -0.15    0.24
  -1  -1 -17    0.61    0.28
   1  -1  17    0.48    0.23
   1   1  17    0.57    0.25
  -1   1 -17    0.67    0.28
   2  -1  17    0.01    0.26
  -2  -1 -17    0.43    0.26
  -2   1 -17    0.25    0.25
   2   1  17    0.38    0.30
  -3  -1 -17    0.32    0.27
   3   1  17    0.43    0.31
   4   1  17    0.56    0.33
   4   2 -17    0.67    0.28
  -3   2  17    0.14    0.26
   3   2 -17    0.46    0.23
  -2  -2  17    0.05    0.26
  -2   2  17    0.30    0.26
   2   2 -17   -0.24    0.24
  -1  -2  17   -0.20    0.23
  -1   2  17   -0.45    0.22
   1   2 -17   -0.24    0.25
   0  -2 -17    0.00    0.18
   0  -2  17    0.06    0.27
   0   2 -17   -0.06    0.21
   0   2  17   -0.51    0.21
  -1  -2 -17    0.23    0.20
  -1  -2 -17    0.41    0.24
   1  -2  17    0.15    0.28
   1   2  17    0.58    0.29
  -1   2 -17    0.14    0.25
   1  -3 -17   -0.08    0.21
   0  -3 -17    0.39    0.25
   0   3 -17   -0.01    0.22
  -1  -3 -17    0.49    0.26
  -1   3 -17    0.33    0.25
  -3   0  18    0.34    0.24
   2   0 -18    0.12    0.26
  -2   0  18    0.66    0.32
  -1   0  18   12.97    0.78
   1   0 -18   11.91    0.75
   0   0  18   -0.08    0.25
   0   0 -18   -0.06    0.27
  -1   0 -18   -0.56    0.24
   1   0  18   -0.41    0.25
   2   0  18    0.23    0.31
  -4   1  18   -0.12    0.21
   3   1 -18    0.02    0.27
  -3   1  18    0.70    0.32
  -2  -1  18    0.74    0.33
   2   1 -18    0.34    0.30
  -2   1  18    0.94    0.32
  -1  -1  18    0.23    0.30
   1  -1 -18    0.33    0.24
   1   1 -18    0.07    0.30
  -1   1  18    0.58    0.31
   0  -1  18    0.22    0.30
   0  -1 -18   -0.17    0.21
   0   1 -18   -0.59    0.26
   0   1  18   -0.15    0.27
  -1  -1 -18    1.18    0.33
  -1   1 -18    0.95    0.32
   1   1  18    1.33    0.36
   2   1  18   -0.01    0.27
   3   2 -18    0.28    0.29
   2   2 -18   -0.01    0.21
   1   2 -18   -0.61    0.26
   0  -2 -18    0.30    0.23
  -1  -2 -18    0.23    0.21
   1   0 -19   -0.29    0.27
   0   0 -19    0.09    0.30
   2   1 -19   -0.80    0.26
  -2   1  19   -0.14    0.25
   1   1 -19   -0.53    0.28
  -1   1  19    0.80    0.35
   0  -1 -19   -0.04    0.23
   0   1  19    0.04    0.28
   0   0   0    0.00    0.00
;
_shelx_hkl_checksum              16088
loop_
_space_group_symop_operation_xyz
'x, y, z'
'-x, y+1/2, -z'
loop_
_atom_site_label
_atom_site_type_symbol
_atom_site_fract_x
_atom_site_fract_y
_atom_site_fract_z
_atom_site_U_iso_or_equiv
_atom_site_adp_type
_atom_site_occupancy
_atom_site_site_symmetry_order
_atom_site_calc_flag
_atom_site_refinement_flags_posn
_atom_site_refinement_flags_adp
C1 C -0.3369(4) 0.0072(5) 0.9789(2) 0.0615(8) Uani 1 1 d . .
H1A H -0.3363 -0.1284 0.9394 0.092 Uiso 1 1 calc R U
H1B H -0.4524 0.0256 1.0033 0.092 Uiso 1 1 calc R U
H1C H -0.2491 -0.0086 1.0316 0.092 Uiso 1 1 calc R U
C2 C -0.1380(3) 0.2066(5) 0.88130(16) 0.0393(5) Uani 1 1 d . .
C3 C -0.0091(3) 0.0379(4) 0.89272(17) 0.0450(6) Uani 1 1 d . .
H3 H -0.0275 -0.0903 0.9309 0.054 Uiso 1 1 calc R U
C4 C 0.1479(3) 0.0602(4) 0.84715(17) 0.0425(6) Uani 1 1 d . .
H4 H 0.2340 -0.0545 0.8553 0.051 Uiso 1 1 calc R U
C5 C 0.1799(3) 0.2480(4) 0.79004(15) 0.0358(5) Uani 1 1 d . .
C6 C 0.0493(3) 0.4159(4) 0.77983(16) 0.0419(6) Uani 1 1 d . .
H6 H 0.0679 0.5447 0.7420 0.050 Uiso 1 1 calc R U
C7 C -0.1080(3) 0.3964(4) 0.82466(17) 0.0439(6) Uani 1 1 d . .
H7 H -0.1941 0.5112 0.8167 0.053 Uiso 1 1 calc R U
C8 C 0.3560(3) 0.2667(4) 0.74437(17) 0.0416(6) Uani 1 1 d . .
H8A H 0.4501 0.2868 0.7945 0.050 Uiso 1 1 calc R U
H8B H 0.3784 0.1233 0.7114 0.050 Uiso 1 1 calc R U
C9 C 0.3026(3) 0.4377(4) 0.57771(16) 0.0341(5) Uani 1 1 d . .
C10 C 0.2068(3) 0.2452(4) 0.54633(18) 0.0449(6) Uani 1 1 d . .
H10 H 0.1811 0.1294 0.5894 0.054 Uiso 1 1 calc R U
C11 C 0.1499(3) 0.2262(5) 0.45099(19) 0.0550(7) Uani 1 1 d . .
H11 H 0.0863 0.0961 0.4299 0.066 Uiso 1 1 calc R U
C12 C 0.1855(3) 0.3956(5) 0.38664(19) 0.0559(8) Uani 1 1 d . .
H12 H 0.1465 0.3812 0.3224 0.067 Uiso 1 1 calc R U
C13 C 0.2797(3) 0.5873(5) 0.41835(18) 0.0514(7) Uani 1 1 d . .
H13 H 0.3032 0.7038 0.3751 0.062 Uiso 1 1 calc R U
C14 C 0.3394(3) 0.6090(4) 0.51281(18) 0.0428(6) Uani 1 1 d . .
H14 H 0.4045 0.7384 0.5332 0.051 Uiso 1 1 calc R U
N2 N 0.4201(3) 0.6657(4) 0.70457(16) 0.0481(5) Uani 1 1 d . .
N1 N 0.3634(2) 0.4572(3) 0.67620(14) 0.0371(5) Uani 1 1 d . .
O1 O -0.2967(2) 0.2044(3) 0.92339(13) 0.0557(5) Uani 1 1 d . .
O2 O 0.4691(3) 0.6791(4) 0.79055(13) 0.0622(5) Uani 1 1 d . .
loop_
_atom_site_aniso_label
_atom_site_aniso_U_11
_atom_site_aniso_U_22
_atom_site_aniso_U_33
_atom_site_aniso_U_23
_atom_site_aniso_U_13
_atom_site_aniso_U_12
C1 0.0640(18) 0.065(2) 0.0572(18) 0.0092(15) 0.0184(14) -0.0080(15)
C2 0.0377(11) 0.0470(14) 0.0331(11) 0.0009(11) 0.0018(9) -0.0001(11)
C3 0.0537(15) 0.0390(14) 0.0426(14) 0.0086(11) 0.0070(11) 0.0021(12)
C4 0.0467(14) 0.0356(14) 0.0452(14) 0.0033(11) 0.0028(11) 0.0113(11)
C5 0.0388(11) 0.0346(12) 0.0335(11) -0.0006(10) -0.0004(9) 0.0032(10)
C6 0.0413(13) 0.0400(14) 0.0443(13) 0.0113(11) 0.0022(10) 0.0038(11)
C7 0.0377(12) 0.0441(15) 0.0497(14) 0.0084(12) 0.0017(10) 0.0104(11)
C8 0.0412(13) 0.0383(14) 0.0455(14) 0.0051(11) 0.0044(10) 0.0071(11)
C9 0.0289(11) 0.0327(12) 0.0414(13) -0.0011(10) 0.0084(9) 0.0026(9)
C10 0.0422(13) 0.0391(14) 0.0542(15) 0.0009(12) 0.0087(11) -0.0052(11)
C11 0.0468(14) 0.0568(18) 0.0611(17) -0.0134(15) 0.0012(12) -0.0104(13)
C12 0.0487(15) 0.072(2) 0.0465(15) -0.0055(15) -0.0004(12) 0.0018(15)
C13 0.0517(15) 0.0568(18) 0.0468(15) 0.0104(13) 0.0117(12) 0.0040(13)
C14 0.0403(13) 0.0374(14) 0.0519(15) 0.0009(12) 0.0116(11) -0.0025(10)
N2 0.0500(12) 0.0405(12) 0.0540(14) -0.0089(10) 0.0040(10) -0.0016(10)
N1 0.0353(10) 0.0322(11) 0.0445(11) -0.0012(9) 0.0084(8) -0.0001(8)
O1 0.0480(10) 0.0629(12) 0.0578(11) 0.0149(10) 0.0156(8) 0.0045(9)
O2 0.0687(12) 0.0609(12) 0.0556(12) -0.0165(10) -0.0057(9) 0.0045(10)
loop_
_atom_type_symbol
_atom_type_description
_atom_type_scat_dispersion_real
_atom_type_scat_dispersion_imag
_atom_type_scat_source
C C 0.0033 0.0016 'International Tables Vol C Tables 4.2.6.8 and 6.1.1.4'
H H 0.0000 0.0000 'International Tables Vol C Tables 4.2.6.8 and 6.1.1.4'
N N 0.0061 0.0033 'International Tables Vol C Tables 4.2.6.8 and 6.1.1.4'
O O 0.0106 0.0060 'International Tables Vol C Tables 4.2.6.8 and 6.1.1.4'
loop_
_geom_angle_atom_site_label_1
_geom_angle_atom_site_label_2
_geom_angle_atom_site_label_3
_geom_angle
O1 C1 H1A 109.5
O1 C1 H1B 109.5
H1A C1 H1B 109.5
O1 C1 H1C 109.5
H1A C1 H1C 109.5
H1B C1 H1C 109.5
O1 C2 C3 124.9(2)
O1 C2 C7 115.7(2)
C3 C2 C7 119.4(2)
C2 C3 C4 119.7(2)
C2 C3 H3 120.1
C4 C3 H3 120.1
C5 C4 C3 121.7(2)
C5 C4 H4 119.1
C3 C4 H4 119.1
C4 C5 C6 117.6(2)
C4 C5 C8 119.45(19)
C6 C5 C8 122.9(2)
C7 C6 C5 121.4(2)
C7 C6 H6 119.3
C5 C6 H6 119.3
C6 C7 C2 120.1(2)
C6 C7 H7 119.9
C2 C7 H7 119.9
N1 C8 C5 113.64(18)
N1 C8 H8A 108.8
C5 C8 H8A 108.8
N1 C8 H8B 108.8
C5 C8 H8B 108.8
H8A C8 H8B 107.7
C10 C9 C14 119.5(2)
C10 C9 N1 119.8(2)
C14 C9 N1 120.7(2)
C11 C10 C9 119.6(2)
C11 C10 H10 120.2
C9 C10 H10 120.2
C12 C11 C10 121.0(3)
C12 C11 H11 119.5
C10 C11 H11 119.5
C11 C12 C13 119.1(2)
C11 C12 H12 120.4
C13 C12 H12 120.4
C14 C13 C12 120.9(3)
C14 C13 H13 119.6
C12 C13 H13 119.6
C13 C14 C9 119.8(2)
C13 C14 H14 120.1
C9 C14 H14 120.1
O2 N2 N1 114.6(2)
N2 N1 C9 115.77(18)
N2 N1 C8 121.07(19)
C9 N1 C8 123.07(18)
C2 O1 C1 117.7(2)
loop_
_geom_bond_atom_site_label_1
_geom_bond_atom_site_label_2
_geom_bond_distance
C1 O1 1.425(3)
C1 H1A 0.9600
C1 H1B 0.9600
C1 H1C 0.9600
C2 O1 1.366(3)
C2 C3 1.379(3)
C2 C7 1.381(3)
C3 C4 1.384(3)
C3 H3 0.9300
C4 C5 1.380(3)
C4 H4 0.9300
C5 C6 1.384(3)
C5 C8 1.512(3)
C6 C7 1.381(3)
C6 H6 0.9300
C7 H7 0.9300
C8 N1 1.461(3)
C8 H8A 0.9700
C8 H8B 0.9700
C9 C10 1.384(3)
C9 C14 1.384(3)
C9 N1 1.426(3)
C10 C11 1.376(3)
C10 H10 0.9300
C11 C12 1.369(4)
C11 H11 0.9300
C12 C13 1.375(4)
C12 H12 0.9300
C13 C14 1.371(4)
C13 H13 0.9300
C14 H14 0.9300
N2 O2 1.235(3)
N2 N1 1.332(3)
loop_
_geom_hbond_atom_site_label_D
_geom_hbond_atom_site_label_H
_geom_hbond_atom_site_label_A
_geom_hbond_distance_DH
_geom_hbond_distance_HA
_geom_hbond_distance_DA
_geom_hbond_angle_DHA
_geom_hbond_site_symmetry_A
C8 H8A O1 0.97 2.58 3.516(3) 162.4 1_655
C8 H8B N2 0.97 2.67 3.564(3) 153.1 1_545
loop_
_geom_torsion_atom_site_label_1
_geom_torsion_atom_site_label_2
_geom_torsion_atom_site_label_3
_geom_torsion_atom_site_label_4
_geom_torsion
O1 C2 C3 C4 -179.3(2)
C7 C2 C3 C4 -0.3(3)
C2 C3 C4 C5 0.0(4)
C3 C4 C5 C6 0.3(3)
C3 C4 C5 C8 178.2(2)
C4 C5 C6 C7 -0.3(3)
C8 C5 C6 C7 -178.2(2)
C5 C6 C7 C2 0.1(3)
O1 C2 C7 C6 179.3(2)
C3 C2 C7 C6 0.2(3)
C4 C5 C8 N1 172.5(2)
C6 C5 C8 N1 -9.6(3)
C14 C9 C10 C11 0.2(3)
N1 C9 C10 C11 -179.4(2)
C9 C10 C11 C12 -0.4(4)
C10 C11 C12 C13 0.0(4)
C11 C12 C13 C14 0.7(4)
C12 C13 C14 C9 -0.9(4)
C10 C9 C14 C13 0.5(3)
N1 C9 C14 C13 -180.0(2)
O2 N2 N1 C9 178.79(19)
O2 N2 N1 C8 2.1(3)
C10 C9 N1 N2 -166.2(2)
C14 C9 N1 N2 14.3(3)
C10 C9 N1 C8 10.5(3)
C14 C9 N1 C8 -169.1(2)
C5 C8 N1 N2 90.4(2)
C5 C8 N1 C9 -86.1(2)
C3 C2 O1 C1 -3.7(3)
C7 C2 O1 C1 177.2(2)
