#------------------------------------------------------------------------------
#$Date: 2016-08-07 11:21:06 +0300 (Sun, 07 Aug 2016) $
#$Revision: 185220 $
#$URL: file:///home/coder/svn-repositories/cod/cif/7/22/50/7225093.cif $
#------------------------------------------------------------------------------
#
# This file is available in the Crystallography Open Database (COD),
# http://www.crystallography.net/
#
# All data on this site have been placed in the public domain by the
# contributors.
#
data_7225093
loop_
_publ_author_name
'Maini, L.'
'Braga, D.'
'Grepioni, F.'
'Lampronti, G. I.'
'Gaglioti, K.'
'Gobetto, R.'
'Chierotti, M. R.'
_publ_section_title
;
 From isomorphous to &#x201C;anisomorphous&#x201D; ionic co-crystals of
 barbituric acid upon dehydration and return
;
_journal_issue                   24
_journal_name_full               CrystEngComm
_journal_page_first              4651
_journal_paper_doi               10.1039/C6CE00566G
_journal_volume                  18
_journal_year                    2016
_chemical_formula_moiety         'C4 H4 N2 O3 K1 Br1'
_chemical_formula_sum            'C4 H4 Br K N2 O3'
_chemical_formula_weight         247.09
_space_group_IT_number           14
_symmetry_cell_setting           monoclinic
_symmetry_space_group_name_Hall  '-P 2yn'
_symmetry_space_group_name_H-M   'P 1 21/n 1'
_audit_update_record
;
2016-03-09 deposited with the CCDC.
2016-05-04 downloaded from the CCDC.
;
_cell_angle_alpha                90
_cell_angle_beta                 97.8638(9)
_cell_angle_gamma                90
_cell_formula_units_Z            4
_cell_length_a                   13.3233(5)
_cell_length_b                   7.3226(2)
_cell_length_c                   8.0133(3)
_cell_measurement_temperature    298
_cell_volume                     774.44(5)
_diffrn_ambient_temperature      298
_diffrn_measurement_device_type  'Panalytical XPert PRO'
_diffrn_radiation_probe          x-ray
_diffrn_radiation_type           'Cu K\a'
_diffrn_radiation_wavelength     1.54060
_exptl_crystal_colour            'white powder'
_exptl_crystal_density_diffrn    2.119
_exptl_crystal_description       powder
_pd_char_colour                  white
_pd_proc_ls_prof_R_factor        0.0215
_pd_proc_ls_prof_wR_expected     0.0139
_pd_proc_ls_prof_wR_factor       0.0290
_refine_ls_goodness_of_fit_all   2.09046
_refine_ls_number_parameters     0.000000
_refine_ls_R_I_factor            0.0115
_refine_ls_shift/su_max          0.0173412266
_cod_data_source_file            c6ce00566g2.cif
_cod_data_source_block           BA_NaBr_anhydrous_OKOK_1
_cod_depositor_comments
;
The following automatic conversions were performed:

'_symmetry_cell_setting' value 'Monoclinic' changed to 'monoclinic'
according to
/usr/data/users/saulius/crontab/automatic-downloads/rss-feeds/RSC/lib/dictionaries/cif_core.dic
dictionary named 'cif_core.dic' version 2.4.2 from 2011-04-26.

Automatic conversion script
Id: cif_fix_values 4268 2015-11-12 08:31:59Z antanas 

 Adding full bibliography for 7225093--7225095.cif.
;
_cod_original_sg_symbol_H-M      P121/n1
_cod_database_code               7225093
loop_
_symmetry_equiv_pos_as_xyz
'x, y, z '
'-x+1/2, y+1/2, -z+1/2 '
'-x, -y, -z '
'x+1/2, -y+1/2, z+1/2 '
loop_
_atom_site_label
_atom_site_type_symbol
_atom_site_symmetry_multiplicity
_atom_site_fract_x
_atom_site_fract_y
_atom_site_fract_z
_atom_site_occupancy
_atom_site_B_iso_or_equiv
Br1 Br 4 0.07351(8) -0.89133(16) 0.32054(13) 1 2.5(3)
K1 K 4 0.19560(16) 0.9501(3) -0.3007(2) 1 2.5(3)
O2 O 4 0.6740(4) -0.1923(7) 0.4446(5) 1 2.8(3)
O4 O 4 0.3745(3) -0.2454(7) 0.6441(4) 1 2.8(3)
O6 O 4 0.6751(2) -0.0997(7) 0.9999(4) 1 2.8(3)
N3 N 4 0.5237(3) -0.2139(6) 0.5451(4) 1 2.1(4)
C6 C 4 0.6248(2) -0.1231(5) 0.8632(4) 1 2.0(3)
C4 C 4 0.4631(3) -0.2038(5) 0.6717(4) 1 2.0(3)
C2 C 4 0.6259(3) -0.1821(6) 0.5636(4) 1 2.0(3)
C5 C 4 0.5119(2) -0.1312(4) 0.8377(3) 1 2.0(3)
H5a H 4 0.4887(3) -0.2178(4) 0.9360(4) 1 2.0(3)
H5b H 4 0.4837(3) 0.0069(4) 0.8512(4) 1 2.0(3)
N1 N 4 0.6716(2) -0.1361(6) 0.7219(5) 1 2.0(3)
H3 H 4 0.4895(4) -0.2478(7) 0.4283(4) 1 2.0(3)
H1 H 4 0.7470(3) -0.1093(8) 0.7354(6) 1 2.0(3)
loop_
_geom_angle_atom_site_label_1
_geom_angle_atom_site_label_2
_geom_angle_atom_site_label_3
_geom_angle
_geom_angle_site_symmetry_1
_geom_angle_site_symmetry_2
_geom_angle_site_symmetry_3
H1 Br1 H3 95.07(14) 3_646 1_555 2_545
H5a Br1 H1 123.71(14) 2_546 1_555 3_646
H5a Br1 H3 108.35(14) 2_546 1_555 2_545
H5b Br1 H5a 46.83(11) 4_444 1_555 2_546
H5b Br1 H1 113.90(18) 4_444 1_555 3_646
H5b Br1 H3 63.49(13) 4_444 1_555 2_545
O4 K1 O2 98.77(13) 2_565 1_555 4_454
O2 K1 O4 86.80(13) 3_665 1_555 2_565
O2 K1 O2 147.57(8) 3_665 1_555 4_454
O4 K1 O2 71.40(15) 1_564 1_555 3_665
O4 K1 O4 143.85(13) 1_564 1_555 2_565
O4 K1 O2 86.46(11) 1_564 1_555 4_454
O6 K1 O4 84.67(11) 3_666 1_555 1_564
O6 K1 O2 77.29(11) 3_666 1_555 3_665
O6 K1 O4 62.10(12) 3_666 1_555 2_565
O6 K1 O2 77.33(12) 3_666 1_555 4_454
O6 K1 O6 138.01(15) 4_453 1_555 3_666
O6 K1 O4 60.67(8) 4_453 1_555 1_564
O6 K1 O2 109.46(9) 4_453 1_555 3_665
O6 K1 O4 155.43(11) 4_453 1_555 2_565
O6 K1 O2 77.58(13) 4_453 1_555 4_454
N3 O2 C2 30.946 1_555 1_555 1_555
N1 O2 N3 62.060 1_555 1_555 1_555
N1 O2 C2 31.117 1_555 1_555 1_555
H1 O2 N1 24.207 1_555 1_555 1_555
H1 O2 N3 86.264 1_555 1_555 1_555
H1 O2 C2 55.323 1_555 1_555 1_555
H3 O2 H1 110.448 1_555 1_555 1_555
H3 O2 N1 86.245 1_555 1_555 1_555
H3 O2 N3 24.185 1_555 1_555 1_555
H3 O2 C2 55.130 1_555 1_555 1_555
K1 O2 H3 92.83(17) 4_555 1_555 1_555
K1 O2 H1 140.37(17) 4_555 1_555 1_555
K1 O2 N1 146.86(16) 4_555 1_555 1_555
K1 O2 N3 112.83(16) 4_555 1_555 1_555
K1 O2 C2 135.39(16) 4_555 1_555 1_555
K1 O2 K1 90.51(9) 3_665 1_555 4_555
K1 O2 H3 137.73(17) 3_665 1_555 1_555
K1 O2 H1 92.60(15) 3_665 1_555 1_555
K1 O2 N1 112.15(15) 3_665 1_555 1_555
K1 O2 N3 144.03(17) 3_665 1_555 1_555
K1 O2 C2 134.06(15) 3_665 1_555 1_555
N3 O4 C4 31.972 1_555 1_555 1_555
C5 O4 N3 63.662 1_555 1_555 1_555
C5 O4 C4 31.716 1_555 1_555 1_555
H3 O4 C5 87.888 1_555 1_555 1_555
H3 O4 N3 24.336 1_555 1_555 1_555
H3 O4 C4 56.271 1_555 1_555 1_555
H5a O4 H3 106.644 1_555 1_555 1_555
H5a O4 C5 24.576 1_555 1_555 1_555
H5a O4 N3 82.717 1_555 1_555 1_555
H5a O4 C4 51.974 1_555 1_555 1_555
H5b O4 H5a 38.490 1_555 1_555 1_555
H5b O4 H3 95.704 1_555 1_555 1_555
H5b O4 C5 22.965 1_555 1_555 1_555
H5b O4 N3 74.021 1_555 1_555 1_555
H5b O4 C4 45.642 1_555 1_555 1_555
K1 O4 H5b 116.54(11) 2_535 1_555 1_555
K1 O4 H5a 81.29(12) 2_535 1_555 1_555
K1 O4 H3 126.19(14) 2_535 1_555 1_555
K1 O4 C5 105.24(13) 2_535 1_555 1_555
K1 O4 N3 127.45(16) 2_535 1_555 1_555
K1 O4 C4 119.91(15) 2_535 1_555 1_555
K1 O4 K1 89.62(11) 1_546 1_555 2_535
K1 O4 H5b 87.38(14) 1_546 1_555 1_555
K1 O4 H5a 102.58(11) 1_546 1_555 1_555
K1 O4 H3 136.25(13) 1_546 1_555 1_555
K1 O4 C5 107.78(13) 1_546 1_555 1_555
K1 O4 N3 142.79(16) 1_546 1_555 1_555
K1 O4 C4 131.10(15) 1_546 1_555 1_555
O6 O4 K1 62.16(10) 4_444 1_555 1_546
O6 O4 K1 62.11(12) 4_444 1_555 2_535
O6 O4 H5b 149.14(16) 4_444 1_555 1_555
O6 O4 H5a 139.10(17) 4_444 1_555 1_555
O6 O4 H3 109.46(17) 4_444 1_555 1_555
O6 O4 C5 162.33(17) 4_444 1_555 1_555
O6 O4 N3 133.44(17) 4_444 1_555 1_555
O6 O4 C4 164.72(17) 4_444 1_555 1_555
N1 O6 C6 32.017 1_555 1_555 1_555
C5 O6 N1 63.452 1_555 1_555 1_555
C5 O6 C6 31.455 1_555 1_555 1_555
H1 O6 C5 87.761 1_555 1_555 1_555
H1 O6 N1 24.534 1_555 1_555 1_555
H1 O6 C6 56.445 1_555 1_555 1_555
H5a O6 H1 107.184 1_555 1_555 1_555
H5a O6 C5 24.627 1_555 1_555 1_555
H5a O6 N1 82.867 1_555 1_555 1_555
H5a O6 C6 52.056 1_555 1_555 1_555
H5b O6 H5a 51.58(13) 3_657 1_555 1_555
H5b O6 H1 145.91(14) 3_657 1_555 1_555
H5b O6 C5 63.06(13) 3_657 1_555 1_555
H5b O6 N1 124.64(14) 3_657 1_555 1_555
H5b O6 C6 93.80(14) 3_657 1_555 1_555
H5b O6 H5b 51.62(14) 1_555 1_555 3_657
H5b O6 H5a 38.398 1_555 1_555 1_555
H5b O6 H1 94.702 1_555 1_555 1_555
H5b O6 C5 22.807 1_555 1_555 1_555
H5b O6 N1 73.343 1_555 1_555 1_555
H5b O6 C6 44.923 1_555 1_555 1_555
O4 O6 H5b 173.68(13) 4_545 1_555 1_555
O4 O6 H5b 130.36(19) 4_545 1_555 3_657
O4 O6 H5a 136.40(15) 4_545 1_555 1_555
O4 O6 H1 83.71(16) 4_545 1_555 1_555
O4 O6 C5 150.88(14) 4_545 1_555 1_555
O4 O6 N1 103.71(16) 4_545 1_555 1_555
O4 O6 C6 130.48(15) 4_545 1_555 1_555
K1 O6 O4 55.79(11) 3_666 1_555 4_545
K1 O6 H5b 129.88(17) 3_666 1_555 1_555
K1 O6 H5b 87.17(14) 3_666 1_555 3_657
K1 O6 H5a 135.27(13) 3_666 1_555 1_555
K1 O6 H1 117.47(13) 3_666 1_555 1_555
K1 O6 C5 149.40(15) 3_666 1_555 1_555
K1 O6 N1 141.41(13) 3_666 1_555 1_555
K1 O6 C6 165.77(18) 3_666 1_555 1_555
K1 O6 K1 83.31(10) 4_556 1_555 3_666
K1 O6 O4 57.17(11) 4_556 1_555 4_545
K1 O6 H5b 118.57(13) 4_556 1_555 1_555
K1 O6 H5b 89.99(17) 4_556 1_555 3_657
K1 O6 H5a 80.61(13) 4_556 1_555 1_555
K1 O6 H1 114.64(12) 4_556 1_555 1_555
K1 O6 C5 102.48(13) 4_556 1_555 1_555
K1 O6 N1 114.44(12) 4_556 1_555 1_555
K1 O6 C6 110.87(13) 4_556 1_555 1_555
C2 N3 H3 117.134 1_555 1_555 1_555
C4 N3 C2 125.733 1_555 1_555 1_555
C4 N3 H3 117.133 1_555 1_555 1_555
O4 N3 C4 27.618 1_555 1_555 1_555
O4 N3 C2 153.201 1_555 1_555 1_555
O4 N3 H3 89.589 1_555 1_555 1_555
O2 N3 O4 178.118 1_555 1_555 1_555
O2 N3 C4 153.077 1_555 1_555 1_555
O2 N3 C2 27.347 1_555 1_555 1_555
O2 N3 H3 89.788 1_555 1_555 1_555
N1 N3 O2 58.984 1_555 1_555 1_555
N1 N3 O4 121.618 1_555 1_555 1_555
N1 N3 C4 94.095 1_555 1_555 1_555
N1 N3 C2 31.638 1_555 1_555 1_555
N1 N3 H3 148.771 1_555 1_555 1_555
C5 N3 N1 61.188 1_555 1_555 1_555
C5 N3 O2 119.986 1_555 1_555 1_555
C5 N3 O4 60.799 1_555 1_555 1_555
C5 N3 C4 33.202 1_555 1_555 1_555
C5 N3 C2 92.743 1_555 1_555 1_555
C5 N3 H3 149.869 1_555 1_555 1_555
C6 N3 C5 32.195 1_555 1_555 1_555
C6 N3 N1 29.226 1_555 1_555 1_555
C6 N3 O2 88.208 1_555 1_555 1_555
C6 N3 O4 92.397 1_555 1_555 1_555
C6 N3 C4 64.876 1_555 1_555 1_555
C6 N3 C2 60.860 1_555 1_555 1_555
C6 N3 H3 177.922 1_555 1_555 1_555
H5b N3 C6 41.826 1_555 1_555 1_555
H5b N3 C5 19.198 1_555 1_555 1_555
H5b N3 N1 66.923 1_555 1_555 1_555
H5b N3 O2 120.699 1_555 1_555 1_555
H5b N3 O4 60.673 1_555 1_555 1_555
H5b N3 C4 36.519 1_555 1_555 1_555
H5b N3 C2 95.963 1_555 1_555 1_555
H5b N3 H3 140.102 1_555 1_555 1_555
N1 C6 O6 119.906 1_555 1_555 1_555
C5 C6 N1 116.658 1_555 1_555 1_555
C5 C6 O6 123.386 1_555 1_555 1_555
H1 C6 C5 142.366 1_555 1_555 1_555
H1 C6 N1 26.290 1_555 1_555 1_555
H1 C6 O6 93.811 1_555 1_555 1_555
H5a C6 H1 159.262 1_555 1_555 1_555
H5a C6 C5 29.636 1_555 1_555 1_555
H5a C6 N1 135.720 1_555 1_555 1_555
H5a C6 O6 100.757 1_555 1_555 1_555
H5b C6 H5a 50.159 1_555 1_555 1_555
H5b C6 H1 136.543 1_555 1_555 1_555
H5b C6 C5 29.636 1_555 1_555 1_555
H5b C6 N1 120.024 1_555 1_555 1_555
H5b C6 O6 110.928 1_555 1_555 1_555
C2 C6 H5b 99.252 1_555 1_555 1_555
C2 C6 H5a 109.651 1_555 1_555 1_555
C2 C6 H1 53.350 1_555 1_555 1_555
C2 C6 C5 89.960 1_555 1_555 1_555
C2 C6 N1 27.060 1_555 1_555 1_555
C2 C6 O6 146.601 1_555 1_555 1_555
C4 C6 C2 58.846 1_555 1_555 1_555
C4 C6 H5b 52.876 1_555 1_555 1_555
C4 C6 H5a 52.877 1_555 1_555 1_555
C4 C6 H1 112.177 1_555 1_555 1_555
C4 C6 C5 31.884 1_555 1_555 1_555
C4 C6 N1 85.896 1_555 1_555 1_555
C4 C6 O6 153.546 1_555 1_555 1_555
N3 C6 C4 29.540 1_555 1_555 1_555
N3 C6 C2 29.306 1_555 1_555 1_555
N3 C6 H5b 75.463 1_555 1_555 1_555
N3 C6 H5a 81.249 1_555 1_555 1_555
N3 C6 H1 82.650 1_555 1_555 1_555
N3 C6 C5 60.940 1_555 1_555 1_555
N3 C6 N1 56.362 1_555 1_555 1_555
N3 C6 O6 173.111 1_555 1_555 1_555
H5b C6 N3 122.81(13) 3_657 1_555 1_555
H5b C6 C4 93.98(13) 3_657 1_555 1_555
H5b C6 C2 150.52(13) 3_657 1_555 1_555
H5b C6 H5b 51.85(13) 3_657 1_555 1_555
H5b C6 H5a 49.82(13) 3_657 1_555 1_555
H5b C6 H1 150.66(12) 3_657 1_555 1_555
H5b C6 C5 62.11(13) 3_657 1_555 1_555
H5b C6 N1 167.13(13) 3_657 1_555 1_555
H5b C6 O6 62.29(13) 3_657 1_555 1_555
N3 C4 O4 120.410 1_555 1_555 1_555
C5 C4 N3 116.404 1_555 1_555 1_555
C5 C4 O4 123.120 1_555 1_555 1_555
H3 C4 C5 142.179 1_555 1_555 1_555
H3 C4 N3 26.083 1_555 1_555 1_555
H3 C4 O4 94.395 1_555 1_555 1_555
H5b C4 H3 137.885 1_555 1_555 1_555
H5b C4 C5 29.576 1_555 1_555 1_555
H5b C4 N3 120.437 1_555 1_555 1_555
H5b C4 O4 110.045 1_555 1_555 1_555
H5a C4 H5b 50.060 1_555 1_555 1_555
H5a C4 H3 157.529 1_555 1_555 1_555
H5a C4 C5 29.576 1_555 1_555 1_555
H5a C4 N3 134.924 1_555 1_555 1_555
H5a C4 O4 101.050 1_555 1_555 1_555
C2 C4 H5a 109.281 1_555 1_555 1_555
C2 C4 H5b 98.945 1_555 1_555 1_555
C2 C4 H3 53.067 1_555 1_555 1_555
C2 C4 C5 89.614 1_555 1_555 1_555
C2 C4 N3 26.984 1_555 1_555 1_555
C2 C4 O4 147.264 1_555 1_555 1_555
C6 C4 C2 58.602 1_555 1_555 1_555
C6 C4 H5a 52.736 1_555 1_555 1_555
C6 C4 H5b 52.736 1_555 1_555 1_555
C6 C4 H3 111.666 1_555 1_555 1_555
C6 C4 C5 31.777 1_555 1_555 1_555
C6 C4 N3 85.584 1_555 1_555 1_555
C6 C4 O4 153.560 1_555 1_555 1_555
N1 C4 C6 29.227 1_555 1_555 1_555
N1 C4 C2 29.380 1_555 1_555 1_555
N1 C4 H5a 80.939 1_555 1_555 1_555
N1 C4 H5b 74.762 1_555 1_555 1_555
N1 C4 H3 82.447 1_555 1_555 1_555
N1 C4 C5 60.445 1_555 1_555 1_555
N1 C4 N3 56.364 1_555 1_555 1_555
N1 C4 O4 175.014 1_555 1_555 1_555
N3 C2 O2 121.707 1_555 1_555 1_555
N1 C2 N3 116.819 1_555 1_555 1_555
N1 C2 O2 121.469 1_555 1_555 1_555
H3 C2 N1 143.075 1_555 1_555 1_555
H3 C2 N3 26.256 1_555 1_555 1_555
H3 C2 O2 95.453 1_555 1_555 1_555
H1 C2 H3 169.295 1_555 1_555 1_555
H1 C2 N1 26.252 1_555 1_555 1_555
H1 C2 N3 143.058 1_555 1_555 1_555
H1 C2 O2 95.219 1_555 1_555 1_555
C6 C2 H1 53.247 1_555 1_555 1_555
C6 C2 H3 116.087 1_555 1_555 1_555
C6 C2 N1 26.994 1_555 1_555 1_555
C6 C2 N3 89.833 1_555 1_555 1_555
C6 C2 O2 148.460 1_555 1_555 1_555
C4 C2 C6 62.552 1_555 1_555 1_555
C4 C2 H1 115.779 1_555 1_555 1_555
C4 C2 H3 53.539 1_555 1_555 1_555
C4 C2 N1 89.536 1_555 1_555 1_555
C4 C2 N3 27.283 1_555 1_555 1_555
C4 C2 O2 148.987 1_555 1_555 1_555
C5 C2 C4 31.537 1_555 1_555 1_555
C5 C2 C6 31.433 1_555 1_555 1_555
C5 C2 H1 84.381 1_555 1_555 1_555
C5 C2 H3 84.914 1_555 1_555 1_555
C5 C2 N1 58.230 1_555 1_555 1_555
C5 C2 N3 58.713 1_555 1_555 1_555
C5 C2 O2 175.929 1_555 1_555 1_555
H5a C5 H5b 109.471 1_555 1_555 1_555
C6 C5 H5a 107.728 1_555 1_555 1_555
C6 C5 H5b 107.728 1_555 1_555 1_555
C4 C5 C6 116.340 1_555 1_555 1_555
C4 C5 H5a 107.728 1_555 1_555 1_555
C4 C5 H5b 107.728 1_555 1_555 1_555
O4 C5 C4 25.165 1_555 1_555 1_555
O4 C5 C6 140.705 1_555 1_555 1_555
O4 C5 H5a 89.873 1_555 1_555 1_555
O4 C5 H5b 98.385 1_555 1_555 1_555
O6 C5 O4 161.771 1_555 1_555 1_555
O6 C5 C4 140.478 1_555 1_555 1_555
O6 C5 C6 25.160 1_555 1_555 1_555
O6 C5 H5a 89.403 1_555 1_555 1_555
O6 C5 H5b 99.023 1_555 1_555 1_555
N1 C5 O6 55.300 1_555 1_555 1_555
N1 C5 O4 112.350 1_555 1_555 1_555
N1 C5 C4 87.252 1_555 1_555 1_555
N1 C5 C6 30.155 1_555 1_555 1_555
N1 C5 H5a 128.041 1_555 1_555 1_555
N1 C5 H5b 112.508 1_555 1_555 1_555
N3 C5 N1 57.119 1_555 1_555 1_555
N3 C5 O6 111.867 1_555 1_555 1_555
N3 C5 O4 55.539 1_555 1_555 1_555
N3 C5 C4 30.394 1_555 1_555 1_555
N3 C5 C6 86.865 1_555 1_555 1_555
N3 C5 H5a 127.651 1_555 1_555 1_555
N3 C5 H5b 113.159 1_555 1_555 1_555
H5b C5 N3 172.44(12) 3_657 1_555 1_555
H5b C5 N1 117.14(16) 3_657 1_555 1_555
H5b C5 O6 63.43(16) 3_657 1_555 1_555
H5b C5 O4 130.51(16) 3_657 1_555 1_555
H5b C5 C4 155.57(16) 3_657 1_555 1_555
H5b C5 C6 88.01(16) 3_657 1_555 1_555
H5b C5 H5a 59.38(15) 3_657 1_555 1_555
H5b C5 H5b 63.30(15) 3_657 1_555 1_555
C2 C5 H5b 145.33(16) 1_555 1_555 3_657
C2 C5 N3 28.544 1_555 1_555 1_555
C2 C5 N1 28.616 1_555 1_555 1_555
C2 C5 O6 83.754 1_555 1_555 1_555
C2 C5 O4 84.013 1_555 1_555 1_555
C2 C5 C4 58.849 1_555 1_555 1_555
C2 C5 C6 58.607 1_555 1_555 1_555
C2 C5 H5a 135.443 1_555 1_555 1_555
C2 C5 H5b 115.086 1_555 1_555 1_555
H5a C5 C2 126.46(13) 3_657 1_555 1_555
H5a C5 H5b 34.54(7) 3_657 1_555 3_657
H5a C5 N3 139.60(13) 3_657 1_555 1_555
H5a C5 N1 107.71(13) 3_657 1_555 1_555
H5a C5 O6 71.36(13) 3_657 1_555 1_555
H5a C5 O4 126.87(13) 3_657 1_555 1_555
H5a C5 C4 140.26(13) 3_657 1_555 1_555
H5a C5 C6 88.32(13) 3_657 1_555 1_555
H5a C5 H5a 91.90(13) 3_657 1_555 1_555
H5a C5 H5b 32.57(13) 3_657 1_555 1_555
H5b H5a C5 35.264 1_555 1_555 1_555
C6 H5a H5b 64.920 1_555 1_555 1_555
C6 H5a C5 42.636 1_555 1_555 1_555
C4 H5a C6 74.388 1_555 1_555 1_555
C4 H5a H5b 64.970 1_555 1_555 1_555
C4 H5a C5 42.696 1_555 1_555 1_555
H5b H5a C4 134.74(18) 3_657 1_555 1_555
H5b H5a C6 85.83(18) 3_657 1_555 1_555
H5b H5a H5b 69.79(18) 3_657 1_555 1_555
H5b H5a C5 96.49(18) 3_657 1_555 1_555
Br1 H5a H5b 78.66(16) 2_556 1_555 3_657
Br1 H5a C4 140.15(12) 2_556 1_555 1_555
Br1 H5a C6 139.36(13) 2_556 1_555 1_555
Br1 H5a H5b 138.74(12) 2_556 1_555 1_555
Br1 H5a C5 173.99(12) 2_556 1_555 1_555
O6 H5a Br1 114.41(13) 1_555 1_555 2_556
O6 H5a H5b 65.16(18) 1_555 1_555 3_657
O6 H5a C4 101.552 1_555 1_555 1_555
O6 H5a C6 27.186 1_555 1_555 1_555
O6 H5a H5b 75.718 1_555 1_555 1_555
O6 H5a C5 65.971 1_555 1_555 1_555
O4 H5a O6 128.407 1_555 1_555 1_555
O4 H5a Br1 115.68(13) 1_555 1_555 2_556
O4 H5a H5b 136.94(18) 1_555 1_555 3_657
O4 H5a C4 26.976 1_555 1_555 1_555
O4 H5a C6 101.306 1_555 1_555 1_555
O4 H5a H5b 75.105 1_555 1_555 1_555
O4 H5a C5 65.551 1_555 1_555 1_555
C5 H5a O4 122.17(13) 3_657 1_555 1_555
C5 H5a O6 72.20(13) 3_657 1_555 1_555
C5 H5a Br1 86.39(13) 3_657 1_555 2_556
C5 H5a H5b 14.82(6) 3_657 1_555 3_657
C5 H5a C4 122.02(13) 3_657 1_555 1_555
C5 H5a C6 87.82(13) 3_657 1_555 1_555
C5 H5a H5b 57.56(13) 3_657 1_555 1_555
C5 H5a C5 88.10(13) 3_657 1_555 1_555
H5a H5b C5 35.264 1_555 1_555 1_555
C6 H5b H5a 64.920 1_555 1_555 1_555
C6 H5b C5 42.636 1_555 1_555 1_555
C4 H5b C6 74.388 1_555 1_555 1_555
C4 H5b H5a 64.970 1_555 1_555 1_555
C4 H5b C5 42.696 1_555 1_555 1_555
H5a H5b C4 175.03(17) 3_657 1_555 1_555
H5a H5b C6 102.72(18) 3_657 1_555 1_555
H5a H5b H5a 110.21(18) 3_657 1_555 1_555
H5a H5b C5 132.62(18) 3_657 1_555 1_555
H5b H5b H5a 44.84(11) 3_657 1_555 3_657
H5b H5b C4 130.32(16) 3_657 1_555 1_555
H5b H5b C6 83.96(17) 3_657 1_555 1_555
H5b H5b H5a 65.37(16) 3_657 1_555 1_555
H5b H5b C5 92.43(16) 3_657 1_555 1_555
C5 H5b H5b 24.27(6) 3_657 1_555 3_657
C5 H5b H5a 24.13(6) 3_657 1_555 3_657
C5 H5b C4 151.76(15) 3_657 1_555 1_555
C5 H5b C6 102.04(16) 3_657 1_555 1_555
C5 H5b H5a 87.89(15) 3_657 1_555 1_555
C5 H5b C5 116.70(15) 3_657 1_555 1_555
O6 H5b C5 53.51(12) 3_657 1_555 3_657
O6 H5b H5b 66.79(16) 3_657 1_555 3_657
O6 H5b H5a 63.26(15) 3_657 1_555 3_657
O6 H5b C4 117.23(14) 3_657 1_555 1_555
O6 H5b C6 149.28(15) 3_657 1_555 1_555
O6 H5b H5a 93.18(15) 3_657 1_555 1_555
O6 H5b C5 126.08(15) 3_657 1_555 1_555
O4 H5b O6 93.10(13) 1_555 1_555 3_657
O4 H5b C5 137.55(16) 1_555 1_555 3_657
O4 H5b H5b 125.86(17) 1_555 1_555 3_657
O4 H5b H5a 156.25(18) 1_555 1_555 3_657
O4 H5b C4 24.313 1_555 1_555 1_555
O4 H5b C6 96.867 1_555 1_555 1_555
O4 H5b H5a 66.405 1_555 1_555 1_555
O4 H5b C5 58.650 1_555 1_555 1_555
O6 H5b O4 116.611 1_555 1_555 1_555
O6 H5b O6 128.38(14) 1_555 1_555 3_657
O6 H5b C5 77.97(16) 1_555 1_555 3_657
O6 H5b H5b 61.59(18) 1_555 1_555 3_657
O6 H5b H5a 79.97(18) 1_555 1_555 3_657
O6 H5b C4 96.548 1_555 1_555 1_555
O6 H5b C6 24.149 1_555 1_555 1_555
O6 H5b H5a 65.884 1_555 1_555 1_555
O6 H5b C5 58.169 1_555 1_555 1_555
H3 H5b O6 107.38(18) 3_656 1_555 1_555
H3 H5b O4 93.04(18) 3_656 1_555 1_555
H3 H5b O6 112.3(2) 3_656 1_555 3_657
H3 H5b C5 121.8(2) 3_656 1_555 3_657
H3 H5b H5b 140.9(2) 3_656 1_555 3_657
H3 H5b H5a 98.0(2) 3_656 1_555 3_657
H3 H5b C4 86.36(17) 3_656 1_555 1_555
H3 H5b C6 96.13(18) 3_656 1_555 1_555
H3 H5b H5a 148.51(17) 3_656 1_555 1_555
H3 H5b C5 113.94(17) 3_656 1_555 1_555
C6 H5b H3 122.6(2) 3_657 1_555 3_656
C6 H5b O6 105.27(13) 3_657 1_555 1_555
C6 H5b O4 112.30(13) 3_657 1_555 1_555
C6 H5b O6 23.90(5) 3_657 1_555 3_657
C6 H5b C5 29.88(7) 3_657 1_555 3_657
C6 H5b H5b 44.19(11) 3_657 1_555 3_657
C6 H5b H5a 44.35(11) 3_657 1_555 3_657
C6 H5b C4 134.46(13) 3_657 1_555 1_555
C6 H5b C6 128.15(13) 3_657 1_555 1_555
C6 H5b H5a 88.14(13) 3_657 1_555 1_555
C6 H5b C5 123.31(13) 3_657 1_555 1_555
N1 H5b C6 150.42(13) 1_555 1_555 3_657
N1 H5b H3 75.63(18) 1_555 1_555 3_656
N1 H5b O6 45.152 1_555 1_555 1_555
N1 H5b O4 87.446 1_555 1_555 1_555
N1 H5b O6 171.98(15) 1_555 1_555 3_657
N1 H5b C5 121.94(16) 1_555 1_555 3_657
N1 H5b H5b 106.51(18) 1_555 1_555 3_657
N1 H5b H5a 115.61(18) 1_555 1_555 3_657
N1 H5b C4 63.139 1_555 1_555 1_555
N1 H5b C6 23.072 1_555 1_555 1_555
N1 H5b H5a 79.695 1_555 1_555 1_555
N1 H5b C5 48.064 1_555 1_555 1_555
N3 H5b N1 45.236 1_555 1_555 1_555
N3 H5b C6 157.36(13) 1_555 1_555 3_657
N3 H5b H3 69.43(17) 1_555 1_555 3_656
N3 H5b O6 86.837 1_555 1_555 1_555
N3 H5b O4 45.306 1_555 1_555 1_555
N3 H5b O6 137.36(14) 1_555 1_555 3_657
N3 H5b C5 163.22(15) 1_555 1_555 3_657
N3 H5b H5b 139.53(16) 1_555 1_555 3_657
N3 H5b H5a 158.25(18) 1_555 1_555 3_657
N3 H5b C4 23.043 1_555 1_555 1_555
N3 H5b C6 62.711 1_555 1_555 1_555
N3 H5b H5a 79.342 1_555 1_555 1_555
N3 H5b C5 47.643 1_555 1_555 1_555
Br1 H5b N3 107.94(10) 4_545 1_555 1_555
Br1 H5b N1 86.58(12) 4_545 1_555 1_555
Br1 H5b C6 92.00(13) 4_545 1_555 3_657
Br1 H5b H3 45.19(10) 4_545 1_555 3_656
Br1 H5b O6 86.97(14) 4_545 1_555 1_555
Br1 H5b O4 137.87(12) 4_545 1_555 1_555
Br1 H5b O6 98.28(17) 4_545 1_555 3_657
Br1 H5b C5 78.60(13) 4_545 1_555 3_657
Br1 H5b H5b 95.73(17) 4_545 1_555 3_657
Br1 H5b H5a 54.51(13) 4_545 1_555 3_657
Br1 H5b C4 129.18(10) 4_545 1_555 1_555
Br1 H5b C6 93.60(13) 4_545 1_555 1_555
Br1 H5b H5a 151.79(14) 4_545 1_555 1_555
Br1 H5b C5 134.21(13) 4_545 1_555 1_555
C6 N1 H1 117.027 1_555 1_555 1_555
C2 N1 C6 125.946 1_555 1_555 1_555
C2 N1 H1 117.027 1_555 1_555 1_555
O6 N1 C2 153.586 1_555 1_555 1_555
O6 N1 C6 28.077 1_555 1_555 1_555
O6 N1 H1 89.162 1_555 1_555 1_555
O2 N1 O6 175.885 1_555 1_555 1_555
O2 N1 C2 27.415 1_555 1_555 1_555
O2 N1 C6 153.356 1_555 1_555 1_555
O2 N1 H1 89.615 1_555 1_555 1_555
N3 N1 O2 58.956 1_555 1_555 1_555
N3 N1 O6 122.264 1_555 1_555 1_555
N3 N1 C2 31.543 1_555 1_555 1_555
N3 N1 C6 94.412 1_555 1_555 1_555
N3 N1 H1 148.552 1_555 1_555 1_555
C5 N1 N3 61.694 1_555 1_555 1_555
C5 N1 O2 120.463 1_555 1_555 1_555
C5 N1 O6 61.248 1_555 1_555 1_555
C5 N1 C2 93.154 1_555 1_555 1_555
C5 N1 C6 33.187 1_555 1_555 1_555
C5 N1 H1 149.351 1_555 1_555 1_555
C4 N1 C5 32.302 1_555 1_555 1_555
C4 N1 N3 29.541 1_555 1_555 1_555
C4 N1 O2 88.496 1_555 1_555 1_555
C4 N1 O6 92.813 1_555 1_555 1_555
C4 N1 C2 61.084 1_555 1_555 1_555
C4 N1 C6 64.878 1_555 1_555 1_555
C4 N1 H1 177.692 1_555 1_555 1_555
H5b N1 C4 42.099 1_555 1_555 1_555
H5b N1 C5 19.428 1_555 1_555 1_555
H5b N1 N3 67.841 1_555 1_555 1_555
H5b N1 O2 121.504 1_555 1_555 1_555
H5b N1 O6 61.505 1_555 1_555 1_555
H5b N1 C2 96.770 1_555 1_555 1_555
H5b N1 C6 36.905 1_555 1_555 1_555
H5b N1 H1 138.602 1_555 1_555 1_555
C2 H3 N3 36.611 1_555 1_555 1_555
C4 H3 C2 73.395 1_555 1_555 1_555
C4 H3 N3 36.784 1_555 1_555 1_555
Br1 H3 C4 143.36(17) 2_555 1_555 1_555
Br1 H3 C2 139.30(19) 2_555 1_555 1_555
Br1 H3 N3 166.7(2) 2_555 1_555 1_555
O4 H3 Br1 114.98(17) 1_555 1_555 2_555
O4 H3 C4 29.334 1_555 1_555 1_555
O4 H3 C2 102.664 1_555 1_555 1_555
O4 H3 N3 66.075 1_555 1_555 1_555
O2 H3 O4 132.071 1_555 1_555 1_555
O2 H3 Br1 111.18(18) 1_555 1_555 2_555
O2 H3 C4 102.811 1_555 1_555 1_555
O2 H3 C2 29.417 1_555 1_555 1_555
O2 H3 N3 66.027 1_555 1_555 1_555
H5b H3 O2 73.49(18) 3_656 1_555 1_555
H5b H3 O4 133.59(18) 3_656 1_555 1_555
H5b H3 Br1 71.32(11) 3_656 1_555 2_555
H5b H3 C4 133.66(17) 3_656 1_555 1_555
H5b H3 C2 94.13(18) 3_656 1_555 1_555
H5b H3 N3 118.34(18) 3_656 1_555 1_555
C6 H1 N1 36.683 1_555 1_555 1_555
C2 H1 C6 73.403 1_555 1_555 1_555
C2 H1 N1 36.721 1_555 1_555 1_555
O6 H1 C2 102.961 1_555 1_555 1_555
O6 H1 C6 29.744 1_555 1_555 1_555
O6 H1 N1 66.304 1_555 1_555 1_555
O2 H1 O6 132.329 1_555 1_555 1_555
O2 H1 C2 29.458 1_555 1_555 1_555
O2 H1 C6 102.860 1_555 1_555 1_555
O2 H1 N1 66.178 1_555 1_555 1_555
Br1 H1 O2 95.41(17) 3_646 1_555 1_555
Br1 H1 O6 130.98(17) 3_646 1_555 1_555
Br1 H1 C2 124.62(17) 3_646 1_555 1_555
Br1 H1 C6 160.23(17) 3_646 1_555 1_555
Br1 H1 N1 160.27(18) 3_646 1_555 1_555
loop_
_geom_bond_atom_site_label_1
_geom_bond_atom_site_label_2
_geom_bond_distance
_geom_bond_site_symmetry_1
_geom_bond_site_symmetry_2
Br1 H3 2.308(3) 1_555 2_545
Br1 H1 2.492(3) 1_555 3_646
Br1 H5a 2.559(3) 1_555 2_546
Br1 H5b 3.082(3) 1_555 4_444
K1 O2 2.769(5) 1_555 4_454
K1 O4 2.782(5) 1_555 2_565
K1 O2 2.835(5) 1_555 3_665
K1 O4 2.865(5) 1_555 1_564
K1 O6 2.973(4) 1_555 3_666
K1 O6 3.015(5) 1_555 4_453
O2 C2 1.22242 1_555 1_555
O2 N3 2.26382 1_555 1_555
O2 N1 2.26449 1_555 1_555
O2 H1 2.47533 1_555 1_555
O2 H3 2.47752 1_555 1_555
O2 K1 2.769(5) 1_555 4_555
O2 K1 2.835(5) 1_555 3_665
O4 C4 1.21021 1_555 1_555
O4 N3 2.25148 1_555 1_555
O4 C5 2.38366 1_555 1_555
O4 H3 2.46306 1_555 1_555
O4 H5a 2.61845 1_555 1_555
O4 H5b 2.76131 1_555 1_555
O4 K1 2.782(5) 1_555 2_535
O4 K1 2.865(5) 1_555 1_546
O4 O6 2.973(3) 1_555 4_444
O6 C6 1.21531 1_555 1_555
O6 N1 2.23832 1_555 1_555
O6 C5 2.38688 1_555 1_555
O6 H1 2.44415 1_555 1_555
O6 H5a 2.61323 1_555 1_555
O6 H5b 2.655(7) 1_555 3_657
O6 H5b 2.77462 1_555 1_555
O6 O4 2.973(3) 1_555 4_545
O6 K1 2.973(4) 1_555 3_666
O6 K1 3.015(5) 1_555 4_556
N3 H3 1.01500 1_555 1_555
N3 C2 1.36834 1_555 1_555
N3 C4 1.38236 1_555 1_555
N3 O4 2.25148 1_555 1_555
N3 O2 2.26382 1_555 1_555
N3 N1 2.33430 1_555 1_555
N3 C5 2.44723 1_555 1_555
N3 C6 2.79548 1_555 1_555
N3 H5b 3.04486 1_555 1_555
C6 O6 1.21531 1_555 1_555
C6 N1 1.36898 1_555 1_555
C6 C5 1.49168 1_555 1_555
C6 H1 2.04136 1_555 1_555
C6 H5a 2.09770 1_555 1_555
C6 H5b 2.09770 1_555 1_555
C6 C2 2.44168 1_555 1_555
C6 C4 2.53853 1_555 1_555
C6 N3 2.79548 1_555 1_555
C6 H5b 2.993(6) 1_555 3_657
C4 O4 1.21021 1_555 1_555
C4 N3 1.38236 1_555 1_555
C4 C5 1.49617 1_555 1_555
C4 H3 2.05449 1_555 1_555
C4 H5b 2.10160 1_555 1_555
C4 H5a 2.10161 1_555 1_555
C4 C2 2.44799 1_555 1_555
C4 C6 2.53853 1_555 1_555
C4 N1 2.79657 1_555 1_555
C2 O2 1.22242 1_555 1_555
C2 N3 1.36834 1_555 1_555
C2 N1 1.37204 1_555 1_555
C2 H3 2.04192 1_555 1_555
C2 H1 2.04411 1_555 1_555
C2 C6 2.44168 1_555 1_555
C2 C4 2.44799 1_555 1_555
C2 C5 2.86039 1_555 1_555
C5 H5b 1.08901 1_555 1_555
C5 H5a 1.08901 1_555 1_555
C5 C6 1.49168 1_555 1_555
C5 C4 1.49617 1_555 1_555
C5 O4 2.38366 1_555 1_555
C5 O6 2.38688 1_555 1_555
C5 N1 2.43549 1_555 1_555
C5 N3 2.44723 1_555 1_555
C5 H5b 2.647(6) 1_555 3_657
C5 C2 2.86039 1_555 1_555
C5 H5a 3.134(6) 1_555 3_657
H5a C5 1.08901 1_555 1_555
H5a H5b 1.77834 1_555 1_555
H5a C6 2.09770 1_555 1_555
H5a C4 2.10161 1_555 1_555
H5a H5b 2.292(5) 1_555 3_657
H5a Br1 2.559(3) 1_555 2_556
H5a O6 2.61323 1_555 1_555
H5a O4 2.61845 1_555 1_555
H5a C5 3.134(6) 1_555 3_657
H5b C5 1.08901 1_555 1_555
H5b H5a 1.77834 1_555 1_555
H5b C6 2.09770 1_555 1_555
H5b C4 2.10160 1_555 1_555
H5b H5a 2.292(5) 1_555 3_657
H5b H5b 2.367(6) 1_555 3_657
H5b C5 2.647(6) 1_555 3_657
H5b O6 2.655(7) 1_555 3_657
H5b O4 2.76131 1_555 1_555
H5b O6 2.77462 1_555 1_555
H5b H3 2.911(6) 1_555 3_656
H5b C6 2.993(6) 1_555 3_657
H5b N1 3.02460 1_555 1_555
H5b N3 3.04486 1_555 1_555
H5b Br1 3.082(3) 1_555 4_545
N1 H1 1.01500 1_555 1_555
N1 C6 1.36898 1_555 1_555
N1 C2 1.37204 1_555 1_555
N1 O6 2.23832 1_555 1_555
N1 O2 2.26449 1_555 1_555
N1 N3 2.33430 1_555 1_555
N1 C5 2.43549 1_555 1_555
N1 C4 2.79657 1_555 1_555
N1 H5b 3.02460 1_555 1_555
H3 N3 1.01500 1_555 1_555
H3 C2 2.04192 1_555 1_555
H3 C4 2.05449 1_555 1_555
H3 Br1 2.308(3) 1_555 2_555
H3 O4 2.46306 1_555 1_555
H3 O2 2.47752 1_555 1_555
H3 H5b 2.911(6) 1_555 3_656
H1 N1 1.01500 1_555 1_555
H1 C6 2.04136 1_555 1_555
H1 C2 2.04411 1_555 1_555
H1 O6 2.44415 1_555 1_555
H1 O2 2.47533 1_555 1_555
H1 Br1 2.492(3) 1_555 3_646
loop_
_pd_proc_point_id
_pd_meas_2theta_scan
_pd_proc_intensity_total
_pd_calc_intensity_total
_pd_proc_ls_weight
1 9.01310 5856.61205 5867.55957 0.00017
2 9.03910 5848.46880 5806.43945 0.00017
3 9.06510 5840.34764 5806.43945 0.00017
4 9.09110 5832.24855 5791.20996 0.00017
5 9.11710 5824.17155 5821.69043 0.00017
6 9.14310 5816.11665 5700.25000 0.00018
7 9.16910 5808.08385 5715.35986 0.00017
8 9.19510 5800.07315 5867.55957 0.00017
9 9.22110 5792.08456 5700.25000 0.00018
10 9.24710 5784.11809 5625.00000 0.00018
11 9.27310 5776.17375 5700.25000 0.00018
12 9.29910 5768.25154 5730.48975 0.00017
13 9.32510 5760.35147 5760.81006 0.00017
14 9.35110 5752.47355 5821.69043 0.00017
15 9.37710 5744.61778 5700.25000 0.00018
16 9.40310 5736.78417 5655.03955 0.00018
17 9.42910 5728.97274 5745.64063 0.00017
18 9.45510 5721.18348 5670.09033 0.00018
19 9.48110 5713.41642 5730.48975 0.00017
20 9.50710 5705.67154 5595.04053 0.00018
21 9.53310 5697.94888 5580.08936 0.00018
22 9.55910 5690.24843 5776.00000 0.00017
23 9.58510 5682.57021 5625.00000 0.00018
24 9.61110 5674.91421 5670.09033 0.00018
25 9.63710 5667.28047 5595.04053 0.00018
26 9.66310 5659.66898 5700.25000 0.00018
27 9.68910 5652.07975 5580.08936 0.00018
28 9.71510 5644.51280 5580.08936 0.00018
29 9.74110 5636.96813 5640.00977 0.00018
30 9.76710 5629.44576 5565.15967 0.00018
31 9.79310 5621.94571 5550.25000 0.00018
32 9.81910 5614.46797 5655.03955 0.00018
33 9.84510 5607.01256 5565.15967 0.00018
34 9.87110 5599.57950 5565.15967 0.00018
35 9.89710 5592.16880 5550.25000 0.00018
36 9.92310 5584.78046 5715.35986 0.00017
37 9.94910 5577.41451 5431.68945 0.00018
38 9.97510 5570.07096 5520.49023 0.00018
39 10.00110 5562.74981 5550.25000 0.00018
40 10.02710 5555.45108 5461.21045 0.00018
41 10.05310 5548.17479 5640.00977 0.00018
42 10.07910 5540.92096 5358.23975 0.00019
43 10.10510 5533.68958 5431.68945 0.00018
44 10.13110 5526.48069 5520.49023 0.00018
45 10.15710 5519.29430 5505.63965 0.00018
46 10.18310 5512.13042 5610.01025 0.00018
47 10.20910 5504.98907 5685.16016 0.00018
48 10.23510 5497.87026 5372.89063 0.00019
49 10.26110 5490.77402 5520.49023 0.00018
50 10.28710 5483.70036 5343.60986 0.00019
51 10.31310 5476.64931 5402.25000 0.00019
52 10.33910 5469.62088 5446.44043 0.00018
53 10.36510 5462.61509 5372.89063 0.00019
54 10.39110 5455.63197 5431.68945 0.00018
55 10.41710 5448.67155 5372.89063 0.00019
56 10.44310 5441.73384 5446.44043 0.00018
57 10.46910 5434.81889 5387.56006 0.00019
58 10.49510 5427.92671 5358.23975 0.00019
59 10.52110 5421.05734 5416.95996 0.00018
60 10.54710 5414.21083 5343.60986 0.00019
61 10.57310 5407.38721 5446.44043 0.00018
62 10.59910 5400.58654 5358.23975 0.00019
63 10.62510 5393.80887 5329.00000 0.00019
64 10.65110 5387.05427 5387.56006 0.00019
65 10.67710 5380.32283 5299.84033 0.00019
66 10.70310 5373.61463 5387.56006 0.00019
67 10.72910 5366.92981 5431.68945 0.00018
68 10.75510 5360.26851 5358.23975 0.00019
69 10.78110 5353.63095 5299.84033 0.00019
70 10.80710 5347.01736 5314.41016 0.00019
71 10.83310 5340.42809 5256.25000 0.00019
72 10.85910 5333.86364 5241.76025 0.00019
73 10.88510 5327.32475 5299.84033 0.00019
74 10.91110 5320.81270 5343.60986 0.00019
75 10.93710 5314.32965 5314.41016 0.00019
76 10.96310 5307.87757 5227.29053 0.00019
77 10.98910 5301.45431 5169.61035 0.00019
78 11.01510 5295.05177 5256.25000 0.00019
79 11.04110 5288.66254 5314.41016 0.00019
80 11.06710 5282.28917 5299.84033 0.00019
81 11.09310 5275.94118 5299.84033 0.00019
82 11.11910 5269.62083 5241.76025 0.00019
83 11.14510 5263.33035 5227.29053 0.00019
84 11.17110 5257.07266 5227.29053 0.00019
85 11.19710 5250.85164 5212.83936 0.00019
86 11.22310 5244.67254 5212.83936 0.00019
87 11.24910 5238.54155 5198.40967 0.00019
88 11.27510 5232.46396 5169.61035 0.00019
89 11.30110 5226.44330 5169.61035 0.00019
90 11.32710 5220.48501 5169.61035 0.00019
91 11.35310 5214.60097 5198.40967 0.00019
92 11.37910 5208.80835 5212.83936 0.00019
93 11.40510 5203.12050 5126.55957 0.00020
94 11.43110 5197.55036 5198.40967 0.00019
95 11.45710 5192.11335 5198.40967 0.00019
96 11.48310 5186.83427 5097.96045 0.00020
97 11.50910 5181.74614 5126.55957 0.00020
98 11.53510 5176.88019 5212.83936 0.00019
99 11.56110 5172.26980 5184.00000 0.00019
100 11.58710 5167.95817 5169.61035 0.00019
101 11.61310 5164.00372 5241.76025 0.00019
102 11.63910 5160.47624 5112.25000 0.00020
103 11.66510 5157.45741 5126.55957 0.00020
104 11.69110 5155.04895 5155.24023 0.00019
105 11.71710 5153.37355 5126.55957 0.00020
106 11.74310 5152.58414 5069.43945 0.00020
107 11.76910 5152.87613 5126.55957 0.00020
108 11.79510 5154.49560 5055.20996 0.00020
109 11.82110 5157.76217 5126.55957 0.00020
110 11.84710 5163.10999 5126.55957 0.00020
111 11.87310 5171.13346 5069.43945 0.00020
112 11.89910 5182.64405 5299.84033 0.00019
113 11.92510 5198.69682 5140.88965 0.00019
114 11.95110 5220.63129 5212.83936 0.00019
115 11.97710 5250.24810 5256.25000 0.00019
116 12.00310 5290.13099 5329.00000 0.00019
117 12.02910 5344.20552 5461.21045 0.00018
118 12.05510 5418.88006 5431.68945 0.00018
119 12.08110 5525.82207 5655.03955 0.00018
120 12.10710 5687.39981 5715.35986 0.00017
121 12.13310 5934.71825 5990.76025 0.00017
122 12.15910 6255.61982 6288.49072 0.00016
123 12.18510 6493.66431 6691.24072 0.00015
124 12.21110 6397.72499 6822.75977 0.00015
125 12.23710 5916.31352 6146.56006 0.00016
126 12.26310 5372.41815 5402.25000 0.00019
127 12.28910 5111.06647 5155.24023 0.00019
128 12.31510 5033.96469 4914.00977 0.00020
129 12.34110 5016.04928 4956.16016 0.00020
130 12.36710 5006.51212 4970.25000 0.00020
131 12.39310 4999.09660 5112.25000 0.00020
132 12.41910 4992.80589 4942.09033 0.00020
133 12.44510 4987.23517 4970.25000 0.00020
134 12.47110 4982.18058 5083.69043 0.00020
135 12.49710 4977.51560 4970.25000 0.00020
136 12.52310 4973.14085 5097.96045 0.00020
137 12.54910 4969.04451 5012.64063 0.00020
138 12.57510 4965.34790 4886.01025 0.00020
139 12.60110 4962.16136 4928.03955 0.00020
140 12.62710 4959.57709 4984.35986 0.00020
141 12.65310 4957.76202 4970.25000 0.00020
142 12.67910 4956.92509 5069.43945 0.00020
143 12.70510 4957.26072 4998.48975 0.00020
144 12.73110 4958.98203 4970.25000 0.00020
145 12.75710 4962.36410 4886.01025 0.00020
146 12.78310 4967.78710 5041.00000 0.00020
147 12.80910 4975.69202 4844.15967 0.00021
148 12.83510 4986.56504 4914.00977 0.00020
149 12.86110 5001.05503 4970.25000 0.00020
150 12.88710 5020.02732 4998.48975 0.00020
151 12.91310 5044.54222 5212.83936 0.00019
152 12.93910 5075.87748 4956.16016 0.00020
153 12.96510 5115.61244 4998.48975 0.00020
154 12.99110 5165.72085 5299.84033 0.00019
155 13.01710 5228.77227 5198.40967 0.00019
156 13.04310 5308.14014 5212.83936 0.00019
157 13.06910 5408.21251 5387.56006 0.00019
158 13.09510 5534.88750 5535.36035 0.00018
159 13.12110 5696.34514 5640.00977 0.00018
160 13.14710 5903.90178 5975.29053 0.00017
161 13.17310 6172.76656 6099.60986 0.00016
162 13.19910 6523.27820 6561.00000 0.00015
163 13.22510 6984.28853 6855.84033 0.00015
164 13.25110 7599.99860 7464.96045 0.00013
165 13.27710 8443.89346 8118.00977 0.00012
166 13.30310 9650.68373 9101.16016 0.00011
167 13.32910 11469.69202 10732.95996 0.00009
168 13.35510 14186.78475 13018.80957 0.00008
169 13.38110 17486.20275 16512.25000 0.00006
170 13.40710 19593.52495 19937.43945 0.00005
171 13.43310 18227.98200 18714.24023 0.00005
172 13.45910 13585.69914 13340.25000 0.00007
173 13.48510 8996.68963 8686.23926 0.00012
174 13.51110 6840.66381 6789.76025 0.00015
175 13.53710 6334.14585 6432.03955 0.00016
176 13.56310 6505.34740 6674.88965 0.00015
177 13.58910 6872.31453 7056.00000 0.00014
178 13.61510 7394.16852 7551.61035 0.00013
179 13.64110 8112.28838 8262.81055 0.00012
180 13.66710 9108.90060 9063.03906 0.00011
181 13.69310 10532.75876 10201.00000 0.00010
182 13.71910 12627.86691 12078.01074 0.00008
183 13.74510 15668.35183 14665.20996 0.00007
184 13.77110 19606.33788 18306.09180 0.00005
185 13.79710 23318.23596 22861.43945 0.00004
186 13.82310 24352.29468 25344.63867 0.00004
187 13.84910 20830.65643 22141.44141 0.00005
188 13.87510 14249.58953 14884.00000 0.00007
189 13.90110 8669.06301 8723.56055 0.00011
190 13.92710 5992.58927 5975.29053 0.00017
191 13.95310 5133.12601 5270.75977 0.00019
192 13.97910 4945.92170 5012.64063 0.00020
193 14.00510 4876.00566 4872.04053 0.00021
194 14.03110 4833.70321 4830.25000 0.00021
195 14.05710 4804.65177 4816.36035 0.00021
196 14.08310 4783.39294 4719.68945 0.00021
197 14.10910 4767.03248 4733.44043 0.00021
198 14.13510 4753.88542 4733.44043 0.00021
199 14.16110 4742.94329 4788.63965 0.00021
200 14.18710 4733.56769 4761.00000 0.00021
201 14.21310 4725.33935 4719.68945 0.00021
202 14.23910 4717.97308 4692.25000 0.00021
203 14.26510 4711.26662 4624.00000 0.00022
204 14.29110 4705.06954 4637.60986 0.00022
205 14.31710 4699.27167 4637.60986 0.00022
206 14.34310 4693.80898 4774.80957 0.00021
207 14.36910 4688.65573 4761.00000 0.00021
208 14.39510 4683.77929 4747.21045 0.00021
209 14.42110 4679.10707 4788.63965 0.00021
210 14.44710 4674.57297 4692.25000 0.00021
211 14.47310 4670.17776 4624.00000 0.00022
212 14.49910 4665.96382 4651.23975 0.00021
213 14.52510 4661.96785 4637.60986 0.00022
214 14.55110 4658.16358 4692.25000 0.00021
215 14.57710 4654.48120 4761.00000 0.00021
216 14.60310 4650.87001 4705.95996 0.00021
217 14.62910 4647.30981 4624.00000 0.00022
218 14.65510 4643.77660 4664.89063 0.00021
219 14.68110 4640.24796 4610.41016 0.00022
220 14.70710 4636.73361 4664.89063 0.00021
221 14.73310 4633.29254 4678.56006 0.00021
222 14.75910 4629.97759 4692.25000 0.00021
223 14.78510 4626.78738 4596.84033 0.00022
224 14.81110 4623.73990 4733.44043 0.00021
225 14.83710 4620.85995 4678.56006 0.00021
226 14.86310 4618.08898 4678.56006 0.00021
227 14.88910 4615.42410 4529.29053 0.00022
228 14.91510 4612.86339 4816.36035 0.00021
229 14.94110 4610.33395 4664.89063 0.00021
230 14.96710 4607.74100 4651.23975 0.00021
231 14.99310 4605.12267 4624.00000 0.00022
232 15.01910 4602.55733 4651.23975 0.00021
233 15.04510 4600.01420 4733.44043 0.00021
234 15.07110 4597.48219 4719.68945 0.00021
235 15.09710 4594.95296 4664.89063 0.00021
236 15.12310 4592.42274 4678.56006 0.00021
237 15.14910 4589.90845 4692.25000 0.00021
238 15.17510 4587.46904 4624.00000 0.00022
239 15.20110 4585.15765 4610.41016 0.00022
240 15.22710 4582.98717 4664.89063 0.00021
241 15.25310 4580.99138 4651.23975 0.00021
242 15.27910 4579.14593 4529.29053 0.00022
243 15.30510 4577.32756 4692.25000 0.00021
244 15.33110 4575.48651 4542.76025 0.00022
245 15.35710 4573.63799 4651.23975 0.00021
246 15.38310 4571.85250 4733.44043 0.00021
247 15.40910 4570.14973 4610.41016 0.00022
248 15.43510 4568.55072 4678.56006 0.00021
249 15.46110 4567.06136 4664.89063 0.00021
250 15.48710 4565.63667 4637.60986 0.00022
251 15.51310 4564.21536 4569.75977 0.00022
252 15.53910 4562.82195 4733.44043 0.00021
253 15.56510 4561.53451 4542.76025 0.00022
254 15.59110 4560.38499 4542.76025 0.00022
255 15.61710 4559.39103 4515.83936 0.00022
256 15.64310 4558.53130 4610.41016 0.00022
257 15.66910 4557.78769 4556.25000 0.00022
258 15.69510 4557.25060 4651.23975 0.00021
259 15.72110 4557.08599 4664.89063 0.00021
260 15.74710 4557.44584 4610.41016 0.00022
261 15.77310 4558.53786 4542.76025 0.00022
262 15.79910 4560.63805 4515.83936 0.00022
263 15.82510 4564.08892 4515.83936 0.00022
264 15.85110 4569.31725 4515.83936 0.00022
265 15.87710 4576.85725 4624.00000 0.00022
266 15.90310 4587.37351 4529.29053 0.00022
267 15.92910 4601.69234 4435.55957 0.00023
268 15.95510 4620.85639 4529.29053 0.00022
269 15.98110 4646.19322 4678.56006 0.00021
270 16.00710 4679.39042 4678.56006 0.00021
271 16.03310 4722.60590 4664.89063 0.00021
272 16.05910 4778.59218 4900.00000 0.00020
273 16.08510 4850.90681 4970.25000 0.00020
274 16.11110 4944.18502 4928.03955 0.00020
275 16.13710 5064.51174 5083.69043 0.00020
276 16.16310 5220.11260 5241.76025 0.00019
277 16.18910 5422.45222 5461.21045 0.00018
278 16.21510 5688.23167 5791.20996 0.00017
279 16.24110 6042.42952 6162.25000 0.00016
280 16.26710 6522.24361 6642.25000 0.00015
281 16.29310 7183.48503 7293.16016 0.00014
282 16.31910 8115.18452 8154.09033 0.00012
283 16.34510 9471.93656 9604.00000 0.00010
284 16.37110 11534.96899 11491.83887 0.00009
285 16.39710 14743.75827 14448.03906 0.00007
286 16.42310 19272.10179 19071.61133 0.00005
287 16.44910 23628.33521 23685.20898 0.00004
288 16.47510 24172.13899 24336.00000 0.00004
289 16.50110 19091.68003 19460.25000 0.00005
290 16.52710 12158.86267 12678.75977 0.00008
291 16.55310 7591.18685 7832.25000 0.00013
292 16.57910 5437.69084 5655.03955 0.00018
293 16.60510 4867.51016 4984.35986 0.00020
294 16.63110 4729.34194 4733.44043 0.00021
295 16.65710 4667.60663 4637.60986 0.00022
296 16.68310 4630.13137 4596.84033 0.00022
297 16.70910 4605.84185 4502.40967 0.00022
298 16.73510 4589.91774 4542.76025 0.00022
299 16.76110 4579.83030 4610.41016 0.00022
300 16.78710 4574.20933 4596.84033 0.00022
301 16.81310 4572.35633 4583.28955 0.00022
302 16.83910 4574.01922 4596.84033 0.00022
303 16.86510 4579.29310 4542.76025 0.00022
304 16.89110 4588.59556 4624.00000 0.00022
305 16.91710 4602.70803 4651.23975 0.00021
306 16.94310 4622.89845 4529.29053 0.00022
307 16.96910 4651.15985 4569.75977 0.00022
308 16.99510 4690.57511 4733.44043 0.00021
309 17.02110 4745.86330 4747.21045 0.00021
310 17.04710 4824.41806 4788.63965 0.00021
311 17.07310 4938.51509 4886.01025 0.00020
312 17.09910 5109.29640 5097.96045 0.00020
313 17.12510 5368.36097 5402.25000 0.00019
314 17.15110 5730.64042 5806.43945 0.00017
315 17.17710 6103.58381 6177.95996 0.00016
316 17.20310 6236.30908 6368.04053 0.00016
317 17.22910 5948.20207 6099.60986 0.00016
318 17.25510 5418.16244 5431.68945 0.00018
319 17.28110 4963.51510 4998.48975 0.00020
320 17.30710 4694.92495 4692.25000 0.00021
321 17.33310 4582.96485 4556.25000 0.00022
322 17.35910 4545.77207 4489.00000 0.00022
323 17.38510 4531.21942 4475.61035 0.00022
324 17.41110 4523.17328 4569.75977 0.00022
325 17.43710 4517.94583 4475.61035 0.00022
326 17.46310 4514.34051 4502.40967 0.00022
327 17.48910 4511.77157 4422.25000 0.00023
328 17.51510 4509.90356 4408.95996 0.00023
329 17.54110 4508.52563 4529.29053 0.00022
330 17.56710 4507.51746 4515.83936 0.00022
331 17.59310 4506.85230 4583.28955 0.00022
332 17.61910 4506.54603 4637.60986 0.00022
333 17.64510 4506.55523 4502.40967 0.00022
334 17.67110 4506.81200 4502.40967 0.00022
335 17.69710 4507.31615 4651.23975 0.00021
336 17.72310 4508.08577 4515.83936 0.00022
337 17.74910 4509.17569 4664.89063 0.00021
338 17.77510 4510.71493 4569.75977 0.00022
339 17.80110 4512.87849 4569.75977 0.00022
340 17.82710 4515.80555 4664.89063 0.00021
341 17.85310 4519.66474 4664.89063 0.00021
342 17.87910 4524.79200 4637.60986 0.00022
343 17.90510 4531.69857 4719.68945 0.00021
344 17.93110 4541.16576 4705.95996 0.00021
345 17.95710 4554.43330 4664.89063 0.00021
346 17.98310 4573.52774 4788.63965 0.00021
347 18.00910 4601.43597 4998.48975 0.00020
348 18.03510 4640.21522 4900.00000 0.00020
349 18.06110 4683.94576 5041.00000 0.00020
350 18.08710 4712.72344 5140.88965 0.00019
351 18.11310 4707.53623 4998.48975 0.00020
352 18.13910 4677.26430 4900.00000 0.00020
353 18.16510 4651.24379 4872.04053 0.00021
354 18.19110 4648.73026 4761.00000 0.00021
355 18.21710 4674.77747 4802.49023 0.00021
356 18.24310 4730.76910 4788.63965 0.00021
357 18.26910 4823.58820 4705.95996 0.00021
358 18.29510 4970.47047 4761.00000 0.00021
359 18.32110 5179.93907 4998.48975 0.00020
360 18.34710 5388.74019 5227.29053 0.00019
361 18.37310 5433.10674 5256.25000 0.00019
362 18.39910 5226.61617 4928.03955 0.00020
363 18.42510 4927.51934 4830.25000 0.00021
364 18.45110 4709.12410 4705.95996 0.00021
365 18.47710 4589.18380 4556.25000 0.00022
366 18.50310 4549.33323 4542.76025 0.00022
367 18.52910 4540.50728 4542.76025 0.00022
368 18.55510 4538.08035 4448.88965 0.00022
369 18.58110 4537.23392 4422.25000 0.00023
370 18.60710 4537.14658 4475.61035 0.00022
371 18.63310 4537.52599 4462.24023 0.00022
372 18.65910 4538.21175 4529.29053 0.00022
373 18.68510 4539.11068 4515.83936 0.00022
374 18.71110 4540.16493 4515.83936 0.00022
375 18.73710 4541.33569 4542.76025 0.00022
376 18.76310 4542.59724 4529.29053 0.00022
377 18.78910 4543.93650 4529.29053 0.00022
378 18.81510 4545.34867 4596.84033 0.00022
379 18.84110 4546.82524 4596.84033 0.00022
380 18.86710 4548.35356 4569.75977 0.00022
381 18.89310 4549.92654 4556.25000 0.00022
382 18.91910 4551.53993 4569.75977 0.00022
383 18.94510 4553.19025 4556.25000 0.00022
384 18.97110 4554.87481 4529.29053 0.00022
385 18.99710 4556.59159 4448.88965 0.00022
386 19.02310 4558.33885 4502.40967 0.00022
387 19.04910 4560.11500 4610.41016 0.00022
388 19.07510 4561.91771 4542.76025 0.00022
389 19.10110 4563.74344 4489.00000 0.00022
390 19.12710 4565.58934 4515.83936 0.00022
391 19.15310 4567.45734 4569.75977 0.00022
392 19.17910 4569.35473 4583.28955 0.00022
393 19.20510 4571.28767 4556.25000 0.00022
394 19.23110 4573.25538 4569.75977 0.00022
395 19.25710 4575.25587 4515.83936 0.00022
396 19.28310 4577.28902 4475.61035 0.00022
397 19.30910 4579.34988 4542.76025 0.00022
398 19.33510 4581.43600 4664.89063 0.00021
399 19.36110 4583.54882 4692.25000 0.00021
400 19.38710 4585.68834 4651.23975 0.00021
401 19.41310 4587.85555 4651.23975 0.00021
402 19.43910 4590.05190 4705.95996 0.00021
403 19.46510 4592.27971 4624.00000 0.00022
404 19.49110 4594.54254 4692.25000 0.00021
405 19.51710 4596.84619 4774.80957 0.00021
406 19.54310 4599.20035 4705.95996 0.00021
407 19.56910 4601.62273 4556.25000 0.00022
408 19.59510 4604.14720 4651.23975 0.00021
409 19.62110 4606.82915 4664.89063 0.00021
410 19.64710 4609.71607 4705.95996 0.00021
411 19.67310 4612.73795 4637.60986 0.00022
412 19.69910 4615.66182 4583.28955 0.00022
413 19.72510 4618.35209 4678.56006 0.00021
414 19.75110 4620.94271 4719.68945 0.00021
415 19.77710 4623.56982 4610.41016 0.00022
416 19.80310 4626.25357 4569.75977 0.00022
417 19.82910 4629.00813 4529.29053 0.00022
418 19.85510 4631.84722 4624.00000 0.00022
419 19.88110 4634.78626 4651.23975 0.00021
420 19.90710 4637.84796 4596.84033 0.00022
421 19.93310 4641.06296 4664.89063 0.00021
422 19.95910 4644.47295 4542.76025 0.00022
423 19.98510 4648.13523 4596.84033 0.00022
424 20.01110 4652.13013 4802.49023 0.00021
425 20.03710 4656.57351 4678.56006 0.00021
426 20.06310 4661.63845 4802.49023 0.00021
427 20.08910 4667.59171 4858.08936 0.00021
428 20.11510 4674.83346 4886.01025 0.00020
429 20.14110 4683.91191 4872.04053 0.00021
430 20.16710 4695.61043 4719.68945 0.00021
431 20.19310 4711.18084 4816.36035 0.00021
432 20.21910 4732.07901 4886.01025 0.00020
433 20.24510 4757.83949 4844.15967 0.00021
434 20.27110 4782.04498 4942.09033 0.00020
435 20.29710 4792.33668 5026.81006 0.00020
436 20.32310 4781.67071 5155.24023 0.00019
437 20.34910 4758.11152 5198.40967 0.00019
438 20.37510 4734.98520 5227.29053 0.00019
439 20.40110 4718.95330 5241.76025 0.00019
440 20.42710 4711.11677 5314.41016 0.00019
441 20.45310 4709.18532 5169.61035 0.00019
442 20.47910 4710.22038 5112.25000 0.00020
443 20.50510 4712.49615 4858.08936 0.00021
444 20.53110 4715.37008 4886.01025 0.00020
445 20.55710 4718.63962 4719.68945 0.00021
446 20.58310 4722.18339 4858.08936 0.00021
447 20.60910 4725.84615 4719.68945 0.00021
448 20.63510 4729.53524 4719.68945 0.00021
449 20.66110 4733.29401 4719.68945 0.00021
450 20.68710 4737.17969 4774.80957 0.00021
451 20.71310 4741.20971 4651.23975 0.00021
452 20.73910 4745.40478 4788.63965 0.00021
453 20.76510 4749.77285 4747.21045 0.00021
454 20.79110 4754.27908 4705.95996 0.00021
455 20.81710 4758.87858 4761.00000 0.00021
456 20.84310 4763.60664 4747.21045 0.00021
457 20.86910 4768.53591 4747.21045 0.00021
458 20.89510 4773.69952 4705.95996 0.00021
459 20.92110 4779.13192 4705.95996 0.00021
460 20.94710 4784.88268 4733.44043 0.00021
461 20.97310 4791.02628 4858.08936 0.00021
462 20.99910 4797.66097 4844.15967 0.00021
463 21.02510 4804.89967 4844.15967 0.00021
464 21.05110 4812.85982 4788.63965 0.00021
465 21.07710 4821.72799 4747.21045 0.00021
466 21.10310 4831.89725 4858.08936 0.00021
467 21.12910 4843.99104 4900.00000 0.00020
468 21.15510 4858.87450 4844.15967 0.00021
469 21.18110 4877.78665 4761.00000 0.00021
470 21.20710 4902.43591 4802.49023 0.00021
471 21.23310 4935.10343 4802.49023 0.00021
472 21.25910 4978.77241 4928.03955 0.00020
473 21.28510 5037.37860 4928.03955 0.00020
474 21.31110 5116.22417 5012.64063 0.00020
475 21.33710 5222.43298 5112.25000 0.00020
476 21.36310 5365.61903 5198.40967 0.00019
477 21.38910 5559.05686 5402.25000 0.00019
478 21.41510 5821.48621 5685.16016 0.00018
479 21.44110 6180.07739 6099.60986 0.00016
480 21.46710 6675.61701 6658.55957 0.00015
481 21.49310 7372.03973 7464.96045 0.00013
482 21.51910 8373.63173 8519.29102 0.00012
483 21.54510 9854.58203 9980.01074 0.00010
484 21.57110 12109.96514 12343.20996 0.00008
485 21.59710 15637.98887 15800.48926 0.00006
486 21.62310 21188.82339 21141.15820 0.00005
487 21.64910 29354.98145 29309.43945 0.00003
488 21.67510 38901.12763 38966.75781 0.00003
489 21.70110 45041.07587 44647.69141 0.00002
490 21.72710 42610.96186 42025.00000 0.00002
491 21.75310 32818.57792 32724.80859 0.00003
492 21.77910 21888.99779 21815.28906 0.00005
493 21.80510 13576.69216 13409.64063 0.00007
494 21.83110 8520.74805 8630.41016 0.00012
495 21.85710 6316.43917 6512.48975 0.00015
496 21.88310 5637.21969 5791.20996 0.00017
497 21.90910 5429.75415 5580.08936 0.00018
498 21.93510 5342.79902 5490.80957 0.00018
499 21.96110 5305.42350 5387.56006 0.00019
500 21.98710 5303.32716 5270.75977 0.00019
501 22.01310 5333.80799 5329.00000 0.00019
502 22.03910 5399.85097 5358.23975 0.00019
503 22.06510 5509.85067 5416.95996 0.00018
504 22.09110 5679.18509 5580.08936 0.00018
505 22.11710 5933.66394 5913.61035 0.00017
506 22.14310 6315.59052 6256.80957 0.00016
507 22.16910 6889.68115 6822.75977 0.00015
508 22.19510 7728.01075 7761.60986 0.00013
509 22.22110 8837.13969 8968.08984 0.00011
510 22.24710 10095.47439 10404.00000 0.00010
511 22.27310 11451.60356 11728.89063 0.00009
512 22.29910 13298.51071 13595.55957 0.00007
513 22.32510 16327.53148 16848.04102 0.00006
514 22.35110 20608.68145 20880.25000 0.00005
515 22.37710 24463.36572 24118.09180 0.00004
516 22.40310 24833.42372 23839.35742 0.00004
517 22.42910 20780.61108 20649.68945 0.00005
518 22.45510 15197.88711 15575.04102 0.00006
519 22.48110 10647.60266 11046.00977 0.00009
520 22.50710 7529.82532 7903.21045 0.00013
521 22.53310 5950.88837 6304.36035 0.00016
522 22.55910 5417.03726 5550.25000 0.00018
523 22.58510 5255.91816 5358.23975 0.00019
524 22.61110 5185.95651 5212.83936 0.00019
525 22.63710 5143.20107 5140.88965 0.00019
526 22.66310 5114.02652 5140.88965 0.00019
527 22.68910 5093.41837 5140.88965 0.00019
528 22.71510 5078.66649 5041.00000 0.00020
529 22.74110 5068.02884 5212.83936 0.00019
530 22.76710 5060.32359 4998.48975 0.00020
531 22.79310 5054.85898 5041.00000 0.00020
532 22.81910 5051.20389 5069.43945 0.00020
533 22.84510 5048.93809 5169.61035 0.00019
534 22.87110 5047.66995 5112.25000 0.00020
535 22.89710 5047.27586 5184.00000 0.00019
536 22.92310 5047.79725 5140.88965 0.00019
537 22.94910 5049.20300 5198.40967 0.00019
538 22.97510 5051.58196 5069.43945 0.00020
539 23.00110 5055.16086 5055.20996 0.00020
540 23.02710 5060.19859 5097.96045 0.00020
541 23.05310 5067.06069 4984.35986 0.00020
542 23.07910 5076.36793 5112.25000 0.00020
543 23.10510 5089.01811 5097.96045 0.00020
544 23.13110 5106.37121 5140.88965 0.00019
545 23.15710 5130.97261 4984.35986 0.00020
546 23.18310 5167.40076 5069.43945 0.00020
547 23.20910 5223.65562 5112.25000 0.00020
548 23.23510 5313.83880 5343.60986 0.00019
549 23.26110 5461.56126 5550.25000 0.00018
550 23.28710 5695.42831 5745.64063 0.00017
551 23.31310 6005.11039 5929.00000 0.00017
552 23.33910 6257.31273 6037.28955 0.00017
553 23.36510 6243.95589 5944.40967 0.00017
554 23.39110 5956.60678 5730.48975 0.00017
555 23.41710 5623.16083 5550.25000 0.00018
556 23.44310 5370.50087 5285.28955 0.00019
557 23.46910 5200.66054 5256.25000 0.00019
558 23.49510 5133.10810 5126.55957 0.00020
559 23.52110 5129.19614 5184.00000 0.00019
560 23.54710 5140.97153 5169.61035 0.00019
561 23.57310 5151.90741 5097.96045 0.00020
562 23.59910 5155.77928 5126.55957 0.00020
563 23.62510 5152.69319 5212.83936 0.00019
564 23.65110 5148.05736 5112.25000 0.00020
565 23.67710 5145.53486 5069.43945 0.00020
566 23.70310 5145.73427 4872.04053 0.00021
567 23.72910 5148.92088 5041.00000 0.00020
568 23.75510 5154.49194 5083.69043 0.00020
569 23.78110 5161.58709 5097.96045 0.00020
570 23.80710 5169.94925 5155.24023 0.00019
571 23.83310 5179.62071 5112.25000 0.00020
572 23.85910 5190.84763 5140.88965 0.00019
573 23.88510 5204.05369 5184.00000 0.00019
574 23.91110 5219.89140 5126.55957 0.00020
575 23.93710 5239.36451 5097.96045 0.00020
576 23.96310 5263.73681 5097.96045 0.00020
577 23.98910 5294.93616 5155.24023 0.00019
578 24.01510 5335.95333 5256.25000 0.00019
579 24.04110 5391.00114 5299.84033 0.00019
580 24.06710 5466.00028 5387.56006 0.00019
581 24.09310 5569.44214 5535.36035 0.00018
582 24.11910 5713.64042 5715.35986 0.00017
583 24.14510 5916.82333 5975.29053 0.00017
584 24.17110 6206.56555 6225.21045 0.00016
585 24.19710 6625.28268 6577.20996 0.00015
586 24.22310 7237.76859 7106.49072 0.00014
587 24.24910 8136.94805 7938.80957 0.00013
588 24.27510 9445.53896 9158.48926 0.00011
589 24.30110 11350.30462 10941.16016 0.00009
590 24.32710 14220.23056 13689.00000 0.00007
591 24.35310 18643.36780 18036.49023 0.00006
592 24.37910 24897.97008 25090.55859 0.00004
593 24.40510 31684.34879 33014.89063 0.00003
594 24.43110 35900.62722 36138.01172 0.00003
595 24.45710 36003.66536 34633.21094 0.00003
596 24.48310 34481.64295 33856.00000 0.00003
597 24.50910 33207.30671 33929.64063 0.00003
598 24.53510 30242.83598 30625.00000 0.00003
599 24.56110 24533.94779 23870.25000 0.00004
600 24.58710 18263.57174 17956.00000 0.00006
601 24.61310 13304.56683 12701.28906 0.00008
602 24.63910 9658.67502 8482.41016 0.00012
603 24.66510 7389.40384 6625.96045 0.00015
604 24.69110 6397.89474 6084.00000 0.00016
605 24.71710 6109.79797 5867.55957 0.00017
606 24.74310 6094.78558 5836.96045 0.00017
607 24.76910 6208.93202 5882.88965 0.00017
608 24.79510 6442.41405 6068.41016 0.00016
609 24.82110 6824.18679 6352.08936 0.00016
610 24.84710 7372.14621 6839.28955 0.00015
611 24.87310 8021.05036 7293.16016 0.00014
612 24.89910 8555.93075 7744.00000 0.00013
613 24.92510 8708.18251 7903.21045 0.00013
614 24.95110 8441.56970 7691.28955 0.00013
615 24.97710 8033.22286 7516.88965 0.00013
616 25.00310 7772.36792 7344.48926 0.00014
617 25.02910 7809.95256 7499.55957 0.00013
618 25.05510 8280.16919 8082.01025 0.00012
619 25.08110 9334.98322 9447.83984 0.00011
620 25.10710 11196.25058 11556.25000 0.00009
621 25.13310 14260.70232 14496.16016 0.00007
622 25.15910 19046.17958 19293.20898 0.00005
623 25.18510 25567.16680 25824.48828 0.00004
624 25.21110 31916.02656 32005.20703 0.00003
625 25.23710 34163.68006 33819.20703 0.00003
626 25.26310 30450.32185 29929.00000 0.00003
627 25.28910 23920.83847 23901.16211 0.00004
628 25.31510 18126.73112 18279.03906 0.00005
629 25.34110 13894.03674 13409.64063 0.00007
630 25.36710 11782.00173 11363.55957 0.00009
631 25.39310 12128.75704 12100.00000 0.00008
632 25.41910 14646.27903 15055.28906 0.00007
633 25.44510 19230.07077 19488.16211 0.00005
634 25.47110 25696.98512 26082.25000 0.00004
635 25.49710 32345.26503 32400.00000 0.00003
636 25.52310 35817.42239 34969.00000 0.00003
637 25.54910 34630.16404 34151.04297 0.00003
638 25.57510 31044.09841 31470.75781 0.00003
639 25.60110 26545.51869 26601.61133 0.00004
640 25.62710 20762.36782 20649.68945 0.00005
641 25.65310 15139.81564 15079.84082 0.00007
642 25.67910 11173.71664 11172.48926 0.00009
643 25.70510 8585.16873 8226.48926 0.00012
644 25.73110 6963.00587 6938.89063 0.00014
645 25.75710 6141.01220 6068.41016 0.00016
646 25.78310 5806.18342 5700.25000 0.00018
647 25.80910 5670.37221 5685.16016 0.00018
648 25.83510 5599.54453 5520.49023 0.00018
649 25.86110 5552.99831 5461.21045 0.00018
650 25.88710 5519.57971 5431.68945 0.00018
651 25.91310 5495.07903 5402.25000 0.00019
652 25.93910 5477.19244 5343.60986 0.00019
653 25.96510 5464.44608 5550.25000 0.00018
654 25.99110 5455.86530 5329.00000 0.00019
655 26.01710 5450.81854 5416.95996 0.00018
656 26.04310 5448.92078 5387.56006 0.00019
657 26.06910 5449.99346 5550.25000 0.00018
658 26.09510 5454.04908 5505.63965 0.00018
659 26.12110 5461.14841 5535.36035 0.00018
660 26.14710 5471.38052 5431.68945 0.00018
661 26.17310 5485.00140 5476.00000 0.00018
662 26.19910 5502.44521 5461.21045 0.00018
663 26.22510 5524.30361 5580.08936 0.00018
664 26.25110 5551.31208 5595.04053 0.00018
665 26.27710 5584.49841 5760.81006 0.00017
666 26.30310 5625.48232 5730.48975 0.00017
667 26.32910 5676.88542 5640.00977 0.00018
668 26.35510 5743.12931 5745.64063 0.00017
669 26.38110 5831.31078 5760.81006 0.00017
670 26.40710 5951.96562 5776.00000 0.00017
671 26.43310 6120.38265 5975.29053 0.00017
672 26.45910 6358.95487 6209.44043 0.00016
673 26.48510 6700.67000 6416.00977 0.00016
674 26.51110 7194.56585 7005.68945 0.00014
675 26.53710 7915.12605 7621.29053 0.00013
676 26.56310 8978.97082 8760.95996 0.00011
677 26.58910 10574.20497 10485.76074 0.00010
678 26.61510 13012.02547 13041.63965 0.00008
679 26.64110 16818.84828 17134.80859 0.00006
680 26.66710 22886.32559 23317.28906 0.00004
681 26.69310 32634.79951 33051.24219 0.00003
682 26.71910 47865.45073 48224.16406 0.00002
683 26.74510 69269.68275 69696.00000 0.00001
684 26.77110 92695.43907 93574.80469 0.00001
685 26.79710 107109.98227 107846.55469 0.00001
686 26.82310 102672.84314 101569.69531 0.00001
687 26.84910 82865.53334 82082.25000 0.00001
688 26.87510 59969.64214 60860.88672 0.00002
689 26.90110 40771.04996 40763.60938 0.00002
690 26.92710 26639.74636 25504.08984 0.00004
691 26.95310 18912.87359 18523.21094 0.00005
692 26.97910 17020.58488 17529.75781 0.00006
693 27.00510 17868.30777 18036.49023 0.00006
694 27.03110 18303.16225 17768.89063 0.00006
695 27.05710 17383.24210 17161.00000 0.00006
696 27.08310 16662.18298 17161.00000 0.00006
697 27.10910 17521.14898 18117.16211 0.00006
698 27.13510 20114.40628 20764.81250 0.00005
699 27.16110 24414.59067 24711.83984 0.00004
700 27.18710 29359.72684 28561.00000 0.00004
701 27.21310 33122.30676 31435.29102 0.00003
702 27.23910 34857.37344 32797.21094 0.00003
703 27.26510 34306.51352 32292.08984 0.00003
704 27.29110 30838.03171 29070.25000 0.00003
705 27.31710 25136.45604 24211.36133 0.00004
706 27.34310 19456.55153 19544.04102 0.00005
707 27.36910 15002.47597 15425.63965 0.00006
708 27.39510 11768.11455 12454.55957 0.00008
709 27.42110 9660.23052 10465.29102 0.00010
710 27.44710 8354.15401 9044.00977 0.00011
711 27.47310 7478.35914 8064.04053 0.00012
712 27.49910 6893.18426 7396.00000 0.00014
713 27.52510 6528.31506 6806.25000 0.00015
714 27.55110 6336.20566 6448.09033 0.00016
715 27.57710 6334.98619 6384.01025 0.00016
716 27.60310 6557.97109 6512.48975 0.00015
717 27.62910 7045.36745 7072.80957 0.00014
718 27.65510 7887.75797 7974.49072 0.00013
719 27.68110 9212.64732 9158.48926 0.00011
720 27.70710 11033.32145 10732.95996 0.00009
721 27.73310 12970.22679 12387.69043 0.00008
722 27.75910 14279.22243 13340.25000 0.00007
723 27.78510 14633.87979 14161.00000 0.00007
724 27.81110 14565.70406 15030.75977 0.00007
725 27.83710 14381.05561 14859.61035 0.00007
726 27.86310 13564.24772 14304.15918 0.00007
727 27.88910 12025.27711 12814.23926 0.00008
728 27.91510 10597.61801 11193.64063 0.00009
729 27.94110 9907.56635 10424.41016 0.00010
730 27.96710 9954.96803 10040.03906 0.00010
731 27.99310 10626.88052 10712.25000 0.00009
732 28.01910 11467.00175 11685.60938 0.00009
733 28.04510 11580.33460 11881.00000 0.00008
734 28.07110 10595.92728 10383.61035 0.00010
735 28.09710 9150.66710 9196.81055 0.00011
736 28.12310 7867.88830 7832.25000 0.00013
737 28.14910 6798.70730 6658.55957 0.00015
738 28.17510 5996.58432 5806.43945 0.00017
739 28.20110 5547.14498 5580.08936 0.00018
740 28.22710 5356.66001 5270.75977 0.00019
741 28.25310 5282.59636 5083.69043 0.00020
742 28.27910 5246.75632 5285.28955 0.00019
743 28.30510 5223.25189 5241.76025 0.00019
744 28.33110 5205.30953 5198.40967 0.00019
745 28.35710 5190.83792 5198.40967 0.00019
746 28.38310 5178.85771 5241.76025 0.00019
747 28.40910 5168.79451 5184.00000 0.00019
748 28.43510 5160.28110 5198.40967 0.00019
749 28.46110 5153.00599 5112.25000 0.00020
750 28.48710 5146.59087 5140.88965 0.00019
751 28.51310 5140.74668 5227.29053 0.00019
752 28.53910 5135.48339 5256.25000 0.00019
753 28.56510 5130.84117 5184.00000 0.00019
754 28.59110 5126.74689 5343.60986 0.00019
755 28.61710 5123.26530 5329.00000 0.00019
756 28.64310 5120.64846 5256.25000 0.00019
757 28.66910 5118.99542 5329.00000 0.00019
758 28.69510 5118.12367 5241.76025 0.00019
759 28.72110 5117.94548 5241.76025 0.00019
760 28.74710 5118.55309 5343.60986 0.00019
761 28.77310 5120.02531 5343.60986 0.00019
762 28.79910 5122.42642 5299.84033 0.00019
763 28.82510 5125.85453 5299.84033 0.00019
764 28.85110 5130.48315 5198.40967 0.00019
765 28.87710 5136.56701 5198.40967 0.00019
766 28.90310 5144.48490 5270.75977 0.00019
767 28.92910 5154.95072 5314.41016 0.00019
768 28.95510 5169.23247 5212.83936 0.00019
769 28.98110 5189.06133 5155.24023 0.00019
770 29.00710 5216.71016 5372.89063 0.00019
771 29.03310 5255.71626 5490.80957 0.00018
772 29.05910 5311.64891 5476.00000 0.00018
773 29.08510 5392.98109 5565.15967 0.00018
774 29.11110 5512.90187 5670.09033 0.00018
775 29.13710 5692.56861 5760.81006 0.00017
776 29.16310 5966.36157 6146.56006 0.00016
777 29.18910 6390.70699 6642.25000 0.00015
778 29.21510 7059.11284 7327.35986 0.00014
779 29.24110 8122.01926 8556.25000 0.00012
780 29.26710 9790.45578 10363.24023 0.00010
781 29.29310 12248.36230 12950.44043 0.00008
782 29.31910 15340.09342 15850.81055 0.00006
783 29.34510 18125.93845 18333.15820 0.00005
784 29.37110 19118.91526 19154.55859 0.00005
785 29.39710 17762.72069 17875.68945 0.00006
786 29.42310 15244.55232 15600.01074 0.00006
787 29.44910 12928.50013 13271.03906 0.00008
788 29.47510 11191.96866 11363.55957 0.00009
789 29.50110 10270.55054 10444.83984 0.00010
790 29.52710 10601.60764 10795.20996 0.00009
791 29.55310 12502.98179 12588.83887 0.00008
792 29.57910 16274.22955 16332.84082 0.00006
793 29.60510 22267.11460 22410.08984 0.00004
794 29.63110 30205.71352 30276.00000 0.00003
795 29.65710 37901.79573 37869.16406 0.00003
796 29.68310 41386.97934 41006.25000 0.00002
797 29.70910 38428.94955 37752.49219 0.00003
798 29.73510 31392.72452 31329.00000 0.00003
799 29.76110 24022.36606 24367.21094 0.00004
800 29.78710 17602.59654 17582.76172 0.00006
801 29.81310 12322.00775 12078.01074 0.00008
802 29.83910 8705.51035 8667.60938 0.00012
803 29.86510 6805.30483 6972.25000 0.00014
804 29.89110 6018.75127 6256.80957 0.00016
805 29.91710 5731.30720 5836.96045 0.00017
806 29.94310 5622.57859 5625.00000 0.00018
807 29.96910 5581.79388 5550.25000 0.00018
808 29.99510 5580.75079 5610.01025 0.00018
809 30.02110 5616.05096 5550.25000 0.00018
810 30.04710 5693.84166 5550.25000 0.00018
811 30.07310 5828.36598 5715.35986 0.00017
812 30.09910 6044.54084 5791.20996 0.00017
813 30.12510 6383.39504 6162.25000 0.00016
814 30.15110 6911.29190 6658.55957 0.00015
815 30.17710 7736.26136 7586.40967 0.00013
816 30.20310 9036.31639 8949.16016 0.00011
817 30.22910 11103.67764 11172.48926 0.00009
818 30.25510 14395.08148 14689.43945 0.00007
819 30.28110 19523.16741 20277.75781 0.00005
820 30.30710 27009.08300 28224.00000 0.00004
821 30.33310 36610.63861 37713.64063 0.00003
822 30.35910 46568.46217 46785.69141 0.00002
823 30.38510 53844.06232 53314.80859 0.00002
824 30.41110 55709.92182 55837.69141 0.00002
825 30.43710 51392.64935 51574.41406 0.00002
826 30.46310 42634.59952 42931.83984 0.00002
827 30.48910 32647.14915 33087.60938 0.00003
828 30.51510 23782.73074 23932.08984 0.00004
829 30.54110 16739.70442 16563.68945 0.00006
830 30.56710 11728.10869 11470.41016 0.00009
831 30.59310 8761.26387 8704.89063 0.00011
832 30.61910 7373.41818 7225.00000 0.00014
833 30.64510 6916.15202 6822.75977 0.00015
834 30.67110 6896.67830 6691.24072 0.00015
835 30.69710 6981.65057 6972.25000 0.00014
836 30.72310 6931.37648 6889.00000 0.00015
837 30.74910 6672.64320 6625.96045 0.00015
838 30.77510 6318.01067 6464.16016 0.00015
839 30.80110 5974.60362 5944.40967 0.00017
840 30.82710 5651.42510 5685.16016 0.00018
841 30.85310 5366.65175 5402.25000 0.00019
842 30.87910 5157.59640 5343.60986 0.00019
843 30.90510 5023.79670 5012.64063 0.00020
844 30.93110 4940.13297 5026.81006 0.00020
845 30.95710 4885.96940 4998.48975 0.00020
846 30.98310 4849.25499 4802.49023 0.00021
847 31.00910 4822.79331 4872.04053 0.00021
848 31.03510 4802.44690 4984.35986 0.00020
849 31.06110 4786.19354 4872.04053 0.00021
850 31.08710 4773.11213 4774.80957 0.00021
851 31.11310 4762.71248 4705.95996 0.00021
852 31.13910 4754.77006 4802.49023 0.00021
853 31.16510 4749.19416 4858.08936 0.00021
854 31.19110 4745.93639 4774.80957 0.00021
855 31.21710 4744.98048 4761.00000 0.00021
856 31.24310 4746.35350 4788.63965 0.00021
857 31.26910 4750.21903 4692.25000 0.00021
858 31.29510 4756.98540 4816.36035 0.00021
859 31.32110 4767.31158 4872.04053 0.00021
860 31.34710 4782.18640 4830.25000 0.00021
861 31.37310 4803.27655 5026.81006 0.00020
862 31.39910 4833.47510 4942.09033 0.00020
863 31.42510 4877.64389 4984.35986 0.00020
864 31.45110 4943.59655 4984.35986 0.00020
865 31.47710 5043.73612 4970.25000 0.00020
866 31.50310 5197.86960 5112.25000 0.00020
867 31.52910 5437.89714 5402.25000 0.00019
868 31.55510 5815.35015 5867.55957 0.00017
869 31.58110 6414.01911 6496.35986 0.00015
870 31.60710 7372.18601 7464.96045 0.00013
871 31.63310 8916.97268 9216.00000 0.00011
872 31.65910 11397.87416 11707.23926 0.00009
873 31.68510 15256.81210 15600.01074 0.00006
874 31.71110 20762.33266 21316.00000 0.00005
875 31.73710 27308.81399 28089.76172 0.00004
876 31.76310 32695.64130 33233.29297 0.00003
877 31.78910 33994.19744 33892.81250 0.00003
878 31.81510 30489.77159 30380.49023 0.00003
879 31.84110 24766.29380 25122.25000 0.00004
880 31.86710 19361.13835 19768.36133 0.00005
881 31.89310 14622.80444 14592.64063 0.00007
882 31.91910 10564.72320 10342.88965 0.00010
883 31.94510 7685.27091 7551.61035 0.00013
884 31.97110 6089.45692 6052.84033 0.00017
885 31.99710 5360.36743 5387.56006 0.00019
886 32.02310 5046.02043 5083.69043 0.00020
887 32.04910 4891.41863 4956.16016 0.00020
888 32.07510 4796.82794 4830.25000 0.00021
889 32.10110 4730.11864 4788.63965 0.00021
890 32.12710 4680.34560 4788.63965 0.00021
891 32.15310 4642.46249 4733.44043 0.00021
892 32.17910 4613.54704 4705.95996 0.00021
893 32.20510 4591.73936 4678.56006 0.00021
894 32.23110 4575.82171 4651.23975 0.00021
895 32.25710 4565.00704 4610.41016 0.00022
896 32.28310 4558.81362 4556.25000 0.00022
897 32.30910 4557.00920 4542.76025 0.00022
898 32.33510 4559.63903 4610.41016 0.00022
899 32.36110 4567.08459 4651.23975 0.00021
900 32.38710 4580.16157 4610.41016 0.00022
901 32.41310 4600.34731 4637.60986 0.00022
902 32.43910 4630.18455 4705.95996 0.00021
903 32.46510 4673.91881 4678.56006 0.00021
904 32.49110 4738.34979 4692.25000 0.00021
905 32.51710 4834.35544 4816.36035 0.00021
906 32.54310 4979.45834 4970.25000 0.00020
907 32.56910 5201.75714 5069.43945 0.00020
908 32.59510 5546.43308 5416.95996 0.00018
909 32.62110 6086.29081 5975.29053 0.00017
910 32.64710 6937.69384 6938.89063 0.00014
911 32.67310 8277.51422 8372.25000 0.00012
912 32.69910 10337.84107 10302.25000 0.00010
913 32.72510 13319.20648 13340.25000 0.00007
914 32.75110 17139.78821 17476.83984 0.00006
915 32.77710 21062.56049 22111.68945 0.00005
916 32.80310 23637.27243 24774.75781 0.00004
917 32.82910 23582.10844 24554.88867 0.00004
918 32.85510 21111.17018 21963.23828 0.00005
919 32.88110 17797.27198 18523.21094 0.00005
920 32.90710 14865.73704 15400.80957 0.00006
921 32.93310 12589.04216 12566.40918 0.00008
922 32.95910 11198.21121 10506.25000 0.00010
923 32.98510 11190.41499 10140.48926 0.00010
924 33.01110 12945.52383 11685.60938 0.00009
925 33.03710 16550.34496 15500.25000 0.00006
926 33.06310 21606.03209 21785.76172 0.00005
927 33.08910 26754.04795 28832.04102 0.00003
928 33.11510 29803.66227 32256.16211 0.00003
929 33.14110 29403.12088 29377.95703 0.00003
930 33.16710 26653.86977 25856.64063 0.00004
931 33.19310 23929.75197 24398.43945 0.00004
932 33.21910 22450.25924 22770.80859 0.00004
933 33.24510 22131.73345 21667.83984 0.00005
934 33.27110 22686.59387 22171.20898 0.00005
935 33.29710 23690.90680 23347.84180 0.00004
936 33.32310 24211.13180 24649.00000 0.00004
937 33.34910 23119.26990 23409.00000 0.00004
938 33.37510 20190.26029 20220.83984 0.00005
939 33.40110 16575.45045 17108.64063 0.00006
940 33.42710 13468.62964 14065.95996 0.00007
941 33.45310 11106.05882 11257.20996 0.00009
942 33.47910 9509.93578 9331.55957 0.00011
943 33.50510 8954.58070 8704.89063 0.00011
944 33.53110 9554.55738 9682.56055 0.00010
945 33.55710 10949.61207 11320.95996 0.00009
946 33.58310 12308.19905 12365.43945 0.00008
947 33.60910 12676.45886 12611.29102 0.00008
948 33.63510 11750.93263 11728.89063 0.00009
949 33.66110 10175.70972 10506.25000 0.00010
950 33.68710 8669.91357 9044.00977 0.00011
951 33.71310 7351.97338 7744.00000 0.00013
952 33.73910 6172.30646 6320.25000 0.00016
953 33.76510 5252.42674 5329.00000 0.00019
954 33.79110 4683.13524 4678.56006 0.00021
955 33.81710 4397.36576 4502.40967 0.00022
956 33.84310 4269.75348 4342.81006 0.00023
957 33.86910 4210.36480 4329.64063 0.00023
958 33.89510 4177.51019 4277.16016 0.00023
959 33.92110 4156.80577 4290.25000 0.00023
960 33.94710 4144.39203 4147.36035 0.00024
961 33.97310 4139.92374 4096.00000 0.00024
962 33.99910 4144.92690 4238.00977 0.00024
963 34.02510 4163.00230 4251.03955 0.00024
964 34.05110 4200.50349 4277.16016 0.00023
965 34.07710 4268.15869 4290.25000 0.00023
966 34.10310 4384.09265 4502.40967 0.00022
967 34.12910 4578.14692 4678.56006 0.00021
968 34.15510 4896.30903 5069.43945 0.00020
969 34.18110 5397.47687 5655.03955 0.00018
970 34.20710 6123.20296 6464.16016 0.00015
971 34.23310 7017.68991 7396.00000 0.00014
972 34.25910 7837.55935 8226.48926 0.00012
973 34.28510 8218.60854 8630.41016 0.00012
974 34.31110 7989.83239 8519.29102 0.00012
975 34.33710 7385.12937 7867.68945 0.00013
976 34.36310 6772.58374 7208.01025 0.00014
977 34.38910 6310.00921 6691.24072 0.00015
978 34.41510 6031.35925 6225.21045 0.00016
979 34.44110 6047.67666 6068.41016 0.00016
980 34.46710 6537.45594 6448.09033 0.00016
981 34.49310 7685.64719 7482.25000 0.00013
982 34.51910 9696.10403 9331.55957 0.00011
983 34.54510 12761.17833 12544.00000 0.00008
984 34.57110 16864.75237 16770.25000 0.00006
985 34.59710 21480.70622 21199.36133 0.00005
986 34.62310 25468.93864 24995.61133 0.00004
987 34.64910 27473.22350 26569.00000 0.00004
988 34.67510 26735.30589 25664.03906 0.00004
989 34.70110 23761.33118 23409.00000 0.00004
990 34.72710 20006.03760 20164.00000 0.00005
991 34.75310 16553.90749 16718.49023 0.00006
992 34.77910 13513.48019 13595.55957 0.00007
993 34.80510 10782.60032 10650.23926 0.00009
994 34.83110 8549.49658 8427.24023 0.00012
995 34.85710 7029.34908 6988.95996 0.00014
996 34.88310 6186.83387 6099.60986 0.00016
997 34.90910 5816.05986 5685.16016 0.00018
998 34.93510 5772.15132 5505.63965 0.00018
999 34.96110 6052.39041 5685.16016 0.00018
1000 34.98710 6710.79999 6352.08936 0.00016
1001 35.01310 7747.69176 7499.55957 0.00013
1002 35.03910 9011.30975 8930.25000 0.00011
1003 35.06510 10134.97078 10302.25000 0.00010
1004 35.09110 10650.52328 10920.25000 0.00009
1005 35.11710 10327.66429 10506.25000 0.00010
1006 35.14310 9396.89884 9428.41016 0.00011
1007 35.16910 8289.46183 8281.00000 0.00012
1008 35.19510 7244.35630 7327.35986 0.00014
1009 35.22110 6314.46563 6209.44043 0.00016
1010 35.24710 5561.02405 5329.00000 0.00019
1011 35.27310 5073.04211 4914.00977 0.00020
1012 35.29910 4894.14624 4914.00977 0.00020
1013 35.32510 5025.83786 5083.69043 0.00020
1014 35.35110 5482.16432 5625.00000 0.00018
1015 35.37710 6315.65898 6561.00000 0.00015
1016 35.40310 7568.03745 7885.44043 0.00013
1017 35.42910 9126.80634 9158.48926 0.00011
1018 35.45510 10569.58695 10060.09082 0.00010
1019 35.48110 11263.45169 10424.41016 0.00010
1020 35.50710 10866.31376 10322.55957 0.00010
1021 35.53310 9707.22119 9604.00000 0.00010
1022 35.55910 8401.89690 8686.23926 0.00012
1023 35.58510 7233.42363 7464.96045 0.00013
1024 35.61110 6186.07745 6416.00977 0.00016
1025 35.63710 5293.07551 5402.25000 0.00019
1026 35.66310 4664.72313 4788.63965 0.00021
1027 35.68910 4338.42822 4395.69043 0.00023
1028 35.71510 4258.29764 4342.81006 0.00023
1029 35.74110 4348.27883 4264.09033 0.00023
1030 35.76710 4550.11792 4502.40967 0.00022
1031 35.79310 4806.97003 4761.00000 0.00021
1032 35.81910 5048.25876 4900.00000 0.00020
1033 35.84510 5230.31240 5055.20996 0.00020
1034 35.87110 5409.68075 5372.89063 0.00019
1035 35.89710 5749.39682 5745.64063 0.00017
1036 35.92310 6445.80783 6464.16016 0.00015
1037 35.94910 7699.38483 7903.21045 0.00013
1038 35.97510 9730.42512 10241.43945 0.00010
1039 36.00110 12651.88601 13363.35938 0.00007
1040 36.02710 16117.85168 16822.08984 0.00006
1041 36.05310 19045.88737 18878.75781 0.00005
1042 36.07910 20076.56256 19628.01172 0.00005
1043 36.10510 18819.70335 18769.00000 0.00005
1044 36.13110 16323.18609 16926.01172 0.00006
1045 36.15710 13751.09442 14689.43945 0.00007
1046 36.18310 11326.19929 11946.49023 0.00008
1047 36.20910 8975.80984 9273.69043 0.00011
1048 36.23510 6943.03207 7039.21045 0.00014
1049 36.26110 5489.97986 5535.36035 0.00018
1050 36.28710 4605.92731 4747.21045 0.00021
1051 36.31310 4119.29395 4096.00000 0.00024
1052 36.33910 3863.71913 3757.68994 0.00027
1053 36.36510 3730.27887 3612.00977 0.00028
1054 36.39110 3658.00189 3540.25000 0.00028
1055 36.41710 3615.80178 3481.00000 0.00029
1056 36.44310 3589.57203 3469.21021 0.00029
1057 36.46910 3574.10111 3410.56006 0.00029
1058 36.49510 3568.56030 3552.15991 0.00028
1059 36.52110 3574.23265 3504.64014 0.00029
1060 36.54710 3592.91829 3445.69019 0.00029
1061 36.57310 3624.26077 3469.21021 0.00029
1062 36.59910 3661.47198 3516.48999 0.00028
1063 36.62510 3689.25214 3600.00000 0.00028
1064 36.65110 3690.84390 3504.64014 0.00029
1065 36.67710 3662.99997 3492.80981 0.00029
1066 36.70310 3620.29941 3398.88989 0.00029
1067 36.72910 3578.54803 3469.21021 0.00029
1068 36.75510 3541.50413 3410.56006 0.00029
1069 36.78110 3507.92640 3387.23999 0.00030
1070 36.80710 3479.84475 3364.00000 0.00030
1071 36.83310 3460.32715 3352.41016 0.00030
1072 36.85910 3449.64555 3294.76025 0.00030
1073 36.88510 3445.76715 3237.61011 0.00031
1074 36.91110 3446.48650 3294.76025 0.00030
1075 36.93710 3450.80728 3387.23999 0.00030
1076 36.96310 3459.28796 3375.60986 0.00030
1077 36.98910 3473.77479 3375.60986 0.00030
1078 37.01510 3497.37634 3387.23999 0.00030
1079 37.04110 3535.11540 3445.69019 0.00029
1080 37.06710 3594.97970 3445.69019 0.00029
1081 37.09310 3688.86984 3576.03979 0.00028
1082 37.11910 3832.52443 3745.44019 0.00027
1083 37.14510 4042.70941 4070.43994 0.00025
1084 37.17110 4329.89439 4422.25000 0.00023
1085 37.19710 4688.92136 4816.36035 0.00021
1086 37.22310 5096.97152 5256.25000 0.00019
1087 37.24910 5523.13102 5806.43945 0.00017
1088 37.27510 5933.07412 6496.35986 0.00015
1089 37.30110 6280.56865 7022.44043 0.00014
1090 37.32710 6530.29534 7174.08936 0.00014
1091 37.35310 6736.49703 7056.00000 0.00014
1092 37.37910 7064.46970 7259.03955 0.00014
1093 37.40510 7648.31965 7779.23926 0.00013
1094 37.43110 8434.91115 8500.83984 0.00012
1095 37.45710 9204.67417 9273.69043 0.00011
1096 37.48310 9709.49820 9564.84082 0.00010
1097 37.50910 9805.65283 9623.60938 0.00010
1098 37.53510 9538.31093 9370.24023 0.00011
1099 37.56110 9120.98158 8779.68945 0.00011
1100 37.58710 8754.52278 8262.81055 0.00012
1101 37.61310 8499.90568 7956.63965 0.00013
1102 37.63910 8402.06372 7832.25000 0.00013
1103 37.66510 8589.25676 8208.35938 0.00012
1104 37.69110 9096.38973 9120.25000 0.00011
1105 37.71710 9641.86853 9741.68945 0.00010
1106 37.74310 9746.64559 9702.25000 0.00010
1107 37.76910 9168.06093 9006.01074 0.00011
1108 37.79510 8145.68616 8100.00000 0.00012
1109 37.82110 7095.49631 7310.25000 0.00014
1110 37.84710 6188.98623 6480.25000 0.00015
1111 37.87310 5381.82316 5402.25000 0.00019
1112 37.89910 4662.01360 4448.88965 0.00022
1113 37.92510 4096.20077 3721.00000 0.00027
1114 37.95110 3724.41665 3445.69019 0.00029
1115 37.97710 3517.11543 3422.25000 0.00029
1116 38.00310 3413.11188 3294.76025 0.00030
1117 38.02910 3361.01203 3226.23999 0.00031
1118 38.05510 3331.54902 3226.23999 0.00031
1119 38.08110 3311.80690 3169.68994 0.00032
1120 38.10710 3296.95190 3203.55981 0.00031
1121 38.13310 3285.25873 3136.00000 0.00032
1122 38.15910 3276.07934 3113.63989 0.00032
1123 38.18510 3269.20412 3147.20972 0.00032
1124 38.21110 3264.78789 3169.68994 0.00032
1125 38.23710 3263.52995 3147.20972 0.00032
1126 38.26310 3267.00137 3113.63989 0.00032
1127 38.28910 3278.27340 3158.44019 0.00032
1128 38.31510 3302.72890 3294.76025 0.00030
1129 38.34110 3349.54446 3260.40991 0.00031
1130 38.36710 3433.96974 3352.41016 0.00030
1131 38.39310 3580.42018 3504.64014 0.00029
1132 38.41910 3825.22046 3769.96021 0.00027
1133 38.44510 4215.07206 4032.25000 0.00025
1134 38.47110 4792.63117 4678.56006 0.00021
1135 38.49710 5558.50661 5610.01025 0.00018
1136 38.52310 6414.81969 6625.96045 0.00015
1137 38.54910 7141.35574 7225.00000 0.00014
1138 38.57510 7484.18861 7293.16016 0.00014
1139 38.60110 7340.21513 7056.00000 0.00014
1140 38.62710 6844.70584 6740.40967 0.00015
1141 38.65310 6230.04195 6162.25000 0.00016
1142 38.67910 5644.99536 5640.00977 0.00018
1143 38.70510 5146.53423 5112.25000 0.00020
1144 38.73110 4781.69622 4719.68945 0.00021
1145 38.75710 4620.37671 4448.88965 0.00022
1146 38.78310 4735.36209 4761.00000 0.00021
1147 38.80910 5174.37526 5155.24023 0.00019
1148 38.83510 5919.62924 5944.40967 0.00017
1149 38.86110 6820.15442 6740.40967 0.00015
1150 38.88710 7557.99956 7516.88965 0.00013
1151 38.91310 7785.05481 7832.25000 0.00013
1152 38.93910 7415.70635 7430.43945 0.00013
1153 38.96510 6727.83677 6773.29053 0.00015
1154 38.99110 6053.65652 6084.00000 0.00016
1155 39.01710 5489.35238 5610.01025 0.00018
1156 39.04310 4998.69796 5026.81006 0.00020
1157 39.06910 4609.81469 4529.29053 0.00022
1158 39.09510 4413.63397 4290.25000 0.00023
1159 39.12110 4462.67316 4422.25000 0.00023
1160 39.14710 4725.63707 4788.63965 0.00021
1161 39.17310 5096.65797 5505.63965 0.00018
1162 39.19910 5437.15194 5836.96045 0.00017
1163 39.22510 5664.47539 5836.96045 0.00017
1164 39.25110 5841.15108 5821.69043 0.00017
1165 39.27710 6147.05766 6209.44043 0.00016
1166 39.30310 6734.71187 6905.60986 0.00014
1167 39.32910 7643.39471 7992.36035 0.00013
1168 39.35510 8855.35122 8911.36035 0.00011
1169 39.38110 10376.29971 10100.25000 0.00010
1170 39.40710 12195.90611 11968.36035 0.00008
1171 39.43310 14093.78389 14113.44043 0.00007
1172 39.45910 15521.86798 15926.43945 0.00006
1173 39.48510 15910.50766 16230.76074 0.00006
1174 39.51110 15193.98599 15252.25000 0.00007
1175 39.53710 13820.88966 13971.23926 0.00007
1176 39.56310 12207.56883 12343.20996 0.00008
1177 39.58910 10486.36962 10404.00000 0.00010
1178 39.61510 8755.92196 8611.84082 0.00012
1179 39.64110 7206.16607 6955.56006 0.00014
1180 39.66710 5984.70525 5640.00977 0.00018
1181 39.69310 5117.47776 4719.68945 0.00021
1182 39.71910 4551.94821 4173.15967 0.00024
1183 39.74510 4202.55732 4083.21021 0.00024
1184 39.77110 3975.69134 3956.41016 0.00025
1185 39.79710 3802.34022 3819.23999 0.00026
1186 39.82310 3657.76936 3624.04004 0.00028
1187 39.84910 3542.63947 3516.48999 0.00028
1188 39.87510 3453.34689 3433.95972 0.00029
1189 39.90110 3379.64948 3283.28979 0.00030
1190 39.92710 3317.70345 3180.96021 0.00031
1191 39.95310 3272.27611 3169.68994 0.00032
1192 39.97910 3249.13594 3102.48999 0.00032
1193 40.00510 3251.08085 3080.25000 0.00032
1194 40.03110 3280.41857 3169.68994 0.00032
1195 40.05710 3343.25592 3226.23999 0.00031
1196 40.08310 3452.51198 3283.28979 0.00030
1197 40.10910 3628.87722 3457.43994 0.00029
1198 40.13510 3898.08538 3672.35986 0.00027
1199 40.16110 4279.96792 3981.60986 0.00025
1200 40.18710 4764.63305 4422.25000 0.00023
1201 40.21310 5282.24716 4872.04053 0.00021
1202 40.23910 5696.86327 5256.25000 0.00019
1203 40.26510 5864.17953 5431.68945 0.00018
1204 40.29110 5738.41889 5402.25000 0.00019
1205 40.31710 5416.33130 5097.96045 0.00020
1206 40.34310 5040.38964 4747.21045 0.00021
1207 40.36910 4683.74039 4515.83936 0.00022
1208 40.39510 4354.49888 4173.15967 0.00024
1209 40.42110 4055.26052 3969.00000 0.00025
1210 40.44710 3799.62001 3660.25000 0.00027
1211 40.47310 3595.35715 3552.15991 0.00028
1212 40.49910 3440.79102 3422.25000 0.00029
1213 40.52510 3332.20337 3352.41016 0.00030
1214 40.55110 3263.01486 3214.89014 0.00031
1215 40.57710 3221.83279 3147.20972 0.00032
1216 40.60310 3199.35868 3147.20972 0.00032
1217 40.62910 3195.15554 3192.25000 0.00031
1218 40.65510 3217.09740 3147.20972 0.00032
1219 40.68110 3278.37882 3136.00000 0.00032
1220 40.70710 3397.92865 3283.28979 0.00030
1221 40.73310 3602.83301 3445.69019 0.00029
1222 40.75910 3926.49993 3757.68994 0.00027
1223 40.78510 4393.43957 4199.04053 0.00024
1224 40.81110 4983.00495 4872.04053 0.00021
1225 40.83710 5585.27470 5550.25000 0.00018
1226 40.86310 6004.72373 5990.76025 0.00017
1227 40.88910 6069.96600 5990.76025 0.00017
1228 40.91510 5787.88069 5535.36035 0.00018
1229 40.94110 5348.09065 5270.75977 0.00019
1230 40.96710 4930.82393 4998.48975 0.00020
1231 40.99310 4572.54660 4719.68945 0.00021
1232 41.01910 4241.28460 4212.01025 0.00024
1233 41.04510 3947.32715 3794.55981 0.00026
1234 41.07110 3744.90833 3660.25000 0.00027
1235 41.09710 3676.61584 3504.64014 0.00029
1236 41.12310 3750.06091 3612.00977 0.00028
1237 41.14910 3948.45861 3684.48999 0.00027
1238 41.17510 4237.50540 4121.63965 0.00024
1239 41.20110 4556.91228 4542.76025 0.00022
1240 41.22710 4817.23701 4928.03955 0.00020
1241 41.25310 4929.78058 5041.00000 0.00020
1242 41.27910 4864.35990 4900.00000 0.00020
1243 41.30510 4676.56585 4610.41016 0.00022
1244 41.33110 4458.49524 4462.24023 0.00022
1245 41.35710 4271.05327 4303.35986 0.00023
1246 41.38310 4139.16214 4186.08984 0.00024
1247 41.40910 4087.56479 4108.80957 0.00024
1248 41.43510 4153.28104 4057.69019 0.00025
1249 41.46110 4359.67147 4395.69043 0.00023
1250 41.48710 4677.46686 4774.80957 0.00021
1251 41.51310 5003.25914 5198.40967 0.00019
1252 41.53910 5190.27775 5640.00977 0.00018
1253 41.56510 5142.48697 5505.63965 0.00018
1254 41.59110 4896.78128 5112.25000 0.00020
1255 41.61710 4584.34725 4705.95996 0.00021
1256 41.64310 4305.12804 4462.24023 0.00022
1257 41.66910 4075.99038 4212.01025 0.00024
1258 41.69510 3889.76920 4096.00000 0.00024
1259 41.72110 3771.79917 3745.44019 0.00027
1260 41.74710 3773.24553 3684.48999 0.00027
1261 41.77310 3939.59423 3745.44019 0.00027
1262 41.79910 4291.16040 4186.08984 0.00024
1263 41.82510 4803.92204 4747.21045 0.00021
1264 41.85110 5378.45136 5155.24023 0.00019
1265 41.87710 5834.16590 5505.63965 0.00018
1266 41.90310 5992.71086 5550.25000 0.00018
1267 41.92910 5826.68461 5490.80957 0.00018
1268 41.95510 5503.74833 5343.60986 0.00019
1269 41.98110 5229.10923 5140.88965 0.00019
1270 42.00710 5084.88574 5041.00000 0.00020
1271 42.03310 5053.13502 4998.48975 0.00020
1272 42.05910 5106.09414 5140.88965 0.00019
1273 42.08510 5220.11862 5198.40967 0.00019
1274 42.11110 5348.06321 5299.84033 0.00019
1275 42.13710 5436.46104 5476.00000 0.00018
1276 42.16310 5467.37527 5565.15967 0.00018
1277 42.18910 5464.87718 5595.04053 0.00018
1278 42.21510 5478.27422 5610.01025 0.00018
1279 42.24110 5558.70743 5490.80957 0.00018
1280 42.26710 5706.89346 5535.36035 0.00018
1281 42.29310 5834.90950 5760.81006 0.00017
1282 42.31910 5816.96256 5715.35986 0.00017
1283 42.34510 5607.17255 5505.63965 0.00018
1284 42.37110 5301.77647 5198.40967 0.00019
1285 42.39710 5061.56935 4872.04053 0.00021
1286 42.42310 4991.03236 4844.15967 0.00021
1287 42.44910 5118.94066 4928.03955 0.00020
1288 42.47510 5451.55859 5212.83936 0.00019
1289 42.50110 5974.30884 5867.55957 0.00017
1290 42.52710 6580.07867 6773.29053 0.00015
1291 42.55310 7035.92373 7499.55957 0.00013
1292 42.57910 7100.96980 7464.96045 0.00013
1293 42.60510 6735.97037 6756.83936 0.00015
1294 42.63110 6154.60666 6130.89063 0.00016
1295 42.65710 5604.22954 5806.43945 0.00017
1296 42.68310 5163.25679 5372.89063 0.00019
1297 42.70910 4796.92679 4844.15967 0.00021
1298 42.73510 4500.51935 4462.24023 0.00022
1299 42.76110 4323.11911 4238.00977 0.00024
1300 42.78710 4292.09172 4160.25000 0.00024
1301 42.81310 4362.08905 4290.25000 0.00023
1302 42.83910 4438.15595 4395.69043 0.00023
1303 42.86510 4442.38366 4316.48975 0.00023
1304 42.89110 4361.82030 4199.04053 0.00024
1305 42.91710 4230.93693 4147.36035 0.00024
1306 42.94310 4081.52986 3981.60986 0.00025
1307 42.96910 3929.48465 3733.20972 0.00027
1308 42.99510 3794.41869 3684.48999 0.00027
1309 43.02110 3702.73680 3624.04004 0.00028
1310 43.04710 3669.33427 3612.00977 0.00028
1311 43.07310 3683.12429 3624.04004 0.00028
1312 43.09910 3707.86641 3600.00000 0.00028
1313 43.12510 3699.62589 3576.03979 0.00028
1314 43.15110 3636.46906 3469.21021 0.00029
1315 43.17710 3535.57623 3540.25000 0.00028
1316 43.20310 3433.22503 3481.00000 0.00029
1317 43.22910 3350.70503 3340.83984 0.00030
1318 43.25510 3288.66158 3271.84009 0.00031
1319 43.28110 3246.86253 3283.28979 0.00030
1320 43.30710 3238.21145 3169.68994 0.00032
1321 43.33310 3286.10916 3317.75977 0.00030
1322 43.35910 3416.95528 3422.25000 0.00029
1323 43.38510 3655.61082 3636.08984 0.00028
1324 43.41110 4017.84030 3956.41016 0.00025
1325 43.43710 4491.87048 4542.76025 0.00022
1326 43.46310 5014.76734 5069.43945 0.00020
1327 43.48910 5469.24230 5580.08936 0.00018
1328 43.51510 5726.96554 5776.00000 0.00017
1329 43.54110 5721.84289 5745.64063 0.00017
1330 43.56710 5487.99547 5520.49023 0.00018
1331 43.59310 5124.39814 5184.00000 0.00019
1332 43.61910 4727.63521 4942.09033 0.00020
1333 43.64510 4349.69195 4382.43945 0.00023
1334 43.67110 4002.06926 4083.21021 0.00024
1335 43.69710 3688.33502 3757.68994 0.00027
1336 43.72310 3422.14491 3410.56006 0.00029
1337 43.74910 3219.25938 3192.25000 0.00031
1338 43.77510 3083.35236 3058.08984 0.00033
1339 43.80110 3003.70531 3003.03979 0.00033
1340 43.82710 2963.47836 2948.48999 0.00034
1341 43.85310 2947.99898 2798.41016 0.00036
1342 43.87910 2948.27035 2970.25000 0.00034
1343 43.90510 2960.47613 2905.21021 0.00034
1344 43.93110 2983.60865 2894.43994 0.00035
1345 43.95710 3016.58896 2970.25000 0.00034
1346 43.98310 3056.08371 3003.03979 0.00033
1347 44.00910 3097.14929 2959.36011 0.00034
1348 44.03510 3138.44956 3091.35986 0.00032
1349 44.06110 3189.32498 3091.35986 0.00032
1350 44.08710 3270.85317 3147.20972 0.00032
1351 44.11310 3406.82059 3352.41016 0.00030
1352 44.13910 3610.32611 3576.03979 0.00028
1353 44.16510 3870.23672 3794.55981 0.00026
1354 44.19110 4138.15035 4121.63965 0.00024
1355 44.21710 4331.01123 4199.04053 0.00024
1356 44.24310 4371.86482 4264.09033 0.00023
1357 44.26910 4252.86836 4238.00977 0.00024
1358 44.29510 4048.79907 3981.60986 0.00025
1359 44.32110 3846.17879 4019.56030 0.00025
1360 44.34710 3674.66144 3806.89014 0.00026
1361 44.37310 3520.15065 3600.00000 0.00028
1362 44.39910 3374.05639 3352.41016 0.00030
1363 44.42510 3251.78781 3203.55981 0.00031
1364 44.45110 3176.78886 3147.20972 0.00032
1365 44.47710 3164.54301 3069.16016 0.00033
1366 44.50310 3222.38514 3203.55981 0.00031
1367 44.52910 3355.58305 3192.25000 0.00031
1368 44.55510 3567.97036 3398.88989 0.00029
1369 44.58110 3851.83208 3733.20972 0.00027
1370 44.60710 4171.07702 4019.56030 0.00025
1371 44.63310 4454.03537 4290.25000 0.00023
1372 44.65910 4617.40746 4502.40967 0.00022
1373 44.68510 4620.50560 4502.40967 0.00022
1374 44.71110 4503.17173 4251.03955 0.00024
1375 44.73710 4356.40315 4160.25000 0.00024
1376 44.76310 4253.11681 4173.15967 0.00024
1377 44.78910 4216.21787 4225.00000 0.00024
1378 44.81510 4236.05214 4238.00977 0.00024
1379 44.84110 4289.00547 4448.88965 0.00022
1380 44.86710 4337.78423 4583.28955 0.00022
1381 44.89310 4340.57768 4515.83936 0.00022
1382 44.91910 4283.95003 4435.55957 0.00023
1383 44.94510 4200.70379 4303.35986 0.00023
1384 44.97110 4134.26997 4277.16016 0.00023
1385 44.99710 4087.48040 4199.04053 0.00024
1386 45.02310 4021.32691 4044.95972 0.00025
1387 45.04910 3900.88824 3819.23999 0.00026
1388 45.07510 3733.29842 3588.01025 0.00028
1389 45.10110 3559.42936 3445.69019 0.00029
1390 45.12710 3415.35298 3410.56006 0.00029
1391 45.15310 3309.75838 3306.25000 0.00030
1392 45.17910 3234.15660 3203.55981 0.00031
1393 45.20510 3182.73504 3113.63989 0.00032
1394 45.23110 3159.90570 3080.25000 0.00032
1395 45.25710 3175.47690 3136.00000 0.00032
1396 45.28310 3237.94168 3169.68994 0.00032
1397 45.30910 3350.19906 3294.76025 0.00030
1398 45.33510 3505.93013 3516.48999 0.00028
1399 45.36110 3687.47633 3745.44019 0.00027
1400 45.38710 3869.85195 3881.28979 0.00026
1401 45.41310 4031.24238 4121.63965 0.00024
1402 45.43910 4159.16729 4435.55957 0.00023
1403 45.46510 4243.07502 4489.00000 0.00022
1404 45.49110 4268.13912 4489.00000 0.00022
1405 45.51710 4230.45133 4369.20996 0.00023
1406 45.54310 4153.61158 4264.09033 0.00023
1407 45.56910 4074.18636 4251.03955 0.00024
1408 45.59510 4016.96270 4238.00977 0.00024
1409 45.62110 3996.87950 4134.49023 0.00024
1410 45.64710 4038.06179 4032.25000 0.00025
1411 45.67310 4182.26173 4186.08984 0.00024
1412 45.69910 4479.82671 4448.88965 0.00022
1413 45.72510 4974.45753 5012.64063 0.00020
1414 45.75110 5687.16889 5760.81006 0.00017
1415 45.77710 6596.09827 6691.24072 0.00015
1416 45.80310 7616.49889 7779.23926 0.00013
1417 45.82910 8598.98068 8704.89063 0.00011
1418 45.85510 9366.80351 9467.29102 0.00011
1419 45.88110 9788.85386 9741.68945 0.00010
1420 45.90710 9844.80427 9741.68945 0.00010
1421 45.93310 9630.41231 9584.41016 0.00010
1422 45.95910 9285.47561 9409.00000 0.00011
1423 45.98510 8893.10269 8968.08984 0.00011
1424 46.01110 8458.75008 8262.81055 0.00012
1425 46.03710 7995.14239 7761.60986 0.00013
1426 46.06310 7604.21218 7378.81006 0.00014
1427 46.08910 7468.13448 7327.35986 0.00014
1428 46.11510 7759.16500 7482.25000 0.00013
1429 46.14110 8542.13947 8190.25000 0.00012
1430 46.16710 9709.11698 9273.69043 0.00011
1431 46.19310 10943.99814 10383.61035 0.00010
1432 46.21910 11778.91378 11067.03906 0.00009
1433 46.24510 11821.51625 11130.25000 0.00009
1434 46.27110 11049.74960 10322.55957 0.00010
1435 46.29710 9848.54246 9467.29102 0.00011
1436 46.32310 8658.14775 8464.00000 0.00012
1437 46.34910 7638.19241 7586.40967 0.00013
1438 46.37510 6711.33767 6658.55957 0.00015
1439 46.40110 5799.63098 5821.69043 0.00017
1440 46.42710 4941.44101 4872.04053 0.00021
1441 46.45310 4230.66691 4032.25000 0.00025
1442 46.47910 3721.94242 3696.63989 0.00027
1443 46.50510 3405.77222 3398.88989 0.00029
1444 46.53110 3235.58492 3203.55981 0.00031
1445 46.55710 3161.39230 3249.00000 0.00031
1446 46.58310 3147.95505 3091.35986 0.00032
1447 46.60910 3176.68771 3203.55981 0.00031
1448 46.63510 3238.87412 3147.20972 0.00032
1449 46.66110 3326.67228 3260.40991 0.00031
1450 46.68710 3426.06422 3398.88989 0.00029
1451 46.71310 3515.74347 3364.00000 0.00030
1452 46.73910 3574.65392 3492.80981 0.00029
1453 46.76510 3594.48113 3528.36011 0.00028
1454 46.79110 3585.94296 3481.00000 0.00029
1455 46.81710 3570.92813 3387.23999 0.00030
1456 46.84310 3567.45027 3504.64014 0.00029
1457 46.86910 3580.72001 3457.43994 0.00029
1458 46.89510 3602.64837 3576.03979 0.00028
1459 46.92110 3615.72838 3504.64014 0.00029
1460 46.94710 3601.23660 3457.43994 0.00029
1461 46.97310 3550.72003 3387.23999 0.00030
1462 46.99910 3472.85363 3375.60986 0.00030
1463 47.02510 3386.74377 3329.29004 0.00030
1464 47.05110 3307.57199 3352.41016 0.00030
1465 47.07710 3239.91275 3147.20972 0.00032
1466 47.10310 3182.31318 3192.25000 0.00031
1467 47.12910 3134.83799 3203.55981 0.00031
1468 47.15510 3102.14443 3158.44019 0.00032
1469 47.18110 3092.21863 3113.63989 0.00032
1470 47.20710 3114.98667 3147.20972 0.00032
1471 47.23310 3183.14185 3226.23999 0.00031
1472 47.25910 3314.46634 3433.95972 0.00029
1473 47.28510 3533.08323 3660.25000 0.00027
1474 47.31110 3865.44958 4083.21021 0.00024
1475 47.33710 4325.76724 4529.29053 0.00022
1476 47.36310 4889.09523 4970.25000 0.00020
1477 47.38910 5465.25330 5402.25000 0.00019
1478 47.41510 5907.08680 5640.00977 0.00018
1479 47.44110 6081.48234 5655.03955 0.00018
1480 47.46710 5971.15907 5640.00977 0.00018
1481 47.49310 5702.80839 5670.09033 0.00018
1482 47.51910 5443.67318 5595.04053 0.00018
1483 47.54510 5275.26941 5358.23975 0.00019
1484 47.57110 5175.63813 5198.40967 0.00019
1485 47.59710 5087.01287 5069.43945 0.00020
1486 47.62310 4978.60572 4998.48975 0.00020
1487 47.64910 4862.82341 4928.03955 0.00020
1488 47.67510 4779.27038 4872.04053 0.00021
1489 47.70110 4770.00512 4886.01025 0.00020
1490 47.72710 4864.62321 4914.00977 0.00020
1491 47.75310 5091.16650 5041.00000 0.00020
1492 47.77910 5500.24928 5372.89063 0.00019
1493 47.80510 6166.36864 6021.75977 0.00017
1494 47.83110 7142.60955 7005.68945 0.00014
1495 47.85710 8378.17330 8281.00000 0.00012
1496 47.88310 9648.78900 9741.68945 0.00010
1497 47.90910 10583.36395 10795.20996 0.00009
1498 47.93510 10843.27803 10983.04102 0.00009
1499 47.96110 10367.83850 10444.83984 0.00010
1500 47.98710 9438.64441 9623.60938 0.00010
1501 48.01310 8435.66347 8892.49023 0.00011
1502 48.03910 7550.96077 8244.64063 0.00012
1503 48.06510 6765.34095 7482.25000 0.00013
1504 48.09110 6013.79895 6528.64063 0.00015
1505 48.11710 5307.94488 5565.15967 0.00018
1506 48.14310 4720.66063 4802.49023 0.00021
1507 48.16910 4307.74057 4316.48975 0.00023
1508 48.19510 4064.23605 4044.95972 0.00025
1509 48.22110 3933.55139 3994.23999 0.00025
1510 48.24710 3844.48039 3868.84009 0.00026
1511 48.27310 3749.50041 3672.35986 0.00027
1512 48.29910 3641.14936 3600.00000 0.00028
1513 48.32510 3537.42022 3528.36011 0.00028
1514 48.35110 3455.02952 3504.64014 0.00029
1515 48.37710 3398.11614 3516.48999 0.00028
1516 48.40310 3365.48761 3410.56006 0.00029
1517 48.42910 3359.48534 3422.25000 0.00029
1518 48.45510 3384.11036 3433.95972 0.00029
1519 48.48110 3434.93633 3433.95972 0.00029
1520 48.50710 3492.19142 3433.95972 0.00029
1521 48.53310 3526.16909 3504.64014 0.00029
1522 48.55910 3514.57002 3576.03979 0.00028
1523 48.58510 3458.82844 3504.64014 0.00029
1524 48.61110 3381.74406 3445.69019 0.00029
1525 48.63710 3306.38613 3329.29004 0.00030
1526 48.66310 3239.86883 3271.84009 0.00031
1527 48.68910 3177.18108 3147.20972 0.00032
1528 48.71510 3114.08428 3158.44019 0.00032
1529 48.74110 3053.38280 3036.00977 0.00033
1530 48.76710 3001.51454 3025.00000 0.00033
1531 48.79310 2962.83459 3091.35986 0.00032
1532 48.81910 2937.63936 2981.15991 0.00034
1533 48.84510 2923.50665 3091.35986 0.00032
1534 48.87110 2917.30863 3025.00000 0.00033
1535 48.89710 2916.50927 2970.25000 0.00034
1536 48.92310 2919.71204 3036.00977 0.00033
1537 48.94910 2926.85325 2992.09009 0.00033
1538 48.97510 2939.27526 2937.64014 0.00034
1539 49.00110 2959.79968 3003.03979 0.00033
1540 49.02710 2993.14783 3003.03979 0.00033
1541 49.05310 3047.02747 3113.63989 0.00032
1542 49.07910 3133.66905 3102.48999 0.00032
1543 49.10510 3271.14958 3102.48999 0.00032
1544 49.13110 3483.03591 3260.40991 0.00031
1545 49.15710 3793.52953 3564.09009 0.00028
1546 49.18310 4214.31278 3831.61011 0.00026
1547 49.20910 4722.42926 4624.00000 0.00022
1548 49.23510 5240.05156 5314.41016 0.00019
1549 49.26110 5641.20021 6068.41016 0.00016
1550 49.28710 5805.90264 6052.84033 0.00017
1551 49.31310 5700.24918 5640.00977 0.00018
1552 49.33910 5408.20826 5270.75977 0.00019
1553 49.36510 5065.06737 5083.69043 0.00020
1554 49.39110 4758.28627 5041.00000 0.00020
1555 49.41710 4499.09845 4802.49023 0.00021
1556 49.44310 4268.07447 4342.81006 0.00023
1557 49.46910 4067.15024 4096.00000 0.00024
1558 49.49510 3932.20933 3906.25000 0.00026
1559 49.52110 3914.74213 3943.83984 0.00025
1560 49.54710 4063.67079 4160.25000 0.00024
1561 49.57310 4418.31781 4583.28955 0.00022
1562 49.59910 5001.66549 5212.83936 0.00019
1563 49.62510 5801.84051 5990.76025 0.00017
1564 49.65110 6745.28122 6609.69043 0.00015
1565 49.67710 7687.63857 7259.03955 0.00014
1566 49.70310 8456.19275 7849.95996 0.00013
1567 49.72910 8943.77024 8427.24023 0.00012
1568 49.75510 9188.19732 8630.41016 0.00012
1569 49.78110 9352.14325 9101.16016 0.00011
1570 49.80710 9609.13493 9564.84082 0.00010
1571 49.83310 10030.01753 10120.35938 0.00010
1572 49.85910 10530.66977 10712.25000 0.00009
1573 49.88510 10897.96969 11088.09082 0.00009
1574 49.91110 10904.49001 11088.09082 0.00009
1575 49.93710 10467.77002 10732.95996 0.00009
1576 49.96310 9734.21227 9801.00000 0.00010
1577 49.98910 8981.95155 9196.81055 0.00011
1578 50.01510 8417.63036 8760.95996 0.00011
1579 50.04110 8072.76319 8482.41016 0.00012
1580 50.06710 7870.84309 8118.00977 0.00012
1581 50.09310 7754.15829 7621.29053 0.00013
1582 50.11910 7749.63240 7191.04053 0.00014
1583 50.14510 7947.17935 7174.08936 0.00014
1584 50.17110 8429.38931 7708.84033 0.00013
1585 50.19710 9185.83865 8987.04102 0.00011
1586 50.22310 10047.10033 11193.64063 0.00009
1587 50.24910 10704.14476 12904.95996 0.00008
1588 50.27510 10852.06725 12769.00000 0.00008
1589 50.30110 10389.74098 11130.25000 0.00009
1590 50.32710 9499.79976 9331.55957 0.00011
1591 50.35310 8497.44120 8482.41016 0.00012
1592 50.37910 7595.57111 8262.81055 0.00012
1593 50.40510 6823.11691 7832.25000 0.00013
1594 50.43110 6117.55080 6806.25000 0.00015
1595 50.45710 5446.17380 5505.63965 0.00018
1596 50.48310 4843.83710 4583.28955 0.00022
1597 50.50910 4372.03733 4147.36035 0.00024
1598 50.53510 4069.09614 3981.60986 0.00025
1599 50.56110 3932.05163 3969.00000 0.00025
1600 50.58710 3924.49747 4057.69019 0.00025
1601 50.61310 3992.81169 4134.49023 0.00024
1602 50.63910 4081.09230 4225.00000 0.00024
1603 50.66510 4143.91039 4303.35986 0.00023
1604 50.69110 4159.43625 4277.16016 0.00023
1605 50.71710 4140.44420 4212.01025 0.00024
1606 50.74310 4130.33049 4160.25000 0.00024
1607 50.76910 4178.61166 4212.01025 0.00024
1608 50.79510 4315.54218 4342.81006 0.00023
1609 50.82110 4543.30128 4556.25000 0.00022
1610 50.84710 4837.25871 4774.80957 0.00021
1611 50.87310 5148.40470 4984.35986 0.00020
1612 50.89910 5411.89204 5358.23975 0.00019
1613 50.92510 5572.80873 5520.49023 0.00018
1614 50.95110 5621.84751 5490.80957 0.00018
1615 50.97710 5604.00355 5505.63965 0.00018
1616 51.00310 5576.97755 5655.03955 0.00018
1617 51.02910 5561.20253 5640.00977 0.00018
1618 51.05510 5539.83667 5715.35986 0.00017
1619 51.08110 5500.68631 5505.63965 0.00018
1620 51.10710 5463.12055 5402.25000 0.00019
1621 51.13310 5457.16849 5476.00000 0.00018
1622 51.15910 5487.58656 5431.68945 0.00018
1623 51.18510 5531.42589 5490.80957 0.00018
1624 51.21110 5564.05572 5745.64063 0.00017
1625 51.23710 5572.44723 5821.69043 0.00017
1626 51.26310 5540.33536 5685.16016 0.00018
1627 51.28910 5440.67318 5476.00000 0.00018
1628 51.31510 5260.23141 5169.61035 0.00019
1629 51.34110 5021.43749 4942.09033 0.00020
1630 51.36710 4766.03038 4705.95996 0.00021
1631 51.39310 4523.74838 4610.41016 0.00022
1632 51.41910 4303.51004 4435.55957 0.00023
1633 51.44510 4103.99992 4186.08984 0.00024
1634 51.47110 3925.06908 3956.41016 0.00025
1635 51.49710 3771.88743 3769.96021 0.00027
1636 51.52310 3653.84347 3600.00000 0.00028
1637 51.54910 3582.69469 3660.25000 0.00027
1638 51.57510 3569.64952 3708.81030 0.00027
1639 51.60110 3621.18280 3819.23999 0.00026
1640 51.62710 3737.50145 3994.23999 0.00025
1641 51.65310 3916.17659 4186.08984 0.00024
1642 51.67910 4160.13683 4569.75977 0.00022
1643 51.70510 4486.63895 4788.63965 0.00021
1644 51.73110 4930.63323 5026.81006 0.00020
1645 51.75710 5535.68513 5565.15967 0.00018
1646 51.78310 6332.46303 6146.56006 0.00016
1647 51.80910 7311.40383 7225.00000 0.00014
1648 51.83510 8395.50933 8445.61035 0.00012
1649 51.86110 9427.02845 9564.84082 0.00010
1650 51.88710 10200.27391 10506.25000 0.00010
1651 51.91310 10557.36571 10816.00000 0.00009
1652 51.93910 10489.60306 10670.89063 0.00009
1653 51.96510 10131.65098 10404.00000 0.00010
1654 51.99110 9630.08238 9820.80957 0.00010
1655 52.01710 9040.05096 9312.25000 0.00011
1656 52.04310 8362.70825 8854.80957 0.00011
1657 52.06910 7635.53733 8082.01025 0.00012
1658 52.09510 6953.69213 7378.81006 0.00014
1659 52.12110 6419.53712 6756.83936 0.00015
1660 52.14710 6091.84025 6352.08936 0.00016
1661 52.17310 5972.11117 6037.28955 0.00017
1662 52.19910 6011.30620 6021.75977 0.00017
1663 52.22510 6115.90852 6068.41016 0.00016
1664 52.25110 6165.75156 5990.76025 0.00017
1665 52.27710 6063.51453 5975.29053 0.00017
1666 52.30310 5794.35484 5791.20996 0.00017
1667 52.32910 5434.26865 5402.25000 0.00019
1668 52.35510 5082.47729 5198.40967 0.00019
1669 52.38110 4786.56117 5055.20996 0.00020
1670 52.40710 4533.55028 4788.63965 0.00021
1671 52.43310 4292.54455 4610.41016 0.00022
1672 52.45910 4054.92594 4277.16016 0.00023
1673 52.48510 3839.36512 4096.00000 0.00024
1674 52.51110 3669.38082 3906.25000 0.00026
1675 52.53710 3552.96770 3684.48999 0.00027
1676 52.56310 3479.88924 3648.16016 0.00027
1677 52.58910 3432.58798 3624.04004 0.00028
1678 52.61510 3400.29374 3576.03979 0.00028
1679 52.64110 3386.39212 3457.43994 0.00029
1680 52.66710 3405.17052 3457.43994 0.00029
1681 52.69310 3474.20702 3552.15991 0.00028
1682 52.71910 3610.70757 3648.16016 0.00027
1683 52.74510 3831.16080 3733.20972 0.00027
1684 52.77110 4146.87424 3969.00000 0.00025
1685 52.79710 4550.17409 4515.83936 0.00022
1686 52.82310 4996.22456 5198.40967 0.00019
1687 52.84910 5397.15446 5821.69043 0.00017
1688 52.87510 5646.51178 5990.76025 0.00017
1689 52.90110 5673.55956 5806.43945 0.00017
1690 52.92710 5493.02471 5416.95996 0.00018
1691 52.95310 5198.99644 5026.81006 0.00020
1692 52.97910 4896.89483 4900.00000 0.00020
1693 53.00510 4640.09101 4830.25000 0.00021
1694 53.03110 4426.87453 4705.95996 0.00021
1695 53.05710 4239.62312 4408.95996 0.00023
1696 53.08310 4080.49643 4083.21021 0.00024
1697 53.10910 3978.22297 3969.00000 0.00025
1698 53.13510 3972.15075 3981.60986 0.00025
1699 53.16110 4094.07587 4096.00000 0.00024
1700 53.18710 4357.64858 4356.00000 0.00023
1701 53.21310 4753.84662 4664.89063 0.00021
1702 53.23910 5252.40462 5140.88965 0.00019
1703 53.26510 5813.46719 5700.25000 0.00018
1704 53.29110 6410.19166 6193.68945 0.00016
1705 53.31710 7047.85169 6855.84033 0.00015
1706 53.34310 7749.82225 7761.60986 0.00013
1707 53.36910 8499.53236 8667.60938 0.00012
1708 53.39510 9186.41266 9447.83984 0.00011
1709 53.42110 9627.42746 9900.25000 0.00010
1710 53.44710 9675.66618 9702.25000 0.00010
1711 53.47310 9338.57952 9235.20996 0.00011
1712 53.49910 8790.11272 8742.25000 0.00011
1713 53.52510 8246.81966 8408.88965 0.00012
1714 53.55110 7829.78973 8118.00977 0.00012
1715 53.57710 7538.81597 7867.68945 0.00013
1716 53.60310 7326.60720 7516.88965 0.00013
1717 53.62910 7180.85148 7344.48926 0.00014
1718 53.65510 7138.77439 7208.01025 0.00014
1719 53.68110 7230.66813 7396.00000 0.00014
1720 53.70710 7418.33083 7726.41016 0.00013
1721 53.73310 7589.92095 7832.25000 0.00013
1722 53.75910 7614.83442 7691.28955 0.00013
1723 53.78510 7417.70846 7327.35986 0.00014
1724 53.81110 7018.01618 6922.23926 0.00014
1725 53.83710 6508.41292 6480.25000 0.00015
1726 53.86310 5991.83009 6084.00000 0.00016
1727 53.88910 5527.10256 5821.69043 0.00017
1728 53.91510 5121.19134 5446.44043 0.00018
1729 53.94110 4759.74791 4858.08936 0.00021
1730 53.96710 4439.45173 4596.84033 0.00022
1731 53.99310 4177.97760 4212.01025 0.00024
1732 54.01910 4002.53274 4083.21021 0.00024
1733 54.04510 3931.79576 3981.60986 0.00025
1734 54.07110 3963.88100 4108.80957 0.00024
1735 54.09710 4073.72039 4160.25000 0.00024
1736 54.12310 4218.63919 4329.64063 0.00023
1737 54.14910 4350.43636 4435.55957 0.00023
1738 54.17510 4430.18487 4489.00000 0.00022
1739 54.20110 4438.70126 4408.95996 0.00023
1740 54.22710 4377.19831 4435.55957 0.00023
1741 54.25310 4260.54325 4462.24023 0.00022
1742 54.27910 4110.37120 4290.25000 0.00023
1743 54.30510 3949.65206 4096.00000 0.00024
1744 54.33110 3796.61158 4032.25000 0.00025
1745 54.35710 3661.42787 3806.89014 0.00026
1746 54.38310 3548.51964 3794.55981 0.00026
1747 54.40910 3460.73701 3624.04004 0.00028
1748 54.43510 3401.32724 3445.69019 0.00029
1749 54.46110 3372.71948 3564.09009 0.00028
1750 54.48710 3374.61847 3457.43994 0.00029
1751 54.51310 3405.11821 3481.00000 0.00029
1752 54.53910 3464.94112 3648.16016 0.00027
1753 54.56510 3559.95263 3769.96021 0.00027
1754 54.59110 3696.45756 3956.41016 0.00025
1755 54.61710 3869.92062 3969.00000 0.00025
1756 54.64310 4056.24595 4108.80957 0.00024
1757 54.66910 4215.87601 4316.48975 0.00023
1758 54.69510 4312.94619 4316.48975 0.00023
1759 54.72110 4340.03444 4382.43945 0.00023
1760 54.74710 4328.88026 4356.00000 0.00023
1761 54.77310 4332.49187 4356.00000 0.00023
1762 54.79910 4389.79401 4515.83936 0.00022
1763 54.82510 4500.64476 4569.75977 0.00022
1764 54.85110 4625.51791 4610.41016 0.00022
1765 54.87710 4705.49192 4610.41016 0.00022
1766 54.90310 4691.91108 4651.23975 0.00021
1767 54.92910 4572.96584 4664.89063 0.00021
1768 54.95510 4381.64827 4408.95996 0.00023
1769 54.98110 4175.59557 4212.01025 0.00024
1770 55.00710 4002.94121 4083.21021 0.00024
1771 55.03310 3883.27265 3981.60986 0.00025
1772 55.05910 3814.30659 3981.60986 0.00025
1773 55.08510 3790.19761 3918.75977 0.00026
1774 55.11110 3812.91641 3806.89014 0.00026
1775 55.13710 3888.71223 3806.89014 0.00026
1776 55.16310 4015.46104 3881.28979 0.00026
1777 55.18910 4173.16437 3956.41016 0.00025
1778 55.21510 4326.28657 4096.00000 0.00024
1779 55.24110 4438.43069 4147.36035 0.00024
1780 55.26710 4490.79601 4290.25000 0.00023
1781 55.29310 4490.37432 4382.43945 0.00023
1782 55.31910 4459.25980 4448.88965 0.00022
1783 55.34510 4412.48694 4408.95996 0.00023
1784 55.37110 4345.54434 4422.25000 0.00023
1785 55.39710 4244.69834 4329.64063 0.00023
1786 55.42310 4108.67797 4096.00000 0.00024
1787 55.44910 3959.13427 3931.29004 0.00025
1788 55.47510 3830.66709 3856.40991 0.00026
1789 55.50110 3753.33639 3819.23999 0.00026
1790 55.52710 3743.95239 3745.44019 0.00027
1791 55.55310 3807.19728 3831.61011 0.00026
1792 55.57910 3938.07599 3918.75977 0.00026
1793 55.60510 4119.97785 4096.00000 0.00024
1794 55.63110 4321.54410 4422.25000 0.00023
1795 55.65710 4501.50210 4583.28955 0.00022
1796 55.68310 4625.75710 4637.60986 0.00022
1797 55.70910 4687.44778 4705.95996 0.00021
1798 55.73510 4709.93290 4788.63965 0.00021
1799 55.76110 4723.11207 4802.49023 0.00021
1800 55.78710 4733.90461 4872.04053 0.00021
1801 55.81310 4720.21473 4970.25000 0.00020
1802 55.83910 4652.50808 4872.04053 0.00021
1803 55.86510 4523.55760 4692.25000 0.00021
1804 55.89110 4359.70440 4515.83936 0.00022
1805 55.91710 4203.00508 4342.81006 0.00023
1806 55.94310 4084.96152 4186.08984 0.00024
1807 55.96910 4017.47237 4160.25000 0.00024
1808 55.99510 4002.56434 4199.04053 0.00024
1809 56.02110 4047.37076 4199.04053 0.00024
1810 56.04710 4170.70184 4329.64063 0.00023
1811 56.07310 4395.83491 4596.84033 0.00022
1812 56.09910 4735.60724 4914.00977 0.00020
1813 56.12510 5178.75861 5270.75977 0.00019
1814 56.15110 5681.76807 5745.64063 0.00017
1815 56.17710 6169.25559 6146.56006 0.00016
1816 56.20310 6548.05540 6528.64063 0.00015
1817 56.22910 6737.02863 6756.83936 0.00015
1818 56.25510 6701.08549 6609.69043 0.00015
1819 56.28110 6467.57244 6400.00000 0.00016
1820 56.30710 6112.06342 6068.41016 0.00016
1821 56.33310 5718.39622 5776.00000 0.00017
1822 56.35910 5338.95948 5580.08936 0.00018
1823 56.38510 4985.00943 5198.40967 0.00019
1824 56.41110 4646.15013 4872.04053 0.00021
1825 56.43710 4315.17317 4448.88965 0.00022
1826 56.46310 3999.53932 4057.69019 0.00025
1827 56.48910 3716.60504 3844.00000 0.00026
1828 56.51510 3481.97151 3624.04004 0.00028
1829 56.54110 3301.74952 3433.95972 0.00029
1830 56.56710 3172.11669 3283.28979 0.00030
1831 56.59310 3083.44219 3158.44019 0.00032
1832 56.61910 3025.11501 3102.48999 0.00032
1833 56.64510 2988.65553 3214.89014 0.00031
1834 56.67110 2968.47298 3124.81006 0.00032
1835 56.69710 2961.08320 3080.25000 0.00032
1836 56.72310 2964.10803 3047.04004 0.00033
1837 56.74910 2975.80977 3025.00000 0.00033
1838 56.77510 2995.14443 3124.81006 0.00032
1839 56.80110 3021.94251 3203.55981 0.00031
1840 56.82710 3056.74528 3260.40991 0.00031
1841 56.85310 3100.08799 3226.23999 0.00031
1842 56.87910 3151.76015 3306.25000 0.00030
1843 56.90510 3211.33260 3457.43994 0.00029
1844 56.93110 3280.91667 3445.69019 0.00029
1845 56.95710 3369.42688 3445.69019 0.00029
1846 56.98310 3495.63004 3552.15991 0.00028
1847 57.00910 3686.82427 3769.96021 0.00027
1848 57.03510 3972.17907 4032.25000 0.00025
1849 57.06110 4371.97287 4395.69043 0.00023
1850 57.08710 4884.33247 4942.09033 0.00020
1851 57.11310 5473.22386 5580.08936 0.00018
1852 57.13910 6066.69750 6336.15967 0.00016
1853 57.16510 6575.74445 6855.84033 0.00015
1854 57.19110 6933.93993 7123.36035 0.00014
1855 57.21710 7136.37874 7208.01025 0.00014
1856 57.24310 7239.50941 7242.00977 0.00014
1857 57.26910 7308.52712 7293.16016 0.00014
1858 57.29510 7361.13895 7361.64063 0.00014
1859 57.32110 7365.31230 7208.01025 0.00014
1860 57.34710 7285.21495 7242.00977 0.00014
1861 57.37310 7122.51314 7225.00000 0.00014
1862 57.39910 6910.80412 6988.95996 0.00014
1863 57.42510 6675.65955 6577.20996 0.00015
1864 57.45110 6410.26145 6416.00977 0.00016
1865 57.47710 6091.26570 6177.95996 0.00016
1866 57.50310 5712.52266 5791.20996 0.00017
1867 57.52910 5299.59120 5535.36035 0.00018
1868 57.55510 4893.90556 5026.81006 0.00020
1869 57.58110 4527.78255 4761.00000 0.00021
1870 57.60710 4212.66741 4408.95996 0.00023
1871 57.63310 3943.56777 4251.03955 0.00024
1872 57.65910 3710.56354 3844.00000 0.00026
1873 57.68510 3507.42037 3721.00000 0.00027
1874 57.71110 3333.13040 3504.64014 0.00029
1875 57.73710 3189.12014 3317.75977 0.00030
1876 57.76310 3076.19039 3169.68994 0.00032
1877 57.78910 2992.92428 3113.63989 0.00032
1878 57.81510 2935.71482 3003.03979 0.00033
1879 57.84110 2899.88606 2981.15991 0.00034
1880 57.86710 2881.07736 2937.64014 0.00034
1881 57.89310 2876.30012 2916.00000 0.00034
1882 57.91910 2884.51061 2959.36011 0.00034
1883 57.94510 2906.74443 2883.69019 0.00035
1884 57.97110 2945.82622 2926.80981 0.00034
1885 57.99710 3005.44912 3003.03979 0.00033
1886 58.02310 3088.30144 3113.63989 0.00032
1887 58.04910 3193.28001 3169.68994 0.00032
1888 58.07510 3312.72859 3294.76025 0.00030
1889 58.10110 3431.84486 3422.25000 0.00029
1890 58.12710 3532.54555 3504.64014 0.00029
1891 58.15310 3601.96108 3636.08984 0.00028
1892 58.17910 3641.37887 3600.00000 0.00028
1893 58.20510 3667.55912 3552.15991 0.00028
1894 58.23110 3701.97802 3612.00977 0.00028
1895 58.25710 3755.61709 3757.68994 0.00027
1896 58.28310 3821.64675 3868.84009 0.00026
1897 58.30910 3879.83412 3981.60986 0.00025
1898 58.33510 3908.12723 4070.43994 0.00025
1899 58.36110 3893.69245 4044.95972 0.00025
1900 58.38710 3836.86001 3918.75977 0.00026
1901 58.41310 3747.72693 3819.23999 0.00026
1902 58.43910 3640.80067 3721.00000 0.00027
1903 58.46510 3530.53106 3600.00000 0.00028
1904 58.49110 3427.24617 3528.36011 0.00028
1905 58.51710 3335.33467 3445.69019 0.00029
1906 58.54310 3255.06395 3352.41016 0.00030
1907 58.56910 3185.88568 3214.89014 0.00031
1908 58.59510 3128.91980 3124.81006 0.00032
1909 58.62110 3087.69612 3091.35986 0.00032
1910 58.64710 3067.02241 3058.08984 0.00033
1911 58.67310 3070.89503 3058.08984 0.00033
1912 58.69910 3100.61703 3036.00977 0.00033
1913 58.72510 3153.53623 3091.35986 0.00032
1914 58.75110 3222.57246 3136.00000 0.00032
1915 58.77710 3296.96450 3158.44019 0.00032
1916 58.80310 3364.61098 3226.23999 0.00031
1917 58.82910 3415.53971 3329.29004 0.00030
1918 58.85510 3444.68122 3260.40991 0.00031
1919 58.88110 3451.95661 3306.25000 0.00030
1920 58.90710 3439.74042 3387.23999 0.00030
1921 58.93310 3410.18994 3352.41016 0.00030
1922 58.95910 3365.10240 3340.83984 0.00030
1923 58.98510 3307.98674 3237.61011 0.00031
1924 59.01110 3245.05214 3169.68994 0.00032
1925 59.03710 3183.49971 3147.20972 0.00032
1926 59.06310 3129.12923 3080.25000 0.00032
1927 59.08910 3085.44156 3091.35986 0.00032
1928 59.11510 3054.34377 3113.63989 0.00032
1929 59.14110 3037.34130 3091.35986 0.00032
1930 59.16710 3035.99014 2959.36011 0.00034
1931 59.19310 3051.23782 2937.64014 0.00034
1932 59.21910 3082.53223 3069.16016 0.00033
1933 59.24510 3128.02985 3214.89014 0.00031
1934 59.27110 3186.62549 3136.00000 0.00032
1935 59.29710 3261.43703 3214.89014 0.00031
1936 59.32310 3363.02587 3283.28979 0.00030
1937 59.34910 3509.53519 3481.00000 0.00029
1938 59.37510 3721.71227 3648.16016 0.00027
1939 59.40110 4013.69354 4006.88989 0.00025
1940 59.42710 4382.52075 4303.35986 0.00023
1941 59.45310 4799.61110 4651.23975 0.00021
1942 59.47910 5208.86394 4942.09033 0.00020
1943 59.50510 5537.13069 5155.24023 0.00019
1944 59.53110 5718.94366 5387.56006 0.00019
1945 59.55710 5726.88744 5343.60986 0.00019
1946 59.58310 5587.17984 5140.88965 0.00019
1947 59.60910 5363.18508 5083.69043 0.00020
1948 59.63510 5116.65203 4984.35986 0.00020
1949 59.66110 4878.95885 4984.35986 0.00020
1950 59.68710 4651.06411 4664.89063 0.00021
1951 59.71310 4422.71782 4489.00000 0.00022
1952 59.73910 4191.42229 4238.00977 0.00024
1953 59.76510 3968.67715 4019.56030 0.00025
1954 59.79110 3774.04059 3769.96021 0.00027
1955 59.81710 3626.20444 3660.25000 0.00027
1956 59.84310 3538.40305 3492.80981 0.00029
1957 59.86910 3518.65031 3528.36011 0.00028
1958 59.89510 3571.30477 3600.00000 0.00028
1959 59.92110 3696.53756 3648.16016 0.00027
1960 59.94710 3886.41231 3918.75977 0.00026
1961 59.97310 4119.48142 4019.56030 0.00025
1962 59.99910 4358.86637 4395.69043 0.00023
1963 60.02510 4558.77169 4502.40967 0.00022
1964 60.05110 4679.80905 4624.00000 0.00022
1965 60.07710 4705.86944 4664.89063 0.00021
1966 60.10310 4649.15685 4747.21045 0.00021
1967 60.12910 4537.27833 4489.00000 0.00022
1968 60.15510 4395.50591 4448.88965 0.00022
1969 60.18110 4239.14247 4251.03955 0.00024
1970 60.20710 4074.86831 4173.15967 0.00024
1971 60.23310 3905.45487 4070.43994 0.00025
1972 60.25910 3734.78120 3794.55981 0.00026
1973 60.28510 3569.59613 3672.35986 0.00027
1974 60.31110 3417.71578 3564.09009 0.00028
1975 60.33710 3285.98623 3387.23999 0.00030
1976 60.36310 3179.42796 3214.89014 0.00031
1977 60.38910 3100.82429 3091.35986 0.00032
1978 60.41510 3050.55666 3091.35986 0.00032
1979 60.44110 3026.72401 2992.09009 0.00033
1980 60.46710 3025.35892 3014.01025 0.00033
1981 60.49310 3040.79075 3058.08984 0.00033
1982 60.51910 3066.31857 3003.03979 0.00033
1983 60.54510 3095.08984 3058.08984 0.00033
1984 60.57110 3120.82541 3091.35986 0.00032
1985 60.59710 3138.22759 3124.81006 0.00032
1986 60.62310 3143.71772 3180.96021 0.00031
1987 60.64910 3137.08790 3192.25000 0.00031
1988 60.67510 3122.80590 3158.44019 0.00032
1989 60.70110 3108.92795 3180.96021 0.00031
1990 60.72710 3103.88056 3124.81006 0.00032
1991 60.75310 3113.49319 3113.63989 0.00032
1992 60.77910 3139.63101 3203.55981 0.00031
1993 60.80510 3180.01537 3237.61011 0.00031
1994 60.83110 3228.56835 3237.61011 0.00031
1995 60.85710 3276.22665 3294.76025 0.00030
1996 60.88310 3312.85912 3294.76025 0.00030
1997 60.90910 3330.89433 3387.23999 0.00030
1998 60.93510 3329.66354 3352.41016 0.00030
1999 60.96110 3317.24248 3283.28979 0.00030
2000 60.98710 3307.40104 3329.29004 0.00030
2001 61.01310 3314.12340 3340.83984 0.00030
2002 61.03910 3348.33567 3375.60986 0.00030
2003 61.06510 3417.76150 3445.69019 0.00029
2004 61.09110 3527.34605 3552.15991 0.00028
2005 61.11710 3677.89674 3660.25000 0.00027
2006 61.14310 3862.75077 3831.61011 0.00026
2007 61.16910 4064.75562 4057.69019 0.00025
2008 61.19510 4257.29979 4290.25000 0.00023
2009 61.22110 4411.69911 4395.69043 0.00023
2010 61.24710 4508.87441 4435.55957 0.00023
2011 61.27310 4548.18208 4502.40967 0.00022
2012 61.29910 4545.33984 4475.61035 0.00022
2013 61.32510 4519.87633 4502.40967 0.00022
2014 61.35110 4483.18824 4395.69043 0.00023
2015 61.37710 4436.19550 4329.64063 0.00023
2016 61.40310 4375.92053 4277.16016 0.00023
2017 61.42910 4305.35925 4238.00977 0.00024
2018 61.45510 4238.37929 4225.00000 0.00024
2019 61.48110 4193.83070 4238.00977 0.00024
2020 61.50710 4183.55781 4316.48975 0.00023
2021 61.53310 4204.17218 4342.81006 0.00023
2022 61.55910 4237.19114 4395.69043 0.00023
2023 61.58510 4256.88687 4448.88965 0.00022
2024 61.61110 4242.52049 4369.20996 0.00023
2025 61.63710 4189.42417 4356.00000 0.00023
2026 61.66310 4112.80258 4238.00977 0.00024
2027 61.68910 4040.77049 4134.49023 0.00024
2028 61.71510 4000.23838 4057.69019 0.00025
2029 61.74110 4005.66139 4134.49023 0.00024
2030 61.76710 4057.44519 4108.80957 0.00024
2031 61.79310 4148.25273 4160.25000 0.00024
2032 61.81910 4271.33514 4316.48975 0.00023
2033 61.84510 4425.12788 4422.25000 0.00023
2034 61.87110 4610.53289 4475.61035 0.00022
2035 61.89710 4821.59931 4733.44043 0.00021
2036 61.92310 5035.84926 4900.00000 0.00020
2037 61.94910 5213.44351 4956.16016 0.00020
2038 61.97510 5310.15347 5041.00000 0.00020
2039 62.00110 5299.38992 5041.00000 0.00020
2040 62.02710 5189.14141 5083.69043 0.00020
2041 62.05310 5018.32018 4942.09033 0.00020
2042 62.07910 4832.51939 4664.89063 0.00021
2043 62.10510 4659.11676 4637.60986 0.00022
2044 62.13110 4499.63932 4475.61035 0.00022
2045 62.15710 4339.29311 4329.64063 0.00023
2046 62.18310 4163.43256 4173.15967 0.00024
2047 62.20910 3970.10820 3918.75977 0.00026
2048 62.23510 3771.68202 3893.76025 0.00026
2049 62.26110 3586.76402 3648.16016 0.00027
2050 62.28710 3430.77087 3504.64014 0.00029
2051 62.31310 3311.78541 3271.84009 0.00031
2052 62.33910 3231.92434 3283.28979 0.00030
2053 62.36510 3191.27010 3113.63989 0.00032
2054 62.39110 3191.59586 3249.00000 0.00031
2055 62.41710 3238.07535 3226.23999 0.00031
2056 62.44310 3338.37643 3249.00000 0.00031
2057 62.46910 3499.49562 3492.80981 0.00029
2058 62.49510 3723.10623 3624.04004 0.00028
2059 62.52110 4000.57753 3868.84009 0.00026
2060 62.54710 4309.71526 4186.08984 0.00024
2061 62.57310 4615.76437 4489.00000 0.00022
2062 62.59910 4878.19839 4900.00000 0.00020
2063 62.62510 5061.90670 5112.25000 0.00020
2064 62.65110 5147.27850 5402.25000 0.00019
2065 62.67710 5133.06557 5169.61035 0.00019
2066 62.70310 5032.95498 4998.48975 0.00020
2067 62.72910 4871.93570 4788.63965 0.00021
2068 62.75510 4682.03900 4569.75977 0.00022
2069 62.78110 4493.44914 4489.00000 0.00022
2070 62.80710 4325.69385 4356.00000 0.00023
2071 62.83310 4185.64097 4303.35986 0.00023
2072 62.85910 4070.77274 4303.35986 0.00023
2073 62.88510 3973.67661 4147.36035 0.00024
2074 62.91110 3885.97456 4147.36035 0.00024
2075 62.93710 3800.86087 3969.00000 0.00025
2076 62.96310 3714.38243 3831.61011 0.00026
2077 62.98910 3626.50742 3721.00000 0.00027
2078 63.01510 3541.80773 3648.16016 0.00027
2079 63.04110 3468.24430 3612.00977 0.00028
2080 63.06710 3413.76293 3576.03979 0.00028
2081 63.09310 3382.57315 3540.25000 0.00028
2082 63.11910 3373.53495 3540.25000 0.00028
2083 63.14510 3381.63807 3600.00000 0.00028
2084 63.17110 3401.50977 3588.01025 0.00028
2085 63.19710 3430.65880 3564.09009 0.00028
2086 63.22310 3470.36240 3445.69019 0.00029
2087 63.24910 3523.88714 3492.80981 0.00029
2088 63.27510 3594.13933 3600.00000 0.00028
2089 63.30110 3682.99017 3708.81030 0.00027
2090 63.32710 3791.92112 3708.81030 0.00027
2091 63.35310 3921.56010 3844.00000 0.00026
2092 63.37910 4068.46928 4006.88989 0.00025
2093 63.40510 4220.77375 4173.15967 0.00024
2094 63.43110 4356.89139 4316.48975 0.00023
2095 63.45710 4451.01636 4356.00000 0.00023
2096 63.48310 4485.02128 4422.25000 0.00023
2097 63.50910 4460.54621 4435.55957 0.00023
2098 63.53510 4401.03069 4316.48975 0.00023
2099 63.56110 4339.29011 4238.00977 0.00024
2100 63.58710 4300.36105 4264.09033 0.00023
2101 63.61310 4292.80790 4290.25000 0.00023
2102 63.63910 4311.18139 4342.81006 0.00023
2103 63.66510 4344.73511 4382.43945 0.00023
2104 63.69110 4386.31741 4382.43945 0.00023
2105 63.71710 4436.61108 4448.88965 0.00022
2106 63.74310 4502.48224 4502.40967 0.00022
2107 63.76910 4591.28625 4502.40967 0.00022
2108 63.79510 4703.76648 4556.25000 0.00022
2109 63.82110 4828.99758 4692.25000 0.00021
2110 63.84710 4944.42411 4788.63965 0.00021
2111 63.87310 5021.66591 4816.36035 0.00021
2112 63.89910 5037.02713 4942.09033 0.00020
2113 63.92510 4982.82911 5026.81006 0.00020
2114 63.95110 4872.59585 4914.00977 0.00020
2115 63.97710 4735.35495 4774.80957 0.00021
2116 64.00310 4601.64287 4569.75977 0.00022
2117 64.02910 4490.15336 4422.25000 0.00023
2118 64.05510 4402.65213 4382.43945 0.00023
2119 64.08110 4327.89734 4369.20996 0.00023
2120 64.10710 4250.77621 4290.25000 0.00023
2121 64.13310 4161.47297 4199.04053 0.00024
2122 64.15910 4060.11799 4108.80957 0.00024
2123 64.18510 3955.28758 3969.00000 0.00025
2124 64.21110 3859.08008 3831.61011 0.00026
2125 64.23710 3783.29112 3769.96021 0.00027
2126 64.26310 3738.01514 3769.96021 0.00027
2127 64.28910 3730.38625 3745.44019 0.00027
2128 64.31510 3761.82232 3868.84009 0.00026
2129 64.34110 3825.00215 3881.28979 0.00026
2130 64.36710 3902.81172 3906.25000 0.00026
2131 64.39310 3970.87721 3956.41016 0.00025
2132 64.41910 4004.33332 4070.43994 0.00025
2133 64.44510 3987.30689 4070.43994 0.00025
2134 64.47110 3920.49368 3868.84009 0.00026
2135 64.49710 3821.04520 3806.89014 0.00026
2136 64.52310 3713.47699 3769.96021 0.00027
2137 64.54910 3618.04532 3696.63989 0.00027
2138 64.57510 3544.39431 3552.15991 0.00028
2139 64.60110 3492.22680 3588.01025 0.00028
2140 64.62710 3455.94256 3433.95972 0.00029
2141 64.65310 3429.35026 3352.41016 0.00030
2142 64.67910 3407.85898 3329.29004 0.00030
2143 64.70510 3387.96507 3329.29004 0.00030
2144 64.73110 3365.92997 3364.00000 0.00030
2145 64.75710 3337.73842 3398.88989 0.00029
2146 64.78310 3300.87381 3271.84009 0.00031
2147 64.80910 3256.45572 3169.68994 0.00032
2148 64.83510 3209.40627 3180.96021 0.00031
2149 64.86110 3165.95813 3014.01025 0.00033
2150 64.88710 3130.56915 3158.44019 0.00032
2151 64.91310 3104.64586 3147.20972 0.00032
2152 64.93910 3087.31676 3102.48999 0.00032
2153 64.96510 3076.85163 3036.00977 0.00033
2154 64.99110 3071.35894 3036.00977 0.00033
2155 65.01710 3068.48333 3058.08984 0.00033
2156 65.04310 3064.93336 2992.09009 0.00033
2157 65.06910 3056.92081 3102.48999 0.00032
2158 65.09510 3041.86608 2992.09009 0.00033
2159 65.12110 3020.43463 3003.03979 0.00033
2160 65.14710 2997.02824 2970.25000 0.00034
2161 65.17310 2977.69870 3014.01025 0.00033
2162 65.19910 2966.96459 2916.00000 0.00034
2163 65.22510 2965.91898 2862.25000 0.00035
2164 65.25110 2972.41007 2992.09009 0.00033
2165 65.27710 2982.68582 2926.80981 0.00034
2166 65.30310 2993.55150 2926.80981 0.00034
2167 65.32910 3004.04140 3036.00977 0.00033
2168 65.35510 3015.78247 3025.00000 0.00033
2169 65.38110 3031.91965 3014.01025 0.00033
2170 65.40710 3055.20229 3047.04004 0.00033
2171 65.43310 3085.91578 3025.00000 0.00033
2172 65.45910 3120.32404 3124.81006 0.00032
2173 65.48510 3150.65740 3306.25000 0.00030
2174 65.51110 3167.38784 3375.60986 0.00030
2175 65.53710 3163.19333 3364.00000 0.00030
2176 65.56310 3136.65777 3283.28979 0.00030
2177 65.58910 3093.23548 3080.25000 0.00032
2178 65.61510 3042.41593 2948.48999 0.00034
2179 65.64110 2993.06901 2959.36011 0.00034
2180 65.66710 2950.24153 2894.43994 0.00035
2181 65.69310 2914.83327 3014.01025 0.00033
2182 65.71910 2885.38307 3014.01025 0.00033
2183 65.74510 2860.44621 2905.21021 0.00034
2184 65.77110 2840.25320 2883.69019 0.00035
2185 65.79710 2827.04332 2840.88989 0.00035
2186 65.82310 2824.34233 2851.56006 0.00035
2187 65.84910 2835.86711 2809.00000 0.00036
2188 65.87510 2864.48362 2830.23999 0.00035
2189 65.90110 2911.26577 2872.95972 0.00035
2190 65.92710 2974.69672 2872.95972 0.00035
2191 65.95310 3050.29099 2894.43994 0.00035
2192 65.97910 3131.04099 3036.00977 0.00033
2193 66.00510 3208.88650 3080.25000 0.00032
2194 66.03110 3276.90777 3147.20972 0.00032
2195 66.05710 3331.21859 3169.68994 0.00032
2196 66.08310 3371.11591 3260.40991 0.00031
2197 66.10910 3397.32320 3294.76025 0.00030
2198 66.13510 3410.55574 3214.89014 0.00031
2199 66.16110 3412.41897 3317.75977 0.00030
2200 66.18710 3407.48946 3364.00000 0.00030
2201 66.21310 3403.67258 3306.25000 0.00030
2202 66.23910 3409.72114 3364.00000 0.00030
2203 66.26510 3431.62901 3352.41016 0.00030
2204 66.29110 3470.10483 3375.60986 0.00030
2205 66.31710 3520.05072 3469.21021 0.00029
2206 66.34310 3572.07037 3504.64014 0.00029
2207 66.36910 3615.39308 3576.03979 0.00028
2208 66.39510 3641.02862 3540.25000 0.00028
2209 66.42110 3643.95306 3504.64014 0.00029
2210 66.44710 3623.67530 3528.36011 0.00028
2211 66.47310 3583.45455 3481.00000 0.00029
2212 66.49910 3529.45729 3469.21021 0.00029
2213 66.52510 3470.53039 3387.23999 0.00030
2214 66.55110 3417.42427 3306.25000 0.00030
2215 66.57710 3380.81442 3306.25000 0.00030
2216 66.60310 3369.42526 3260.40991 0.00031
2217 66.62910 3389.20566 3294.76025 0.00030
2218 66.65510 3442.86561 3340.83984 0.00030
2219 66.68110 3528.89808 3375.60986 0.00030
2220 66.70710 3640.07525 3576.03979 0.00028
2221 66.73310 3762.21340 3696.63989 0.00027
2222 66.75910 3874.67383 3831.61011 0.00026
2223 66.78510 3954.12349 4057.69019 0.00025
2224 66.81110 3981.53781 4044.95972 0.00025
2225 66.83710 3949.68568 4044.95972 0.00025
2226 66.86310 3866.79399 3856.40991 0.00026
2227 66.88910 3753.27898 3745.44019 0.00027
2228 66.91510 3632.31799 3636.08984 0.00028
2229 66.94110 3520.20534 3445.69019 0.00029
2230 66.96710 3422.56133 3352.41016 0.00030
2231 66.99310 3336.77619 3375.60986 0.00030
2232 67.01910 3257.34352 3294.76025 0.00030
2233 67.04510 3180.69044 3180.96021 0.00031
2234 67.07110 3107.36256 3091.35986 0.00032
2235 67.09710 3041.16320 2959.36011 0.00034
2236 67.12310 2986.56916 2862.25000 0.00035
2237 67.14910 2946.38306 2862.25000 0.00035
2238 67.17510 2920.73964 2916.00000 0.00034
2239 67.20110 2907.50555 2937.64014 0.00034
2240 67.22710 2903.62439 2851.56006 0.00035
2241 67.25310 2906.77387 2894.43994 0.00035
2242 67.27910 2916.53688 2937.64014 0.00034
2243 67.30510 2934.50749 2992.09009 0.00033
2244 67.33110 2963.53825 3047.04004 0.00033
2245 67.35710 3006.84376 3147.20972 0.00032
2246 67.38310 3067.17924 3091.35986 0.00032
2247 67.40910 3145.74433 3014.01025 0.00033
2248 67.43510 3240.84828 3260.40991 0.00031
2249 67.46110 3347.09364 3260.40991 0.00031
2250 67.48710 3455.91917 3410.56006 0.00029
2251 67.51310 3557.75892 3469.21021 0.00029
2252 67.53910 3645.24641 3410.56006 0.00029
2253 67.56510 3715.78119 3469.21021 0.00029
2254 67.59110 3771.19490 3672.35986 0.00027
2255 67.61710 3814.26122 3660.25000 0.00027
2256 67.64310 3845.33907 3672.35986 0.00027
2257 67.66910 3862.35245 3831.61011 0.00026
2258 67.69510 3863.30146 3844.00000 0.00026
2259 67.72110 3848.08358 3906.25000 0.00026
2260 67.74710 3818.03948 3831.61011 0.00026
2261 67.77310 3774.57569 3721.00000 0.00027
2262 67.79910 3718.59054 3733.20972 0.00027
2263 67.82510 3650.98512 3624.04004 0.00028
2264 67.85110 3573.71378 3564.09009 0.00028
2265 67.87710 3490.26930 3492.80981 0.00029
2266 67.90310 3404.83996 3283.28979 0.00030
2267 67.92910 3321.09469 3226.23999 0.00031
2268 67.95510 3241.98455 3214.89014 0.00031
2269 67.98110 3170.43538 3169.68994 0.00032
2270 68.00710 3109.84745 3147.20972 0.00032
2271 68.03310 3063.87358 3025.00000 0.00033
2272 68.05910 3035.72067 3036.00977 0.00033
2273 68.08510 3027.25490 2970.25000 0.00034
2274 68.11110 3038.08633 2970.25000 0.00034
2275 68.13710 3064.92956 3025.00000 0.00033
2276 68.16310 3101.54509 2992.09009 0.00033
2277 68.18910 3139.46962 3091.35986 0.00032
2278 68.21510 3169.67774 3069.16016 0.00033
2279 68.24110 3185.04762 3014.01025 0.00033
2280 68.26710 3182.79661 3147.20972 0.00032
2281 68.29310 3165.37822 3147.20972 0.00032
2282 68.31910 3138.89714 3102.48999 0.00032
2283 68.34510 3110.05160 3102.48999 0.00032
2284 68.37110 3083.86758 3102.48999 0.00032
2285 68.39710 3063.42719 2970.25000 0.00034
2286 68.42310 3050.95309 2948.48999 0.00034
2287 68.44910 3049.04742 3058.08984 0.00033
2288 68.47510 3061.33401 3102.48999 0.00032
2289 68.50110 3092.24116 3025.00000 0.00033
2290 68.52710 3145.98054 3025.00000 0.00033
2291 68.55310 3225.06019 3025.00000 0.00033
2292 68.57910 3328.78599 3136.00000 0.00032
2293 68.60510 3452.11203 3271.84009 0.00031
2294 68.63110 3585.13477 3410.56006 0.00029
2295 68.65710 3713.59812 3588.01025 0.00028
2296 68.68310 3820.80471 3660.25000 0.00027
2297 68.70910 3891.26502 3696.63989 0.00027
2298 68.73510 3915.72334 3721.00000 0.00027
2299 68.76110 3895.29227 3745.44019 0.00027
2300 68.78710 3841.26439 3769.96021 0.00027
2301 68.81310 3769.84306 3684.48999 0.00027
2302 68.83910 3695.39323 3624.04004 0.00028
2303 68.86510 3626.25391 3612.00977 0.00028
2304 68.89110 3564.19735 3516.48999 0.00028
2305 68.91710 3506.68567 3410.56006 0.00029
2306 68.94310 3450.43005 3387.23999 0.00030
2307 68.96910 3394.27223 3352.41016 0.00030
2308 68.99510 3339.77971 3329.29004 0.00030
2309 69.02110 3289.65575 3283.28979 0.00030
2310 69.04710 3245.80870 3169.68994 0.00032
2311 69.07310 3208.78900 3113.63989 0.00032
2312 69.09910 3178.80563 3147.20972 0.00032
2313 69.12510 3157.33593 3091.35986 0.00032
2314 69.15110 3147.90261 3014.01025 0.00033
2315 69.17710 3155.14600 3047.04004 0.00033
2316 69.20310 3182.67391 3058.08984 0.00033
2317 69.22910 3230.99415 3158.44019 0.00032
2318 69.25510 3296.45587 3214.89014 0.00031
2319 69.28110 3371.39329 3226.23999 0.00031
2320 69.30710 3445.33309 3306.25000 0.00030
2321 69.33310 3507.14498 3375.60986 0.00030
2322 69.35910 3547.94048 3387.23999 0.00030
2323 69.38510 3563.96312 3457.43994 0.00029
2324 69.41110 3557.81253 3410.56006 0.00029
2325 69.43710 3536.54631 3492.80981 0.00029
2326 69.46310 3507.56852 3422.25000 0.00029
2327 69.48910 3475.37744 3352.41016 0.00030
2328 69.51510 3441.23160 3375.60986 0.00030
2329 69.54110 3405.05584 3352.41016 0.00030
2330 69.56710 3367.50907 3294.76025 0.00030
2331 69.59310 3330.68877 3283.28979 0.00030
2332 69.61910 3297.47941 3317.75977 0.00030
2333 69.64510 3270.47875 3340.83984 0.00030
2334 69.67110 3251.22209 3317.75977 0.00030
2335 69.69710 3239.88231 3398.88989 0.00029
2336 69.72310 3235.22955 3422.25000 0.00029
2337 69.74910 3234.79565 3329.29004 0.00030
2338 69.77510 3235.58025 3271.84009 0.00031
2339 69.80110 3235.37228 3410.56006 0.00029
2340 69.82710 3234.05839 3214.89014 0.00031
2341 69.85310 3234.01278 3203.55981 0.00031
2342 69.87910 3239.18755 3249.00000 0.00031
2343 69.90510 3253.46909 3306.25000 0.00030
2344 69.93110 3279.39526 3364.00000 0.00030
2345 69.95710 3318.01037 3422.25000 0.00029
2346 69.98310 3369.64987 3398.88989 0.00029
2347 70.00910 3434.46895 3398.88989 0.00029
2348 70.03510 3511.69276 3457.43994 0.00029
2349 70.06110 3597.87157 3600.00000 0.00028
2350 70.08710 3685.43455 3600.00000 0.00028
2351 70.11310 3762.89709 3782.25000 0.00026
2352 70.13910 3817.43080 3782.25000 0.00026
2353 70.16510 3839.18185 3819.23999 0.00026
2354 70.19110 3825.36582 3844.00000 0.00026
2355 70.21710 3781.81946 3782.25000 0.00026
2356 70.24310 3720.92424 3708.81030 0.00027
2357 70.26910 3656.94481 3782.25000 0.00026
2358 70.29510 3601.24681 3469.21021 0.00029
2359 70.32110 3559.72015 3684.48999 0.00027
2360 70.34710 3533.24765 3540.25000 0.00028
2361 70.37310 3520.27711 3516.48999 0.00028
2362 70.39910 3519.68282 3445.69019 0.00029
2363 70.42510 3532.25085 3552.15991 0.00028
2364 70.45110 3560.06680 3552.15991 0.00028
2365 70.47710 3604.55253 3540.25000 0.00028
2366 70.50310 3664.72876 3576.03979 0.00028
2367 70.52910 3736.75227 3624.04004 0.00028
2368 70.55510 3814.61955 3672.35986 0.00027
2369 70.58110 3891.19420 3684.48999 0.00027
2370 70.60710 3959.00118 3769.96021 0.00027
2371 70.63310 4010.97900 3831.61011 0.00026
2372 70.65910 4041.50838 3831.61011 0.00026
2373 70.68510 4047.47242 3856.40991 0.00026
2374 70.71110 4028.63432 3931.29004 0.00025
2375 70.73710 3987.02261 3868.84009 0.00026
2376 70.76310 3925.90660 3844.00000 0.00026
2377 70.78910 3848.90509 3794.55981 0.00026
2378 70.81510 3759.36877 3819.23999 0.00026
2379 70.84110 3660.48499 3648.16016 0.00027
2380 70.86710 3556.13229 3552.15991 0.00028
2381 70.89310 3451.31111 3457.43994 0.00029
2382 70.91910 3351.37757 3352.41016 0.00030
2383 70.94510 3260.85352 3340.83984 0.00030
2384 70.97110 3182.86807 3214.89014 0.00031
2385 70.99710 3119.38212 3180.96021 0.00031
2386 71.02310 3071.78374 3091.35986 0.00032
2387 71.04910 3041.40798 3025.00000 0.00033
2388 71.07510 3029.51663 2970.25000 0.00034
2389 71.10110 3036.43913 2992.09009 0.00033
2390 71.12710 3060.20465 2992.09009 0.00033
2391 71.15310 3095.54483 2992.09009 0.00033
2392 71.17910 3134.06791 3036.00977 0.00033
2393 71.20510 3165.89078 3058.08984 0.00033
2394 71.23110 3182.43705 3080.25000 0.00032
2395 71.25710 3179.40223 3147.20972 0.00032
2396 71.28310 3158.24746 3158.44019 0.00032
2397 71.30910 3125.16423 3058.08984 0.00033
2398 71.33510 3088.30490 3003.03979 0.00033
2399 71.36110 3055.08307 3036.00977 0.00033
2400 71.38710 3030.64782 2992.09009 0.00033
2401 71.41310 3017.72044 3003.03979 0.00033
2402 71.43910 3017.41795 2959.36011 0.00034
2403 71.46510 3030.24470 2883.69019 0.00035
2404 71.49110 3056.39971 2992.09009 0.00033
2405 71.51710 3095.07591 3069.16016 0.00033
2406 71.54310 3143.29089 3080.25000 0.00032
2407 71.56910 3195.23957 3147.20972 0.00032
2408 71.59510 3242.95330 3180.96021 0.00031
2409 71.62110 3278.49348 3136.00000 0.00032
2410 71.64710 3297.16864 3136.00000 0.00032
2411 71.67310 3300.28810 3203.55981 0.00031
2412 71.69910 3295.27247 3237.61011 0.00031
2413 71.72510 3292.23390 3260.40991 0.00031
2414 71.75110 3299.19828 3260.40991 0.00031
2415 71.77710 3319.09604 3306.25000 0.00030
2416 71.80310 3349.58657 3398.88989 0.00029
2417 71.82910 3384.99519 3387.23999 0.00030
2418 71.85510 3419.14398 3364.00000 0.00030
2419 71.88110 3447.71984 3340.83984 0.00030
2420 71.90710 3469.00434 3317.75977 0.00030
2421 71.93310 3482.88600 3410.56006 0.00029
2422 71.95910 3489.55596 3469.21021 0.00029
2423 71.98510 3489.25677 3433.95972 0.00029
2424 72.01110 3482.84104 3433.95972 0.00029
2425 72.03710 3471.99130 3445.69019 0.00029
2426 72.06310 3458.67669 3433.95972 0.00029
2427 72.08910 3444.26772 3469.21021 0.00029
2428 72.11510 3428.81421 3445.69019 0.00029
2429 72.14110 3410.99171 3469.21021 0.00029
2430 72.16710 3389.00869 3481.00000 0.00029
2431 72.19310 3361.98601 3364.00000 0.00030
2432 72.21910 3330.65007 3180.96021 0.00031
2433 72.24510 3296.61138 3260.40991 0.00031
2434 72.27110 3260.99160 3364.00000 0.00030
2435 72.29710 3223.83903 3283.28979 0.00030
2436 72.32310 3184.88021 3271.84009 0.00031
2437 72.34910 3145.05434 3169.68994 0.00032
2438 72.37510 3107.66978 3069.16016 0.00033
2439 72.40110 3078.19604 3080.25000 0.00032
2440 72.42710 3062.79550 2970.25000 0.00034
2441 72.45310 3066.56673 2937.64014 0.00034
2442 72.47910 3092.27231 2948.48999 0.00034
2443 72.50510 3139.73742 3025.00000 0.00033
2444 72.53110 3205.78878 3147.20972 0.00032
2445 72.55710 3284.53174 3169.68994 0.00032
2446 72.58310 3367.82466 3422.25000 0.00029
2447 72.60910 3445.95918 3528.36011 0.00028
2448 72.63510 3508.78415 3552.15991 0.00028
2449 72.66110 3547.73109 3636.08984 0.00028
2450 72.68710 3558.75807 3769.96021 0.00027
2451 72.71310 3544.83288 3516.48999 0.00028
2452 72.73910 3515.66537 3364.00000 0.00030
2453 72.76510 3483.98025 3398.88989 0.00029
2454 72.79110 3460.64903 3317.75977 0.00030
2455 72.81710 3451.51044 3306.25000 0.00030
2456 72.84310 3456.61850 3481.00000 0.00029
2457 72.86910 3471.39499 3564.09009 0.00028
2458 72.89510 3489.01493 3398.88989 0.00029
2459 72.92110 3503.04007 3481.00000 0.00029
2460 72.94710 3509.12160 3481.00000 0.00029
2461 72.97310 3505.32177 3398.88989 0.00029
2462 72.99910 3491.87682 3317.75977 0.00030
2463 73.02510 3471.35298 3387.23999 0.00030
2464 73.05110 3448.83000 3329.29004 0.00030
2465 73.07710 3431.06061 3260.40991 0.00031
2466 73.10310 3424.52214 3306.25000 0.00030
2467 73.12910 3433.28234 3317.75977 0.00030
2468 73.15510 3457.44677 3249.00000 0.00031
2469 73.18110 3492.53876 3294.76025 0.00030
2470 73.20710 3530.08947 3457.43994 0.00029
2471 73.23310 3559.57542 3552.15991 0.00028
2472 73.25910 3571.39451 3612.00977 0.00028
2473 73.28510 3559.93276 3528.36011 0.00028
2474 73.31110 3525.31809 3445.69019 0.00029
2475 73.33710 3472.86358 3317.75977 0.00030
2476 73.36310 3410.51769 3375.60986 0.00030
2477 73.38910 3345.73405 3283.28979 0.00030
2478 73.41510 3283.24642 3169.68994 0.00032
2479 73.44110 3224.57398 3124.81006 0.00032
2480 73.46710 3169.10971 3058.08984 0.00033
2481 73.49310 3115.81667 3158.44019 0.00032
2482 73.51910 3064.44359 3102.48999 0.00032
2483 73.54510 3015.82389 3047.04004 0.00033
2484 73.57110 2971.54492 2872.95972 0.00035
2485 73.59710 2933.45113 2916.00000 0.00034
2486 73.62310 2903.24452 2872.95972 0.00035
2487 73.64910 2882.29721 2840.88989 0.00035
2488 73.67510 2871.69999 2862.25000 0.00035
2489 73.70110 2872.41293 2840.88989 0.00035
2490 73.72710 2885.26810 2894.43994 0.00035
2491 73.75310 2910.68162 2905.21021 0.00034
2492 73.77910 2948.17801 2916.00000 0.00034
2493 73.80510 2995.89030 3003.03979 0.00033
2494 73.83110 3050.13538 2970.25000 0.00034
2495 73.85710 3105.31079 3003.03979 0.00033
2496 73.88310 3154.57936 3113.63989 0.00032
2497 73.90910 3191.57825 3147.20972 0.00032
2498 73.93510 3212.67310 3147.20972 0.00032
2499 73.96110 3218.56851 3158.44019 0.00032
2500 73.98710 3214.05639 3102.48999 0.00032
2501 74.01310 3205.78686 3091.35986 0.00032
2502 74.03910 3199.30488 3080.25000 0.00032
2503 74.06510 3196.89751 3003.03979 0.00033
2504 74.09110 3197.12834 3025.00000 0.00033
2505 74.11710 3196.05974 3080.25000 0.00032
2506 74.14310 3189.46949 3147.20972 0.00032
2507 74.16910 3175.05758 3113.63989 0.00032
2508 74.19510 3153.69883 3036.00977 0.00033
2509 74.22110 3129.06073 3069.16016 0.00033
2510 74.24710 3105.63977 3069.16016 0.00033
2511 74.27310 3086.36697 3058.08984 0.00033
2512 74.29910 3071.19709 2981.15991 0.00034
2513 74.32510 3057.26147 2883.69019 0.00035
2514 74.35110 3040.34973 2851.56006 0.00035
2515 74.37710 3017.09179 2819.60986 0.00035
2516 74.40310 2986.87615 2894.43994 0.00035
2517 74.42910 2952.37555 2894.43994 0.00035
2518 74.45510 2918.26286 2830.23999 0.00035
2519 74.48110 2889.03087 2862.25000 0.00035
2520 74.50710 2867.28188 2851.56006 0.00035
2521 74.53310 2853.10413 2819.60986 0.00035
2522 74.55910 2844.42595 2830.23999 0.00035
2523 74.58510 2838.02456 2819.60986 0.00035
2524 74.61110 2830.83208 2819.60986 0.00035
2525 74.63710 2821.14426 2819.60986 0.00035
2526 74.66310 2809.32321 2766.75977 0.00036
2527 74.68910 2797.65031 2745.76025 0.00036
2528 74.71510 2789.34728 2683.23999 0.00037
2529 74.74110 2787.31775 2809.00000 0.00036
2530 74.76710 2793.19780 2840.88989 0.00035
2531 74.79310 2806.89700 2809.00000 0.00036
2532 74.81910 2826.59511 2777.29004 0.00036
2533 74.84510 2849.16922 2916.00000 0.00034
2534 74.87110 2870.98466 2916.00000 0.00034
2535 74.89710 2888.81780 2905.21021 0.00034
2536 74.92310 2900.51714 2981.15991 0.00034
2537 74.94910 2905.13741 2937.64014 0.00034
2538 74.97510 2902.70857 2905.21021 0.00034
2539 75.00110 2893.97597 2883.69019 0.00035
2540 75.02710 2880.12948 2894.43994 0.00035
2541 75.05310 2862.41370 2851.56006 0.00035
2542 75.07910 2841.81691 2819.60986 0.00035
2543 75.10510 2819.05370 2735.29004 0.00037
2544 75.13110 2794.68374 2777.29004 0.00036
2545 75.15710 2769.15967 2756.25000 0.00036
2546 75.18310 2742.87711 2724.84009 0.00037
2547 75.20910 2716.32937 2662.55981 0.00038
2548 75.23510 2690.23216 2693.61011 0.00037
2549 75.26110 2665.42162 2672.89014 0.00037
2550 75.28710 2642.56967 2621.44019 0.00038
2551 75.31310 2621.96282 2621.44019 0.00038
2552 75.33910 2603.48986 2662.55981 0.00038
2553 75.36510 2586.81600 2550.25000 0.00039
2554 75.39110 2571.67809 2662.55981 0.00038
2555 75.41710 2558.20417 2540.16016 0.00039
2556 75.44310 2547.08930 2550.25000 0.00039
2557 75.46910 2539.50600 2460.15991 0.00041
2558 75.49510 2536.81446 2510.00977 0.00040
2559 75.52110 2540.25413 2560.35986 0.00039
2560 75.54710 2550.72333 2631.68994 0.00038
2561 75.57310 2568.63456 2590.81006 0.00039
2562 75.59910 2593.80236 2601.00000 0.00038
2563 75.62510 2625.34826 2520.04004 0.00040
2564 75.65110 2661.64654 2641.96021 0.00038
2565 75.67710 2700.37672 2662.55981 0.00038
2566 75.70310 2738.78942 2704.00000 0.00037
2567 75.72910 2774.27387 2735.29004 0.00037
2568 75.75510 2805.12527 2756.25000 0.00036
2569 75.78110 2831.18166 2652.25000 0.00038
2570 75.80710 2854.00153 2735.29004 0.00037
2571 75.83310 2876.52138 2819.60986 0.00035
2572 75.85910 2902.36576 2830.23999 0.00035
2573 75.88510 2935.01341 2851.56006 0.00035
2574 75.91110 2977.04140 2798.41016 0.00036
2575 75.93710 3029.65962 2851.56006 0.00035
2576 75.96310 3092.53762 2992.09009 0.00033
2577 75.98910 3163.78729 2992.09009 0.00033
2578 76.01510 3240.05835 3069.16016 0.00033
2579 76.04110 3316.75518 3260.40991 0.00031
2580 76.06710 3388.35111 3433.95972 0.00029
2581 76.09310 3448.94510 3410.56006 0.00029
2582 76.11910 3493.40072 3528.36011 0.00028
2583 76.14510 3519.01510 3600.00000 0.00028
2584 76.17110 3526.72779 3433.95972 0.00029
2585 76.19710 3520.53202 3387.23999 0.00030
2586 76.22310 3505.00748 3387.23999 0.00030
2587 76.24910 3482.74566 3410.56006 0.00029
2588 76.27510 3453.53970 3352.41016 0.00030
2589 76.30110 3415.59423 3340.83984 0.00030
2590 76.32710 3367.67682 3364.00000 0.00030
2591 76.35310 3310.76648 3352.41016 0.00030
2592 76.37910 3248.29961 3226.23999 0.00031
2593 76.40510 3185.22596 3124.81006 0.00032
2594 76.43110 3126.63807 3091.35986 0.00032
2595 76.45710 3076.53348 3025.00000 0.00033
2596 76.48310 3037.07582 3036.00977 0.00033
2597 76.50910 3008.57132 3058.08984 0.00033
2598 76.53510 2990.04909 3014.01025 0.00033
2599 76.56110 2980.02874 2937.64014 0.00034
2600 76.58710 2977.06187 2872.95972 0.00035
2601 76.61310 2979.91837 2872.95972 0.00035
2602 76.63910 2987.50934 2937.64014 0.00034
2603 76.66510 2998.64976 3003.03979 0.00033
2604 76.69110 3011.71050 3091.35986 0.00032
2605 76.71710 3024.29214 3158.44019 0.00032
2606 76.74310 3033.22984 3169.68994 0.00032
2607 76.76910 3035.12834 3124.81006 0.00032
2608 76.79510 3027.25656 3124.81006 0.00032
2609 76.82110 3008.45044 3158.44019 0.00032
2610 76.84710 2979.73321 3102.48999 0.00032
2611 76.87310 2944.37898 3047.04004 0.00033
2612 76.89910 2907.21163 2992.09009 0.00033
2613 76.92510 2873.31212 2959.36011 0.00034
2614 76.95110 2846.73618 2948.48999 0.00034
2615 76.97710 2829.75101 2905.21021 0.00034
2616 77.00310 2822.63484 2905.21021 0.00034
2617 77.02910 2823.83371 2926.80981 0.00034
2618 77.05510 2830.30721 2894.43994 0.00035
2619 77.08110 2838.00294 2851.56006 0.00035
2620 77.10710 2842.47468 2894.43994 0.00035
2621 77.13310 2839.67595 2948.48999 0.00034
2622 77.15910 2826.91723 2883.69019 0.00035
2623 77.18510 2803.79490 2937.64014 0.00034
2624 77.21110 2772.58755 2830.23999 0.00035
2625 77.23710 2737.63082 2787.83984 0.00036
2626 77.26310 2703.85452 2704.00000 0.00037
2627 77.28910 2675.30608 2704.00000 0.00037
2628 77.31510 2654.32908 2672.89014 0.00037
2629 77.34110 2641.46987 2735.29004 0.00037
2630 77.36710 2635.86335 2724.84009 0.00037
2631 77.39310 2635.81738 2601.00000 0.00038
2632 77.41910 2639.35286 2631.68994 0.00038
2633 77.44510 2644.52619 2641.96021 0.00038
2634 77.47110 2649.50148 2611.20996 0.00038
2635 77.49710 2652.53227 2621.44019 0.00038
2636 77.52310 2652.07615 2745.76025 0.00036
2637 77.54910 2647.14579 2735.29004 0.00037
2638 77.57510 2637.77805 2745.76025 0.00036
2639 77.60110 2625.31994 2756.25000 0.00036
2640 77.62710 2612.25428 2724.84009 0.00037
2641 77.65310 2601.55850 2714.40991 0.00037
2642 77.67910 2595.91761 2652.25000 0.00038
2643 77.70510 2597.13835 2570.48999 0.00039
2644 77.73110 2605.89356 2652.25000 0.00038
2645 77.75710 2621.74388 2683.23999 0.00037
2646 77.78310 2643.33618 2601.00000 0.00038
2647 77.80910 2668.69004 2621.44019 0.00038
2648 77.83510 2695.50791 2766.75977 0.00036
2649 77.86110 2721.48688 2745.76025 0.00036
2650 77.88710 2744.64527 2756.25000 0.00036
2651 77.91310 2763.64636 2851.56006 0.00035
2652 77.93910 2777.98215 2672.89014 0.00037
2653 77.96510 2787.84054 2809.00000 0.00036
2654 77.99110 2793.73253 2735.29004 0.00037
2655 78.01710 2796.25538 2819.60986 0.00035
2656 78.04310 2796.22182 2766.75977 0.00036
2657 78.06910 2794.93608 2735.29004 0.00037
2658 78.09510 2794.22735 2787.83984 0.00036
2659 78.12110 2796.14618 2798.41016 0.00036
2660 78.14710 2802.57462 2798.41016 0.00036
2661 78.17310 2814.97598 2777.29004 0.00036
2662 78.19910 2834.23521 2819.60986 0.00035
2663 78.22510 2860.43971 2766.75977 0.00036
2664 78.25110 2892.62691 2862.25000 0.00035
2665 78.27710 2928.68169 2937.64014 0.00034
2666 78.30310 2965.51453 2948.48999 0.00034
2667 78.32910 2999.48350 2970.25000 0.00034
2668 78.35510 3026.99373 3014.01025 0.00033
2669 78.38110 3045.31191 3014.01025 0.00033
2670 78.40710 3053.57769 2905.21021 0.00034
2671 78.43310 3053.60326 2981.15991 0.00034
2672 78.45910 3049.74531 3069.16016 0.00033
2673 78.48510 3047.59738 2992.09009 0.00033
2674 78.51110 3052.21333 3025.00000 0.00033
2675 78.53710 3066.83282 2981.15991 0.00034
2676 78.56310 3092.41412 3047.04004 0.00033
2677 78.58910 3127.70619 3047.04004 0.00033
2678 78.61510 3169.56240 3147.20972 0.00032
2679 78.64110 3213.45222 3226.23999 0.00031
2680 78.66710 3254.27261 3306.25000 0.00030
2681 78.69310 3287.41123 3375.60986 0.00030
2682 78.71910 3309.77469 3375.60986 0.00030
2683 78.74510 3320.44465 3422.25000 0.00029
2684 78.77110 3320.85400 3422.25000 0.00029
2685 78.79710 3314.56355 3422.25000 0.00029
2686 78.82310 3306.51409 3329.29004 0.00030
2687 78.84910 3301.58562 3375.60986 0.00030
2688 78.87510 3302.95494 3364.00000 0.00030
2689 78.90110 3311.08388 3317.75977 0.00030
2690 78.92710 3323.63347 3340.83984 0.00030
2691 78.95310 3336.11938 3422.25000 0.00029
2692 78.97910 3343.14754 3422.25000 0.00029
2693 79.00510 3340.10123 3387.23999 0.00030
2694 79.03110 3324.83737 3398.88989 0.00029
2695 79.05710 3298.59440 3375.60986 0.00030
2696 79.08310 3265.57076 3306.25000 0.00030
2697 79.10910 3231.52500 3283.28979 0.00030
2698 79.13510 3202.24042 3294.76025 0.00030
2699 79.16110 3182.33036 3237.61011 0.00031
2700 79.18710 3174.47472 3169.68994 0.00032
2701 79.21310 3179.12980 3158.44019 0.00032
2702 79.23910 3194.70102 3192.25000 0.00031
2703 79.26510 3218.08434 3249.00000 0.00031
2704 79.29110 3245.43019 3271.84009 0.00031
2705 79.31710 3272.92074 3271.84009 0.00031
2706 79.34310 3297.32224 3283.28979 0.00030
2707 79.36910 3316.22654 3283.28979 0.00030
2708 79.39510 3328.18277 3329.29004 0.00030
2709 79.42110 3332.95616 3306.25000 0.00030
2710 79.44710 3331.74836 3294.76025 0.00030
2711 79.47310 3326.89412 3340.83984 0.00030
2712 79.49910 3320.86026 3340.83984 0.00030
2713 79.52510 3315.01047 3340.83984 0.00030
2714 79.55110 3308.81072 3306.25000 0.00030
2715 79.57710 3299.83371 3294.76025 0.00030
2716 79.60310 3284.54432 3294.76025 0.00030
2717 79.62910 3259.61472 3375.60986 0.00030
2718 79.65510 3223.37472 3329.29004 0.00030
2719 79.68110 3176.84475 3237.61011 0.00031
2720 79.70710 3123.78168 3113.63989 0.00032
2721 79.73310 3069.62672 3069.16016 0.00033
2722 79.75910 3019.96337 3003.03979 0.00033
2723 79.78510 2979.28257 3003.03979 0.00033
2724 79.81110 2950.39292 3014.01025 0.00033
2725 79.83710 2934.36585 2981.15991 0.00034
2726 79.86310 2930.78174 2959.36011 0.00034
2727 79.88910 2938.10255 2937.64014 0.00034
2728 79.91510 2954.04369 2948.48999 0.00034
2729 79.94110 2975.85529 3113.63989 0.00032
2730 79.96710 3000.51736 3113.63989 0.00032
2731 79.99310 3024.97628 3124.81006 0.00032
2732 80.01910 3046.55905 3069.16016 0.00033
2733 80.04510 3063.54619 3124.81006 0.00032
2734 80.07110 3075.66877 3124.81006 0.00032
2735 80.09710 3084.16124 3158.44019 0.00032
2736 80.12310 3091.12120 3158.44019 0.00032
2737 80.14910 3098.38516 3169.68994 0.00032
2738 80.17510 3106.58949 3113.63989 0.00032
2739 80.20110 3115.02232 3203.55981 0.00031
2740 80.22710 3122.33340 3180.96021 0.00031
2741 80.25310 3127.65902 3180.96021 0.00031
2742 80.27910 3131.51305 3226.23999 0.00031
2743 80.30510 3136.00003 3249.00000 0.00031
2744 80.33110 3144.40547 3214.89014 0.00031
2745 80.35710 3160.44577 3169.68994 0.00032
2746 80.38310 3187.39142 3226.23999 0.00031
2747 80.40910 3227.30460 3317.75977 0.00030
2748 80.43510 3280.62859 3375.60986 0.00030
2749 80.46110 3346.13016 3203.55981 0.00031
2750 80.48710 3420.95279 3329.29004 0.00030
2751 80.51310 3500.57034 3375.60986 0.00030
2752 80.53910 3578.77434 3481.00000 0.00029
2753 80.56510 3648.13993 3492.80981 0.00029
2754 80.59110 3701.28448 3588.01025 0.00028
2755 80.61710 3732.72753 3648.16016 0.00027
2756 80.64310 3740.59740 3624.04004 0.00028
2757 80.66910 3727.14207 3696.63989 0.00027
2758 80.69510 3697.49391 3708.81030 0.00027
2759 80.72110 3657.31092 3624.04004 0.00028
2760 80.74710 3610.63992 3564.09009 0.00028
2761 80.77310 3559.02175 3504.64014 0.00029
2762 80.79910 3502.03478 3410.56006 0.00029
2763 80.82510 3438.72821 3469.21021 0.00029
2764 80.85110 3369.00436 3387.23999 0.00030
2765 80.87710 3294.23302 3329.29004 0.00030
2766 80.90310 3217.02911 3192.25000 0.00031
2767 80.92910 3140.52813 3080.25000 0.00032
2768 80.95510 3067.51725 3113.63989 0.00032
2769 80.98110 2999.76690 3180.96021 0.00031
2770 81.00710 2937.82878 3047.04004 0.00033
2771 81.03310 2881.32734 2926.80981 0.00034
2772 81.05910 2829.50663 2959.36011 0.00034
2773 81.08510 2781.67417 2798.41016 0.00036
2774 81.11110 2737.31954 2745.76025 0.00036
2775 81.13710 2695.99905 2840.88989 0.00035
2776 81.16310 2657.24599 2766.75977 0.00036
2777 81.18910 2620.64407 2662.55981 0.00038
2778 81.21510 2585.99583 2641.96021 0.00038
2779 81.24110 2553.42281 2631.68994 0.00038
2780 81.26710 2523.29986 2683.23999 0.00037
2781 81.29310 2496.08177 2601.00000 0.00038
2782 81.31910 2472.14585 2550.25000 0.00039
2783 81.34510 2451.70854 2530.08984 0.00040
2784 81.37110 2434.81117 2540.16016 0.00039
2785 81.39710 2421.34755 2500.00000 0.00040
2786 81.42310 2411.10889 2540.16016 0.00039
2787 81.44910 2403.84126 2540.16016 0.00039
2788 81.47510 2399.29973 2500.00000 0.00040
2789 81.50110 2397.28135 2490.01025 0.00040
2790 81.52710 2397.65026 2480.04004 0.00040
2791 81.55310 2400.38313 2520.04004 0.00040
2792 81.57910 2405.65060 2520.04004 0.00040
2793 81.60510 2413.91023 2500.00000 0.00040
2794 81.63110 2425.93938 2520.04004 0.00040
2795 81.65710 2442.71340 2490.01025 0.00040
2796 81.68310 2465.09854 2550.25000 0.00039
2797 81.70910 2493.42584 2550.25000 0.00039
2798 81.73510 2527.08042 2611.20996 0.00038
2799 81.76110 2564.25186 2621.44019 0.00038
2800 81.78710 2601.95469 2611.20996 0.00038
2801 81.81310 2636.38260 2662.55981 0.00038
2802 81.83910 2663.58369 2714.40991 0.00037
2803 81.86510 2680.34762 2724.84009 0.00037
2804 81.89110 2685.07881 2714.40991 0.00037
2805 81.91710 2678.30480 2724.84009 0.00037
2806 81.94310 2662.47753 2724.84009 0.00037
2807 81.96910 2641.06045 2672.89014 0.00037
2808 81.99510 2617.38305 2683.23999 0.00037
2809 82.02110 2593.84434 2683.23999 0.00037
2810 82.04710 2571.69516 2601.00000 0.00038
2811 82.07310 2551.27165 2601.00000 0.00038
2812 82.09910 2532.43031 2601.00000 0.00038
2813 82.12510 2514.97129 2560.35986 0.00039
2814 82.15110 2498.92873 2580.63989 0.00039
2815 82.17710 2484.68028 2601.00000 0.00038
2816 82.20310 2472.86429 2590.81006 0.00039
2817 82.22910 2464.15080 2550.25000 0.00039
2818 82.25510 2458.97968 2560.35986 0.00039
2819 82.28110 2457.38186 2570.48999 0.00039
2820 82.30710 2458.93764 2540.16016 0.00039
2821 82.33310 2462.86756 2520.04004 0.00040
2822 82.35910 2468.23132 2570.48999 0.00039
2823 82.38510 2474.21256 2570.48999 0.00039
2824 82.41110 2480.44475 2560.35986 0.00039
2825 82.43710 2487.26162 2540.16016 0.00039
2826 82.46310 2495.70514 2621.44019 0.00038
2827 82.48910 2507.20483 2611.20996 0.00038
2828 82.51510 2523.03879 2590.81006 0.00039
2829 82.54110 2543.79557 2641.96021 0.00038
2830 82.56710 2569.00522 2683.23999 0.00037
2831 82.59310 2597.04532 2641.96021 0.00038
2832 82.61910 2625.40277 2704.00000 0.00037
2833 82.64510 2651.31726 2693.61011 0.00037
2834 82.67110 2672.69010 2745.76025 0.00036
2835 82.69710 2688.94886 2872.95972 0.00035
2836 82.72310 2701.47202 2894.43994 0.00035
2837 82.74910 2713.35274 2872.95972 0.00035
2838 82.77510 2728.61140 2894.43994 0.00035
2839 82.80110 2751.15515 2840.88989 0.00035
2840 82.82710 2783.75512 2883.69019 0.00035
2841 82.85310 2827.26926 2948.48999 0.00034
2842 82.87910 2880.32411 2959.36011 0.00034
2843 82.90510 2939.55444 3069.16016 0.00033
2844 82.93110 3000.32763 3036.00977 0.00033
2845 82.95710 3057.76481 3047.04004 0.00033
2846 82.98310 3107.80180 3203.55981 0.00031
2847 83.00910 3148.00402 3192.25000 0.00031
2848 83.03510 3177.95770 3102.48999 0.00032
2849 83.06110 3199.28866 3180.96021 0.00031
2850 83.08710 3215.40145 3180.96021 0.00031
2851 83.11310 3230.84909 3283.28979 0.00030
2852 83.13910 3250.31487 3271.84009 0.00031
2853 83.16510 3277.52551 3352.41016 0.00030
2854 83.19110 3314.45442 3329.29004 0.00030
2855 83.21710 3360.88725 3457.43994 0.00029
2856 83.24310 3414.30585 3375.60986 0.00030
2857 83.26910 3470.15900 3445.69019 0.00029
2858 83.29510 3522.59186 3375.60986 0.00030
2859 83.32110 3565.54121 3433.95972 0.00029
2860 83.34710 3593.88967 3445.69019 0.00029
2861 83.37310 3604.28712 3540.25000 0.00028
2862 83.39910 3595.45900 3564.09009 0.00028
2863 83.42510 3568.16486 3457.43994 0.00029
2864 83.45110 3524.98093 3445.69019 0.00029
2865 83.47710 3469.79055 3422.25000 0.00029
2866 83.50310 3406.95020 3410.56006 0.00029
2867 83.52910 3340.53116 3375.60986 0.00030
2868 83.55510 3274.02082 3226.23999 0.00031
2869 83.58110 3210.33895 3158.44019 0.00032
2870 83.60710 3151.77530 3058.08984 0.00033
2871 83.63310 3099.75827 3102.48999 0.00032
2872 83.65910 3054.66907 2926.80981 0.00034
2873 83.68510 3015.87247 3058.08984 0.00033
2874 83.71110 2981.94608 3047.04004 0.00033
2875 83.73710 2951.01336 2948.48999 0.00034
2876 83.76310 2921.13826 2894.43994 0.00035
2877 83.78910 2890.77489 2894.43994 0.00035
2878 83.81510 2859.17858 2830.23999 0.00035
2879 83.84110 2826.56312 2937.64014 0.00034
2880 83.86710 2793.87799 2798.41016 0.00036
2881 83.89310 2762.38501 2777.29004 0.00036
2882 83.91910 2733.34350 2735.29004 0.00037
2883 83.94510 2707.89961 2766.75977 0.00036
2884 83.97110 2687.01821 2693.61011 0.00037
2885 83.99710 2671.31013 2683.23999 0.00037
2886 84.02310 2660.82911 2704.00000 0.00037
2887 84.04910 2655.00508 2683.23999 0.00037
2888 84.07510 2652.76897 2704.00000 0.00037
2889 84.10110 2652.79863 2693.61011 0.00037
2890 84.12710 2653.79313 2683.23999 0.00037
2891 84.15310 2654.70412 2704.00000 0.00037
2892 84.17910 2654.86954 2714.40991 0.00037
2893 84.20510 2654.03166 2714.40991 0.00037
2894 84.23110 2652.27551 2714.40991 0.00037
2895 84.25710 2649.93539 2724.84009 0.00037
2896 84.28310 2647.46989 2745.76025 0.00036
2897 84.30910 2645.26745 2724.84009 0.00037
2898 84.33510 2643.40578 2704.00000 0.00037
2899 84.36110 2641.49685 2672.89014 0.00037
2900 84.38710 2638.74680 2672.89014 0.00037
2901 84.41310 2634.24411 2652.25000 0.00038
2902 84.43910 2627.35599 2652.25000 0.00038
2903 84.46510 2618.03154 2724.84009 0.00037
2904 84.49110 2606.85033 2683.23999 0.00037
2905 84.51710 2594.81661 2641.96021 0.00038
2906 84.54310 2583.04051 2672.89014 0.00037
2907 84.56910 2572.45515 2652.25000 0.00038
2908 84.59510 2563.66684 2672.89014 0.00037
2909 84.62110 2556.99600 2631.68994 0.00038
2910 84.64710 2552.71291 2570.48999 0.00039
2911 84.67310 2551.38823 2631.68994 0.00038
2912 84.69910 2554.20380 2652.25000 0.00038
2913 84.72510 2563.04721 2652.25000 0.00038
2914 84.75110 2580.29549 2652.25000 0.00038
2915 84.77710 2608.33284 2631.68994 0.00038
2916 84.80310 2648.94466 2662.55981 0.00038
2917 84.82910 2702.72566 2693.61011 0.00037
2918 84.85510 2768.59890 2787.83984 0.00036
2919 84.88110 2843.53807 2851.56006 0.00035
2920 84.90710 2922.59611 2926.80981 0.00034
2921 84.93310 2999.33333 2981.15991 0.00034
2922 84.95910 3066.67913 3058.08984 0.00033
2923 84.98510 3118.14254 3047.04004 0.00033
2924 85.01110 3149.13500 3113.63989 0.00032
2925 85.03710 3158.06748 3113.63989 0.00032
2926 85.06310 3146.88118 3158.44019 0.00032
2927 85.08910 3120.76512 3158.44019 0.00032
2928 85.11510 3087.01672 3025.00000 0.00033
2929 85.14110 3053.34391 2992.09009 0.00033
2930 85.16710 3026.18655 3058.08984 0.00033
2931 85.19310 3009.56694 3113.63989 0.00032
2932 85.21910 3004.64556 3058.08984 0.00033
2933 85.24510 3009.87573 3147.20972 0.00032
2934 85.27110 3021.56951 3113.63989 0.00032
2935 85.29710 3034.70378 3058.08984 0.00033
2936 85.32310 3043.83266 3036.00977 0.00033
2937 85.34910 3044.00101 2970.25000 0.00034
2938 85.37510 3031.57367 3003.03979 0.00033
2939 85.40110 3004.89303 2937.64014 0.00034
2940 85.42710 2964.62150 2883.69019 0.00035
2941 85.45310 2913.60681 2862.25000 0.00035
2942 85.47910 2856.21209 2851.56006 0.00035
2943 85.50510 2797.25136 2809.00000 0.00036
2944 85.53110 2740.88629 2809.00000 0.00036
2945 85.55710 2689.87979 2683.23999 0.00037
2946 85.58310 2645.37548 2641.96021 0.00038
2947 85.60910 2607.11098 2611.20996 0.00038
2948 85.63510 2573.88502 2641.96021 0.00038
2949 85.66110 2544.11644 2510.00977 0.00040
2950 85.68710 2516.36222 2540.16016 0.00039
2951 85.71310 2489.69286 2490.01025 0.00040
2952 85.73910 2463.85896 2460.15991 0.00041
2953 85.76510 2439.24043 2480.04004 0.00040
2954 85.79110 2416.62935 2430.48999 0.00041
2955 85.81710 2396.93604 2420.64014 0.00041
2956 85.84310 2380.91083 2371.69019 0.00042
2957 85.86910 2368.94655 2430.48999 0.00041
2958 85.89510 2360.98590 2381.43994 0.00042
2959 85.92110 2356.53192 2342.56006 0.00043
2960 85.94710 2354.75131 2420.64014 0.00041
2961 85.97310 2354.65323 2352.25000 0.00043
2962 85.99910 2355.31741 2361.95996 0.00042
2963 86.02510 2356.12218 2342.56006 0.00043
2964 86.05110 2356.89178 2401.00000 0.00042
2965 86.07710 2357.88235 2460.15991 0.00041
2966 86.10310 2359.59641 2361.95996 0.00042
2967 86.12910 2362.52057 2332.88989 0.00043
2968 86.15510 2366.92024 2313.60986 0.00043
2969 86.18110 2372.75144 2391.21021 0.00042
2970 86.20710 2379.66533 2401.00000 0.00042
2971 86.23310 2387.07330 2304.00000 0.00043
2972 86.25910 2394.26947 2352.25000 0.00043
2973 86.28510 2400.61758 2342.56006 0.00043
2974 86.31110 2405.77316 2371.69019 0.00042
2975 86.33710 2409.84953 2430.48999 0.00041
2976 86.36310 2413.42366 2361.95996 0.00042
2977 86.38910 2417.35956 2352.25000 0.00043
2978 86.41510 2422.54138 2440.36011 0.00041
2979 86.44110 2429.62287 2470.09009 0.00040
2980 86.46710 2438.83787 2500.00000 0.00040
2981 86.49310 2449.88477 2500.00000 0.00040
2982 86.51910 2461.91782 2430.48999 0.00041
2983 86.54510 2473.68016 2410.80981 0.00041
2984 86.57110 2483.76629 2530.08984 0.00040
2985 86.59710 2490.94864 2490.01025 0.00040
2986 86.62310 2494.48398 2490.01025 0.00040
2987 86.64910 2494.31257 2500.00000 0.00040
2988 86.67510 2491.07633 2470.09009 0.00040
2989 86.70110 2485.91668 2460.15991 0.00041
2990 86.72710 2480.09856 2440.36011 0.00041
2991 86.75310 2474.61436 2440.36011 0.00041
2992 86.77910 2469.93124 2410.80981 0.00041
2993 86.80510 2465.96059 2450.25000 0.00041
2994 86.83110 2462.23579 2510.00977 0.00040
2995 86.85710 2458.22766 2490.01025 0.00040
2996 86.88310 2453.68996 2460.15991 0.00041
2997 86.90910 2448.89854 2480.04004 0.00040
2998 86.93510 2444.68959 2420.64014 0.00041
2999 86.96110 2442.31560 2410.80981 0.00041
3000 86.98710 2443.21951 2430.48999 0.00041
3001 87.01310 2448.80778 2410.80981 0.00041
3002 87.03910 2460.23998 2450.25000 0.00041
3003 87.06510 2478.23239 2430.48999 0.00041
3004 87.09110 2502.89312 2420.64014 0.00041
3005 87.11710 2533.62357 2490.01025 0.00040
3006 87.14310 2569.10571 2520.04004 0.00040
3007 87.16910 2607.36609 2510.00977 0.00040
3008 87.19510 2645.89905 2550.25000 0.00039
3009 87.22110 2681.85516 2631.68994 0.00038
3010 87.24710 2712.33471 2693.61011 0.00037
3011 87.27310 2734.80360 2714.40991 0.00037
3012 87.29910 2747.55154 2735.29004 0.00037
3013 87.32510 2750.02229 2745.76025 0.00036
3014 87.35110 2742.86918 2714.40991 0.00037
3015 87.37710 2727.71285 2766.75977 0.00036
3016 87.40310 2706.70963 2777.29004 0.00036
3017 87.42910 2682.09929 2662.55981 0.00038
3018 87.45510 2655.84929 2621.44019 0.00038
3019 87.48110 2629.42020 2601.00000 0.00038
3020 87.50710 2603.65912 2601.00000 0.00038
3021 87.53310 2578.85629 2590.81006 0.00039
3022 87.55910 2554.96736 2550.25000 0.00039
3023 87.58510 2531.91567 2530.08984 0.00040
3024 87.61110 2509.83659 2500.00000 0.00040
3025 87.63710 2489.17309 2490.01025 0.00040
3026 87.66310 2470.62104 2500.00000 0.00040
3027 87.68910 2454.98111 2510.00977 0.00040
3028 87.71510 2442.98475 2490.01025 0.00040
3029 87.74110 2435.13984 2410.80981 0.00041
3030 87.76710 2431.62253 2401.00000 0.00042
3031 87.79310 2432.23493 2410.80981 0.00041
3032 87.81910 2436.43497 2460.15991 0.00041
3033 87.84510 2443.44099 2391.21021 0.00042
3034 87.87110 2452.40384 2352.25000 0.00043
3035 87.89710 2462.60534 2381.43994 0.00042
3036 87.92310 2473.60999 2490.01025 0.00040
3037 87.94910 2485.28566 2440.36011 0.00041
3038 87.97510 2497.66660 2460.15991 0.00041
3039 88.00110 2510.73849 2550.25000 0.00039
3040 88.02710 2524.27578 2540.16016 0.00039
3041 88.05310 2537.80991 2601.00000 0.00038
3042 88.07910 2550.71418 2490.01025 0.00040
3043 88.10510 2562.35102 2530.08984 0.00040
3044 88.13110 2572.23732 2540.16016 0.00039
3045 88.15710 2580.18141 2510.00977 0.00040
3046 88.18310 2586.31769 2520.04004 0.00040
3047 88.20910 2590.98284 2580.63989 0.00039
3048 88.23510 2594.50270 2662.55981 0.00038
3049 88.26110 2597.04391 2601.00000 0.00038
3050 88.28710 2598.63020 2611.20996 0.00038
3051 88.31310 2599.29755 2611.20996 0.00038
3052 88.33910 2599.26064 2510.00977 0.00040
3053 88.36510 2598.93012 2570.48999 0.00039
3054 88.39110 2598.72301 2580.63989 0.00039
3055 88.41710 2598.77522 2580.63989 0.00039
3056 88.44310 2598.73070 2601.00000 0.00038
3057 88.46910 2597.70997 2662.55981 0.00038
3058 88.49510 2594.46766 2580.63989 0.00039
3059 88.52110 2587.69362 2530.08984 0.00040
3060 88.54710 2576.37137 2611.20996 0.00038
3061 88.57310 2560.10924 2500.00000 0.00040
3062 88.59910 2539.36716 2570.48999 0.00039
3063 88.62510 2515.48806 2500.00000 0.00040
3064 88.65110 2490.47301 2611.20996 0.00038
3065 88.67710 2466.58288 2570.48999 0.00039
3066 88.70310 2445.95318 2520.04004 0.00040
3067 88.72910 2430.35556 2470.09009 0.00040
3068 88.75510 2421.11017 2460.15991 0.00041
3069 88.78110 2419.07507 2430.48999 0.00041
3070 88.80710 2424.62335 2490.01025 0.00040
3071 88.83310 2437.54126 2510.00977 0.00040
3072 88.85910 2456.85760 2550.25000 0.00039
3073 88.88510 2480.72357 2601.00000 0.00038
3074 88.91110 2506.51525 2590.81006 0.00039
3075 88.93710 2531.28195 2550.25000 0.00039
3076 88.96310 2552.50082 2611.20996 0.00038
3077 88.98910 2568.85982 2570.48999 0.00039
3078 89.01510 2580.66647 2580.63989 0.00039
3079 89.04110 2589.61241 2621.44019 0.00038
3080 89.06710 2597.97379 2693.61011 0.00037
3081 89.09310 2607.66040 2652.25000 0.00038
3082 89.11910 2619.59591 2704.00000 0.00037
3083 89.14510 2633.67488 2662.55981 0.00038
3084 89.17110 2649.17157 2672.89014 0.00037
3085 89.19710 2665.23895 2777.29004 0.00036
3086 89.22310 2681.20450 2662.55981 0.00038
3087 89.24910 2696.62695 2683.23999 0.00037
3088 89.27510 2711.23916 2735.29004 0.00037
3089 89.30110 2724.85227 2777.29004 0.00036
3090 89.32710 2737.21295 2777.29004 0.00036
3091 89.35310 2747.83725 2787.83984 0.00036
3092 89.37910 2755.93052 2798.41016 0.00036
3093 89.40510 2760.51721 2862.25000 0.00035
3094 89.43110 2760.79888 2916.00000 0.00034
3095 89.45710 2756.59199 2840.88989 0.00035
3096 89.48310 2748.59092 2766.75977 0.00036
3097 89.50910 2738.26617 2756.25000 0.00036
3098 89.53510 2727.43477 2704.00000 0.00037
3099 89.56110 2717.72588 2631.68994 0.00038
3100 89.58710 2710.15149 2652.25000 0.00038
3101 89.61310 2704.85762 2652.25000 0.00038
3102 89.63910 2701.05236 2704.00000 0.00037
3103 89.66510 2697.12297 2745.76025 0.00036
3104 89.69110 2690.96349 2745.76025 0.00036
3105 89.71710 2680.49472 2704.00000 0.00037
3106 89.74310 2664.27210 2621.44019 0.00038
3107 89.76910 2641.98764 2601.00000 0.00038
3108 89.79510 2614.64101 2601.00000 0.00038
3109 89.82110 2584.28571 2530.08984 0.00040
3110 89.84710 2553.48806 2500.00000 0.00040
3111 89.87310 2524.75675 2520.04004 0.00040
3112 89.89910 2500.12062 2470.09009 0.00040
3113 89.92510 2480.89837 2450.25000 0.00041
3114 89.95110 2467.63675 2460.15991 0.00041
3115 89.97710 2460.18109 2440.36011 0.00041
3116 90.00310 2457.84206 2410.80981 0.00041
3117 90.02910 2459.61673 2450.25000 0.00041
3118 90.05510 2464.41398 2540.16016 0.00039
3119 90.08110 2471.23496 2510.00977 0.00040
3120 90.10710 2479.28217 2440.36011 0.00041
3121 90.13310 2487.99822 2460.15991 0.00041
3122 90.15910 2497.05253 2440.36011 0.00041
3123 90.18510 2506.30656 2510.00977 0.00040
3124 90.21110 2515.78855 2490.01025 0.00040
3125 90.23710 2525.67769 2490.01025 0.00040
3126 90.26310 2536.27129 2500.00000 0.00040
3127 90.28910 2547.93884 2560.35986 0.00039
3128 90.31510 2561.11355 2580.63989 0.00039
3129 90.34110 2576.35899 2570.48999 0.00039
3130 90.36710 2594.47290 2601.00000 0.00038
3131 90.39310 2616.51597 2621.44019 0.00038
3132 90.41910 2643.66250 2724.84009 0.00037
3133 90.44510 2676.87449 2704.00000 0.00037
3134 90.47110 2716.51644 2704.00000 0.00037
3135 90.49710 2762.03870 2777.29004 0.00036
3136 90.52310 2811.79774 2798.41016 0.00036
3137 90.54910 2863.02647 2809.00000 0.00036
3138 90.57510 2911.98303 2883.69019 0.00035
3139 90.60110 2954.33718 2894.43994 0.00035
3140 90.62710 2985.83073 2992.09009 0.00033
3141 90.65310 3003.15766 2894.43994 0.00035
3142 90.67910 3004.85161 2970.25000 0.00034
3143 90.70510 2991.80808 2926.80981 0.00034
3144 90.73110 2967.09281 2926.80981 0.00034
3145 90.75710 2935.04081 2937.64014 0.00034
3146 90.78310 2900.06976 2959.36011 0.00034
3147 90.80910 2865.71408 2830.23999 0.00035
3148 90.83510 2834.12011 2766.75977 0.00036
3149 90.86110 2805.98430 2777.29004 0.00036
3150 90.88710 2780.83295 2819.60986 0.00035
3151 90.91310 2757.52069 2662.55981 0.00038
3152 90.93910 2734.79702 2787.83984 0.00036
3153 90.96510 2711.75951 2704.00000 0.00037
3154 90.99110 2688.06696 2766.75977 0.00036
3155 91.01710 2663.90436 2693.61011 0.00037
3156 91.04310 2639.78683 2809.00000 0.00036
3157 91.06910 2616.31471 2570.48999 0.00039
3158 91.09510 2593.96233 2601.00000 0.00038
3159 91.12110 2572.95640 2570.48999 0.00039
3160 91.14710 2553.27277 2560.35986 0.00039
3161 91.17310 2534.74553 2580.63989 0.00039
3162 91.19910 2517.22626 2540.16016 0.00039
3163 91.22510 2500.69460 2420.64014 0.00041
3164 91.25110 2485.24808 2540.16016 0.00039
3165 91.27710 2470.98210 2530.08984 0.00040
3166 91.30310 2457.85557 2490.01025 0.00040
3167 91.32910 2445.63740 2480.04004 0.00040
3168 91.35510 2433.96253 2440.36011 0.00041
3169 91.38110 2422.47161 2391.21021 0.00042
3170 91.40710 2410.97996 2510.00977 0.00040
3171 91.43310 2399.60625 2460.15991 0.00041
3172 91.45910 2388.80547 2480.04004 0.00040
3173 91.48510 2379.30406 2430.48999 0.00041
3174 91.51110 2371.97803 2401.00000 0.00042
3175 91.53710 2367.71731 2401.00000 0.00042
3176 91.56310 2367.29770 2460.15991 0.00041
3177 91.58910 2371.27396 2401.00000 0.00042
3178 91.61510 2379.90947 2450.25000 0.00041
3179 91.64110 2393.14790 2361.95996 0.00042
3180 91.66710 2410.62234 2550.25000 0.00039
3181 91.69310 2431.69472 2460.15991 0.00041
3182 91.71910 2455.51400 2490.01025 0.00040
3183 91.74510 2481.07537 2530.08984 0.00040
3184 91.77110 2507.26346 2520.04004 0.00040
3185 91.79710 2532.87711 2540.16016 0.00039
3186 91.82310 2556.66693 2570.48999 0.00039
3187 91.84910 2577.42766 2530.08984 0.00040
3188 91.87510 2594.15302 2641.96021 0.00038
3189 91.90110 2606.19908 2704.00000 0.00037
3190 91.92710 2613.36724 2631.68994 0.00038
3191 91.95310 2615.85075 2641.96021 0.00038
3192 91.97910 2614.07056 2652.25000 0.00038
3193 92.00510 2608.49332 2601.00000 0.00038
3194 92.03110 2599.52534 2550.25000 0.00039
3195 92.05710 2587.51586 2590.81006 0.00039
3196 92.08310 2572.82894 2601.00000 0.00038
3197 92.10910 2555.90556 2570.48999 0.00039
3198 92.13510 2537.26537 2530.08984 0.00040
3199 92.16110 2517.46159 2510.00977 0.00040
3200 92.18710 2497.03958 2530.08984 0.00040
3201 92.21310 2476.51946 2530.08984 0.00040
3202 92.23910 2456.38067 2490.01025 0.00040
3203 92.26510 2437.02606 2440.36011 0.00041
3204 92.29110 2418.73870 2430.48999 0.00041
3205 92.31710 2401.66504 2430.48999 0.00041
3206 92.34310 2385.83995 2410.80981 0.00041
3207 92.36910 2371.24970 2420.64014 0.00041
3208 92.39510 2357.91308 2371.69019 0.00042
3209 92.42110 2345.95724 2323.23999 0.00043
3210 92.44710 2335.66500 2323.23999 0.00043
3211 92.47310 2327.47238 2361.95996 0.00042
3212 92.49910 2321.90649 2391.21021 0.00042
3213 92.52510 2319.47758 2361.95996 0.00042
3214 92.55110 2320.56319 2294.41016 0.00044
3215 92.57710 2325.31809 2246.76025 0.00045
3216 92.60310 2333.62108 2294.41016 0.00044
3217 92.62910 2345.06477 2313.60986 0.00043
3218 92.65510 2358.98978 2294.41016 0.00044
3219 92.68110 2374.55544 2332.88989 0.00043
3220 92.70710 2390.82624 2342.56006 0.00043
3221 92.73310 2406.84569 2332.88989 0.00043
3222 92.75910 2421.68755 2391.21021 0.00042
3223 92.78510 2434.50978 2381.43994 0.00042
3224 92.81110 2444.64505 2256.25000 0.00044
3225 92.83710 2451.71825 2294.41016 0.00044
3226 92.86310 2455.73440 2361.95996 0.00042
3227 92.88910 2457.07723 2391.21021 0.00042
3228 92.91510 2456.40350 2450.25000 0.00041
3229 92.94110 2454.47630 2410.80981 0.00041
3230 92.96710 2452.00063 2391.21021 0.00042
3231 92.99310 2449.50699 2430.48999 0.00041
3232 93.01910 2447.31051 2420.64014 0.00041
3233 93.04510 2445.55337 2470.09009 0.00040
3234 93.07110 2444.30635 2420.64014 0.00041
3235 93.09710 2443.68804 2470.09009 0.00040
3236 93.12310 2443.95270 2401.00000 0.00042
3237 93.14910 2445.51155 2401.00000 0.00042
3238 93.17510 2448.89056 2391.21021 0.00042
3239 93.20110 2454.64465 2391.21021 0.00042
3240 93.22710 2463.24603 2410.80981 0.00041
3241 93.25310 2474.95802 2470.09009 0.00040
3242 93.27910 2489.70787 2480.04004 0.00040
3243 93.30510 2506.98297 2500.00000 0.00040
3244 93.33110 2525.78306 2480.04004 0.00040
3245 93.35710 2544.65305 2550.25000 0.00039
3246 93.38310 2561.80744 2570.48999 0.00039
3247 93.40910 2575.34207 2560.35986 0.00039
3248 93.43510 2583.50714 2580.63989 0.00039
3249 93.46110 2584.99915 2580.63989 0.00039
3250 93.48710 2579.21910 2490.01025 0.00040
3251 93.51310 2566.43499 2391.21021 0.00042
3252 93.53910 2547.77791 2530.08984 0.00040
3253 93.56510 2525.02960 2430.48999 0.00041
3254 93.59110 2500.24904 2510.00977 0.00040
3255 93.61710 2475.36764 2510.00977 0.00040
3256 93.64310 2451.88245 2401.00000 0.00042
3257 93.66910 2430.70435 2391.21021 0.00042
3258 93.69510 2412.15103 2430.48999 0.00041
3259 93.72110 2396.04800 2420.64014 0.00041
3260 93.74710 2381.90010 2391.21021 0.00042
3261 93.77310 2369.09516 2470.09009 0.00040
3262 93.79910 2357.10343 2371.69019 0.00042
3263 93.82510 2345.63705 2381.43994 0.00042
3264 93.85110 2334.73927 2440.36011 0.00041
3265 93.87710 2324.78612 2237.29004 0.00045
3266 93.90310 2316.40457 2275.29004 0.00044
3267 93.92910 2310.33337 2265.75977 0.00044
3268 93.95510 2307.26794 2284.83984 0.00044
3269 93.98110 2307.72641 2313.60986 0.00043
3270 94.00710 2311.96127 2246.76025 0.00045
3271 94.03310 2319.92047 2246.76025 0.00045
3272 94.05910 2331.24979 2313.60986 0.00043
3273 94.08510 2345.33405 2332.88989 0.00043
3274 94.11110 2361.37087 2342.56006 0.00043
3275 94.13710 2378.47207 2323.23999 0.00043
3276 94.16310 2395.78779 2391.21021 0.00042
3277 94.18910 2412.64207 2430.48999 0.00041
3278 94.21510 2428.64121 2460.15991 0.00041
3279 94.24110 2443.69783 2460.15991 0.00041
3280 94.26710 2457.93828 2450.25000 0.00041
3281 94.29310 2471.53077 2450.25000 0.00041
3282 94.31910 2484.52720 2410.80981 0.00041
3283 94.34510 2496.79324 2480.04004 0.00040
3284 94.37110 2508.04753 2540.16016 0.00039
3285 94.39710 2517.97342 2480.04004 0.00040
3286 94.42310 2526.32849 2540.16016 0.00039
3287 94.44910 2532.99253 2500.00000 0.00040
3288 94.47510 2537.94501 2450.25000 0.00041
3289 94.50110 2541.21598 2420.64014 0.00041
3290 94.52710 2542.86760 2480.04004 0.00040
3291 94.55310 2543.02542 2540.16016 0.00039
3292 94.57910 2541.93947 2560.35986 0.00039
3293 94.60510 2540.03234 2510.00977 0.00040
3294 94.63110 2537.89565 2480.04004 0.00040
3295 94.65710 2536.21400 2500.00000 0.00040
3296 94.68310 2535.63344 2480.04004 0.00040
3297 94.70910 2536.61799 2540.16016 0.00039
3298 94.73510 2539.32962 2540.16016 0.00039
3299 94.76110 2543.55398 2500.00000 0.00040
3300 94.78710 2548.68878 2490.01025 0.00040
3301 94.81310 2553.81004 2480.04004 0.00040
3302 94.83910 2557.82227 2490.01025 0.00040
3303 94.86510 2559.67804 2540.16016 0.00039
3304 94.89110 2558.62044 2490.01025 0.00040
3305 94.91710 2554.37512 2480.04004 0.00040
3306 94.94310 2547.23275 2500.00000 0.00040
3307 94.96910 2538.01192 2550.25000 0.00039
3308 94.99510 2527.93256 2500.00000 0.00040
3309 95.02110 2518.43422 2460.15991 0.00041
3310 95.04710 2510.95011 2490.01025 0.00040
3311 95.07310 2506.62747 2450.25000 0.00041
3312 95.09910 2506.00256 2470.09009 0.00040
3313 95.12510 2508.69863 2510.00977 0.00040
3314 95.15110 2513.28342 2550.25000 0.00039
3315 95.17710 2517.44424 2530.08984 0.00040
3316 95.20310 2518.55857 2480.04004 0.00040
3317 95.22910 2514.53758 2520.04004 0.00040
3318 95.25510 2504.60100 2500.00000 0.00040
3319 95.28110 2489.59882 2510.00977 0.00040
3320 95.30710 2471.69900 2510.00977 0.00040
3321 95.33310 2453.60075 2510.00977 0.00040
3322 95.35910 2437.66648 2530.08984 0.00040
3323 95.38510 2425.32716 2450.25000 0.00041
3324 95.41110 2416.89354 2381.43994 0.00042
3325 95.43710 2411.69453 2430.48999 0.00041
3326 95.46310 2408.38784 2510.00977 0.00040
3327 95.48910 2405.32704 2440.36011 0.00041
3328 95.51510 2400.93228 2420.64014 0.00041
3329 95.54110 2394.03071 2361.95996 0.00042
3330 95.56710 2384.11014 2342.56006 0.00043
3331 95.59310 2371.41478 2352.25000 0.00043
3332 95.61910 2356.84712 2323.23999 0.00043
3333 95.64510 2341.71401 2275.29004 0.00044
3334 95.67110 2327.41667 2284.83984 0.00044
3335 95.69710 2315.19026 2323.23999 0.00043
3336 95.72310 2305.95224 2304.00000 0.00043
3337 95.74910 2300.26183 2352.25000 0.00043
3338 95.77510 2298.36171 2332.88989 0.00043
3339 95.80110 2300.26067 2313.60986 0.00043
3340 95.82710 2305.81944 2361.95996 0.00042
3341 95.85310 2314.81344 2342.56006 0.00043
3342 95.87910 2326.96020 2294.41016 0.00044
3343 95.90510 2341.91412 2323.23999 0.00043
3344 95.93110 2359.24082 2371.69019 0.00042
3345 95.95710 2378.39005 2361.95996 0.00042
3346 95.98310 2398.68606 2352.25000 0.00043
3347 96.00910 2419.35091 2430.48999 0.00041
3348 96.03510 2439.56963 2420.64014 0.00041
3349 96.06110 2458.58999 2381.43994 0.00042
3350 96.08710 2475.83364 2460.15991 0.00041
3351 96.11310 2490.99120 2540.16016 0.00039
3352 96.13910 2504.08744 2410.80981 0.00041
3353 96.16510 2515.50857 2480.04004 0.00040
3354 96.19110 2525.96987 2530.08984 0.00040
3355 96.21710 2536.39018 2520.04004 0.00040
3356 96.24310 2547.66987 2560.35986 0.00039
3357 96.26910 2560.43054 2540.16016 0.00039
3358 96.29510 2574.80933 2510.00977 0.00040
3359 96.32110 2590.36946 2530.08984 0.00040
3360 96.34710 2606.13586 2570.48999 0.00039
3361 96.37310 2620.73909 2540.16016 0.00039
3362 96.39910 2632.65188 2704.00000 0.00037
3363 96.42510 2640.49195 2550.25000 0.00039
3364 96.45110 2643.33591 2580.63989 0.00039
3365 96.47710 2640.96034 2570.48999 0.00039
3366 96.50310 2633.92107 2480.04004 0.00040
3367 96.52910 2623.43553 2631.68994 0.00038
3368 96.55510 2611.11131 2530.08984 0.00040
3369 96.58110 2598.61700 2540.16016 0.00039
3370 96.60710 2587.38538 2450.25000 0.00041
3371 96.63310 2578.40123 2540.16016 0.00039
3372 96.65910 2572.09558 2540.16016 0.00039
3373 96.68510 2568.35007 2540.16016 0.00039
3374 96.71110 2566.60430 2500.00000 0.00040
3375 96.73710 2566.04618 2540.16016 0.00039
3376 96.76310 2565.84755 2641.96021 0.00038
3377 96.78910 2565.38861 2631.68994 0.00038
3378 96.81510 2564.41470 2693.61011 0.00037
3379 96.84110 2563.08834 2621.44019 0.00038
3380 96.86710 2561.93117 2580.63989 0.00039
3381 96.89310 2561.68168 2530.08984 0.00040
3382 96.91910 2563.10897 2460.15991 0.00041
3383 96.94510 2566.82834 2420.64014 0.00041
3384 96.97110 2573.15882 2510.00977 0.00040
3385 96.99710 2582.05083 2460.15991 0.00041
3386 97.02310 2593.09093 2480.04004 0.00040
3387 97.04910 2605.56508 2540.16016 0.00039
3388 97.07510 2618.54693 2520.04004 0.00040
3389 97.10110 2630.97830 2580.63989 0.00039
3390 97.12710 2641.74271 2693.61011 0.00037
3391 97.15310 2649.75593 2611.20996 0.00038
3392 97.17910 2654.08763 2550.25000 0.00039
3393 97.20510 2654.09348 2560.35986 0.00039
3394 97.23110 2649.50896 2621.44019 0.00038
3395 97.25710 2640.47071 2631.68994 0.00038
3396 97.28310 2627.46924 2601.00000 0.00038
3397 97.30910 2611.26195 2590.81006 0.00039
3398 97.33510 2592.76899 2580.63989 0.00039
3399 97.36110 2572.95537 2530.08984 0.00040
3400 97.38710 2552.70067 2520.04004 0.00040
3401 97.41310 2532.68031 2510.00977 0.00040
3402 97.43910 2513.29017 2490.01025 0.00040
3403 97.46510 2494.63768 2430.48999 0.00041
3404 97.49110 2476.60041 2430.48999 0.00041
3405 97.51710 2458.93033 2460.15991 0.00041
3406 97.54310 2441.37154 2470.09009 0.00040
3407 97.56910 2423.75590 2460.15991 0.00041
3408 97.59510 2406.05548 2410.80981 0.00041
3409 97.62110 2388.39066 2420.64014 0.00041
3410 97.64710 2371.00806 2420.64014 0.00041
3411 97.67310 2354.24607 2361.95996 0.00042
3412 97.69910 2338.49799 2420.64014 0.00041
3413 97.72510 2324.17341 2440.36011 0.00041
3414 97.75110 2311.65534 2391.21021 0.00042
3415 97.77710 2301.25621 2323.23999 0.00043
3416 97.80310 2293.18060 2294.41016 0.00044
3417 97.82910 2287.50241 2352.25000 0.00043
3418 97.85510 2284.15891 2342.56006 0.00043
3419 97.88110 2282.95766 2352.25000 0.00043
3420 97.90710 2283.59254 2294.41016 0.00044
3421 97.93310 2285.66700 2294.41016 0.00044
3422 97.95910 2288.72081 2323.23999 0.00043
3423 97.98510 2292.25603 2294.41016 0.00044
3424 98.01110 2295.76353 2294.41016 0.00044
3425 98.03710 2298.76013 2313.60986 0.00043
3426 98.06310 2300.84224 2294.41016 0.00044
3427 98.08910 2301.75625 2323.23999 0.00043
3428 98.11510 2301.47097 2332.88989 0.00043
3429 98.14110 2300.22036 2313.60986 0.00043
3430 98.16710 2298.48385 2313.60986 0.00043
3431 98.19310 2296.90119 2332.88989 0.00043
3432 98.21910 2296.15419 2265.75977 0.00044
3433 98.24510 2296.85928 2342.56006 0.00043
3434 98.27110 2299.49460 2313.60986 0.00043
3435 98.29710 2304.36169 2275.29004 0.00044
3436 98.32310 2311.57517 2352.25000 0.00043
3437 98.34910 2321.07465 2323.23999 0.00043
3438 98.37510 2332.65430 2275.29004 0.00044
3439 98.40110 2346.00633 2323.23999 0.00043
3440 98.42710 2360.77077 2401.00000 0.00042
3441 98.45310 2376.57937 2500.00000 0.00040
3442 98.47910 2393.07765 2500.00000 0.00040
3443 98.50510 2409.91473 2470.09009 0.00040
3444 98.53110 2426.70619 2460.15991 0.00041
3445 98.55710 2442.99455 2540.16016 0.00039
3446 98.58310 2458.23843 2430.48999 0.00041
3447 98.60910 2471.84988 2420.64014 0.00041
3448 98.63510 2483.27546 2450.25000 0.00041
3449 98.66110 2492.09727 2450.25000 0.00041
3450 98.68710 2498.12778 2410.80981 0.00041
3451 98.71310 2501.47151 2450.25000 0.00041
3452 98.73910 2502.52624 2470.09009 0.00040
3453 98.76510 2501.91218 2510.00977 0.00040
3454 98.79110 2500.34856 2460.15991 0.00041
3455 98.81710 2498.51376 2440.36011 0.00041
3456 98.84310 2496.92301 2401.00000 0.00042
3457 98.86910 2495.85310 2500.00000 0.00040
3458 98.89510 2495.33072 2450.25000 0.00041
3459 98.92110 2495.18912 2560.35986 0.00039
3460 98.94710 2495.17892 2621.44019 0.00038
3461 98.97310 2495.10313 2520.04004 0.00040
3462 98.99910 2494.93685 2530.08984 0.00040
3463 99.02510 2494.89853 2580.63989 0.00039
3464 99.05110 2495.46373 2530.08984 0.00040
3465 99.07710 2497.33440 2540.16016 0.00039
3466 99.10310 2501.37921 2500.00000 0.00040
3467 99.12910 2508.54371 2490.01025 0.00040
3468 99.15510 2519.72956 2530.08984 0.00040
3469 99.18110 2535.65670 2480.04004 0.00040
3470 99.20710 2556.72837 2450.25000 0.00041
3471 99.23310 2582.91511 2530.08984 0.00040
3472 99.25910 2613.66913 2601.00000 0.00038
3473 99.28510 2647.87950 2550.25000 0.00039
3474 99.31110 2683.88433 2570.48999 0.00039
3475 99.33710 2719.55901 2652.25000 0.00038
3476 99.36310 2752.48577 2601.00000 0.00038
3477 99.38910 2780.19659 2641.96021 0.00038
3478 99.41510 2800.46828 2724.84009 0.00037
3479 99.44110 2811.63659 2693.61011 0.00037
3480 99.46710 2812.87050 2840.88989 0.00035
3481 99.49310 2804.32901 2777.29004 0.00036
3482 99.51910 2787.13665 2724.84009 0.00037
3483 99.54510 2763.16761 2714.40991 0.00037
3484 99.57110 2734.71000 2621.44019 0.00038
3485 99.59710 2704.11542 2601.00000 0.00038
3486 99.62310 2673.50733 2611.20996 0.00038
3487 99.64910 2644.57614 2601.00000 0.00038
3488 99.67510 2618.46737 2611.20996 0.00038
3489 99.70110 2595.76236 2641.96021 0.00038
3490 99.72710 2576.53875 2631.68994 0.00038
3491 99.75310 2560.48829 2641.96021 0.00038
3492 99.77910 2547.06230 2631.68994 0.00038
3493 99.80510 2535.61040 2601.00000 0.00038
3494 99.83110 2525.48316 2560.35986 0.00039
3495 99.85710 2516.08438 2460.15991 0.00041
3496 99.88310 2506.88390 2480.04004 0.00040
3497 99.90910 2497.42693 2530.08984 0.00040
3498 99.93510 2487.38159 2500.00000 0.00040
3499 99.96110 2476.63450 2490.01025 0.00040
3500 99.98710 2465.39560 2500.00000 0.00040
3501 100.01310 2454.24290 2440.36011 0.00041
3502 100.03910 2444.05713 2391.21021 0.00042
3503 100.06510 2435.85939 2401.00000 0.00042
3504 100.09110 2430.61870 2391.21021 0.00042
3505 100.11710 2429.09918 2430.48999 0.00041
3506 100.14310 2431.77514 2430.48999 0.00041
3507 100.16910 2438.79980 2430.48999 0.00041
3508 100.19510 2450.00274 2480.04004 0.00040
3509 100.22110 2464.90128 2480.04004 0.00040
3510 100.24710 2482.72422 2460.15991 0.00041
3511 100.27310 2502.45858 2460.15991 0.00041
3512 100.29910 2522.92597 2470.09009 0.00040
3513 100.32510 2542.87997 2470.09009 0.00040
3514 100.35110 2561.10431 2540.16016 0.00039
3515 100.37710 2576.50083 2590.81006 0.00039
3516 100.40310 2588.16904 2590.81006 0.00039
3517 100.42910 2595.48640 2570.48999 0.00039
3518 100.45510 2598.17998 2580.63989 0.00039
3519 100.48110 2596.35946 2590.81006 0.00039
3520 100.50710 2590.48667 2611.20996 0.00038
3521 100.53310 2581.28262 2611.20996 0.00038
3522 100.55910 2569.60633 2550.25000 0.00039
3523 100.58510 2556.34686 2560.35986 0.00039
3524 100.61110 2542.34472 2530.08984 0.00040
3525 100.63710 2528.33446 2500.00000 0.00040
3526 100.66310 2514.90043 2500.00000 0.00040
3527 100.68910 2502.44822 2560.35986 0.00039
3528 100.71510 2491.19729 2560.35986 0.00039
3529 100.74110 2481.19608 2550.25000 0.00039
3530 100.76710 2472.35606 2510.00977 0.00040
3531 100.79310 2464.49750 2540.16016 0.00039
3532 100.81910 2457.39865 2490.01025 0.00040
3533 100.84510 2450.84038 2430.48999 0.00041
3534 100.87110 2444.64406 2430.48999 0.00041
3535 100.89710 2438.69956 2440.36011 0.00041
3536 100.92310 2432.97557 2420.64014 0.00041
3537 100.94910 2427.51005 2401.00000 0.00042
3538 100.97510 2422.38962 2381.43994 0.00042
3539 101.00110 2417.72786 2410.80981 0.00041
3540 101.02710 2413.64457 2440.36011 0.00041
3541 101.05310 2410.24768 2500.00000 0.00040
3542 101.07910 2407.61381 2440.36011 0.00041
3543 101.10510 2405.76821 2460.15991 0.00041
3544 101.13110 2404.67491 2401.00000 0.00042
3545 101.15710 2404.24522 2332.88989 0.00043
3546 101.18310 2404.36379 2401.00000 0.00042
3547 101.20910 2404.92287 2450.25000 0.00041
3548 101.23510 2405.85736 2500.00000 0.00040
3549 101.26110 2407.18019 2480.04004 0.00040
3550 101.28710 2409.01534 2500.00000 0.00040
3551 101.31310 2411.62007 2480.04004 0.00040
3552 101.33910 2415.38349 2440.36011 0.00041
3553 101.36510 2420.78623 2460.15991 0.00041
3554 101.39110 2428.29755 2590.81006 0.00039
3555 101.41710 2438.18021 2480.04004 0.00040
3556 101.44310 2450.20208 2470.09009 0.00040
3557 101.46910 2463.34235 2470.09009 0.00040
3558 101.49510 2475.69613 2540.16016 0.00039
3559 101.52110 2484.80771 2510.00977 0.00040
3560 101.54710 2488.47240 2480.04004 0.00040
3561 101.57310 2485.69132 2460.15991 0.00041
3562 101.59910 2477.23217 2601.00000 0.00038
3563 101.62510 2465.41276 2490.01025 0.00040
3564 101.65110 2453.22233 2470.09009 0.00040
3565 101.67710 2443.31028 2570.48999 0.00039
3566 101.70310 2437.35669 2500.00000 0.00040
3567 101.72910 2435.97321 2440.36011 0.00041
3568 101.75510 2438.92896 2470.09009 0.00040
3569 101.78110 2445.42422 2570.48999 0.00039
3570 101.80710 2454.27890 2520.04004 0.00040
3571 101.83310 2464.06850 2520.04004 0.00040
3572 101.85910 2473.29435 2450.25000 0.00041
3573 101.88510 2480.62149 2540.16016 0.00039
3574 101.91110 2485.13235 2540.16016 0.00039
3575 101.93710 2486.49594 2560.35986 0.00039
3576 101.96310 2484.97579 2560.35986 0.00039
3577 101.98910 2481.27223 2510.00977 0.00040
3578 102.01510 2476.26552 2470.09009 0.00040
3579 102.04110 2470.75986 2480.04004 0.00040
3580 102.06710 2465.31307 2410.80981 0.00041
3581 102.09310 2460.18618 2460.15991 0.00041
3582 102.11910 2455.39217 2490.01025 0.00040
3583 102.14510 2450.78925 2460.15991 0.00041
3584 102.17110 2446.16611 2470.09009 0.00040
3585 102.19710 2441.29244 2470.09009 0.00040
3586 102.22310 2435.94041 2530.08984 0.00040
3587 102.24910 2429.90180 2490.01025 0.00040
3588 102.27510 2423.01596 2410.80981 0.00041
3589 102.30110 2415.20726 2420.64014 0.00041
3590 102.32710 2406.52073 2420.64014 0.00041
3591 102.35310 2397.13785 2430.48999 0.00041
3592 102.37910 2387.36129 2371.69019 0.00042
3593 102.40510 2377.57561 2332.88989 0.00043
3594 102.43110 2368.19917 2391.21021 0.00042
3595 102.45710 2359.64324 2381.43994 0.00042
3596 102.48310 2352.28288 2371.69019 0.00042
3597 102.50910 2346.43583 2401.00000 0.00042
3598 102.53510 2342.34305 2391.21021 0.00042
3599 102.56110 2340.14981 2371.69019 0.00042
3600 102.58710 2339.89043 2391.21021 0.00042
3601 102.61310 2341.47989 2401.00000 0.00042
3602 102.63910 2344.71527 2410.80981 0.00041
3603 102.66510 2349.28776 2352.25000 0.00043
3604 102.69110 2354.79986 2275.29004 0.00044
3605 102.71710 2360.78481 2313.60986 0.00043
3606 102.74310 2366.72980 2342.56006 0.00043
3607 102.76910 2372.10524 2391.21021 0.00042
3608 102.79510 2376.40370 2410.80981 0.00041
3609 102.82110 2379.19154 2381.43994 0.00042
3610 102.84710 2380.16863 2381.43994 0.00042
3611 102.87310 2379.22075 2342.56006 0.00043
3612 102.89910 2376.44534 2361.95996 0.00042
3613 102.92510 2372.14192 2381.43994 0.00042
3614 102.95110 2366.77217 2313.60986 0.00043
3615 102.97710 2360.90323 2361.95996 0.00042
3616 103.00310 2355.14623 2401.00000 0.00042
3617 103.02910 2350.09963 2371.69019 0.00042
3618 103.05510 2346.30245 2371.69019 0.00042
3619 103.08110 2344.20029 2352.25000 0.00043
3620 103.10710 2344.12654 2371.69019 0.00042
3621 103.13310 2346.29817 2352.25000 0.00043
3622 103.15910 2350.82212 2323.23999 0.00043
3623 103.18510 2357.70686 2361.95996 0.00042
3624 103.21110 2366.87422 2410.80981 0.00041
3625 103.23710 2378.16722 2391.21021 0.00042
3626 103.26310 2391.35266 2410.80981 0.00041
3627 103.28910 2406.12285 2381.43994 0.00042
3628 103.31510 2422.09803 2371.69019 0.00042
3629 103.34110 2438.83216 2440.36011 0.00041
3630 103.36710 2455.82496 2470.09009 0.00040
3631 103.39310 2472.53662 2460.15991 0.00041
3632 103.41910 2488.40689 2540.16016 0.00039
3633 103.44510 2502.88177 2530.08984 0.00040
3634 103.47110 2515.45206 2540.16016 0.00039
3635 103.49710 2525.70176 2500.00000 0.00040
3636 103.52310 2533.35227 2520.04004 0.00040
3637 103.54910 2538.28359 2550.25000 0.00039
3638 103.57510 2540.52509 2580.63989 0.00039
3639 103.60110 2540.22271 2570.48999 0.00039
3640 103.62710 2537.59525 2580.63989 0.00039
3641 103.65310 2532.89060 2580.63989 0.00039
3642 103.67910 2526.35010 2530.08984 0.00040
3643 103.70510 2518.18955 2550.25000 0.00039
3644 103.73110 2508.60162 2611.20996 0.00038
3645 103.75710 2497.77421 2560.35986 0.00039
3646 103.78310 2485.90989 2490.01025 0.00040
3647 103.80910 2473.23298 2450.25000 0.00041
3648 103.83510 2459.98172 2450.25000 0.00041
3649 103.86110 2446.39327 2450.25000 0.00041
3650 103.88710 2432.69015 2430.48999 0.00041
3651 103.91310 2419.07100 2391.21021 0.00042
3652 103.93910 2405.70523 2470.09009 0.00040
3653 103.96510 2392.72837 2410.80981 0.00041
3654 103.99110 2380.23846 2480.04004 0.00040
3655 104.01710 2368.29596 2342.56006 0.00043
3656 104.04310 2356.92934 2371.69019 0.00042
3657 104.06910 2346.14772 2401.00000 0.00042
3658 104.09510 2335.95923 2332.88989 0.00043
3659 104.12110 2326.39213 2265.75977 0.00044
3660 104.14710 2317.51247 2391.21021 0.00042
3661 104.17310 2309.43202 2371.69019 0.00042
3662 104.19910 2302.30308 2256.25000 0.00044
3663 104.22510 2296.29996 2381.43994 0.00042
3664 104.25110 2291.59212 2294.41016 0.00044
3665 104.27710 2288.31588 2275.29004 0.00044
3666 104.30310 2286.55038 2323.23999 0.00043
3667 104.32910 2286.29997 2143.68994 0.00047
3668 104.35510 2287.48425 2246.76025 0.00045
3669 104.38110 2289.93786 2323.23999 0.00043
3670 104.40710 2293.42104 2381.43994 0.00042
3671 104.43310 2297.64116 2342.56006 0.00043
3672 104.45910 2302.28371 2265.75977 0.00044
3673 104.48510 2307.04831 2256.25000 0.00044
3674 104.51110 2311.68426 2294.41016 0.00044
3675 104.53710 2316.02147 2332.88989 0.00043
3676 104.56310 2319.99402 2294.41016 0.00044
3677 104.58910 2323.65126 2246.76025 0.00045
3678 104.61510 2327.14973 2332.88989 0.00043
3679 104.64110 2330.72135 2313.60986 0.00043
3680 104.66710 2334.62153 2323.23999 0.00043
3681 104.69310 2339.07048 2304.00000 0.00043
3682 104.71910 2344.20123 2294.41016 0.00044
3683 104.74510 2350.02585 2313.60986 0.00043
3684 104.77110 2356.42379 2430.48999 0.00041
3685 104.79710 2363.14921 2313.60986 0.00043
3686 104.82310 2369.85558 2304.00000 0.00043
3687 104.84910 2376.13721 2440.36011 0.00041
3688 104.87510 2381.58426 2440.36011 0.00041
3689 104.90110 2385.84209 2332.88989 0.00043
3690 104.92710 2388.66204 2371.69019 0.00042
3691 104.95310 2389.93120 2371.69019 0.00042
3692 104.97910 2389.67872 2410.80981 0.00041
3693 105.00510 2388.06359 2352.25000 0.00043
3694 105.03110 2385.35141 2352.25000 0.00043
3695 105.05710 2381.88214 2401.00000 0.00042
3696 105.08310 2378.02909 2371.69019 0.00042
3697 105.10910 2374.15432 2342.56006 0.00043
3698 105.13510 2370.56710 2371.69019 0.00042
3699 105.16110 2367.49492 2450.25000 0.00041
3700 105.18710 2365.07470 2410.80981 0.00041
3701 105.21310 2363.36218 2410.80981 0.00041
3702 105.23910 2362.35340 2401.00000 0.00042
3703 105.26510 2362.01011 2391.21021 0.00042
3704 105.29110 2362.28172 2352.25000 0.00043
3705 105.31710 2363.11763 2332.88989 0.00043
3706 105.34310 2364.46677 2420.64014 0.00041
3707 105.36910 2366.27147 2440.36011 0.00041
3708 105.39510 2368.46352 2371.69019 0.00042
3709 105.42110 2370.96559 2332.88989 0.00043
3710 105.44710 2373.69993 2304.00000 0.00043
3711 105.47310 2376.60279 2323.23999 0.00043
3712 105.49910 2379.64102 2342.56006 0.00043
3713 105.52510 2382.82686 2332.88989 0.00043
3714 105.55110 2386.22397 2401.00000 0.00042
3715 105.57710 2389.93870 2401.00000 0.00042
3716 105.60310 2394.09426 2381.43994 0.00042
3717 105.62910 2398.79451 2401.00000 0.00042
3718 105.65510 2404.08810 2391.21021 0.00042
3719 105.68110 2409.94140 2440.36011 0.00041
3720 105.70710 2416.22382 2460.15991 0.00041
3721 105.73310 2422.70363 2391.21021 0.00042
3722 105.75910 2429.05459 2371.69019 0.00042
3723 105.78510 2434.87741 2420.64014 0.00041
3724 105.81110 2439.73943 2440.36011 0.00041
3725 105.83710 2443.23379 2470.09009 0.00040
3726 105.86310 2445.05047 2470.09009 0.00040
3727 105.88910 2445.04277 2460.15991 0.00041
3728 105.91510 2443.26725 2410.80981 0.00041
3729 105.94110 2439.98204 2352.25000 0.00043
3730 105.96710 2435.60435 2410.80981 0.00041
3731 105.99310 2430.64407 2470.09009 0.00040
3732 106.01910 2425.63529 2410.80981 0.00041
3733 106.04510 2421.07927 2352.25000 0.00043
3734 106.07110 2417.40558 2361.95996 0.00042
3735 106.09710 2414.95038 2361.95996 0.00042
3736 106.12310 2413.94471 2352.25000 0.00043
3737 106.14910 2414.50982 2361.95996 0.00042
3738 106.17510 2416.65936 2381.43994 0.00042
3739 106.20110 2420.31030 2480.04004 0.00040
3740 106.22710 2425.30298 2470.09009 0.00040
3741 106.25310 2431.42681 2470.09009 0.00040
3742 106.27910 2438.45040 2470.09009 0.00040
3743 106.30510 2446.15225 2410.80981 0.00041
3744 106.33110 2454.34405 2410.80981 0.00041
3745 106.35710 2462.88097 2430.48999 0.00041
3746 106.38310 2471.65682 2470.09009 0.00040
3747 106.40910 2480.58696 2420.64014 0.00041
3748 106.43510 2489.58669 2460.15991 0.00041
3749 106.46110 2498.55818 2450.25000 0.00041
3750 106.48710 2507.39427 2480.04004 0.00040
3751 106.51310 2515.99661 2490.01025 0.00040
3752 106.53910 2524.29961 2601.00000 0.00038
3753 106.56510 2532.28294 2480.04004 0.00040
3754 106.59110 2539.95688 2570.48999 0.00039
3755 106.61710 2547.32150 2520.04004 0.00040
3756 106.64310 2554.31617 2520.04004 0.00040
3757 106.66910 2560.78315 2530.08984 0.00040
3758 106.69510 2566.46252 2510.00977 0.00040
3759 106.72110 2571.02097 2500.00000 0.00040
3760 106.74710 2574.10485 2570.48999 0.00039
3761 106.77310 2575.40555 2530.08984 0.00040
3762 106.79910 2574.72644 2500.00000 0.00040
3763 106.82510 2572.04036 2420.64014 0.00041
3764 106.85110 2567.52452 2540.16016 0.00039
3765 106.87710 2561.55732 2520.04004 0.00040
3766 106.90310 2554.67099 2621.44019 0.00038
3767 106.92910 2547.47164 2601.00000 0.00038
3768 106.95510 2540.54897 2490.01025 0.00040
3769 106.98110 2534.39531 2490.01025 0.00040
3770 107.00710 2529.34553 2500.00000 0.00040
3771 107.03310 2525.54291 2480.04004 0.00040
3772 107.05910 2522.93148 2470.09009 0.00040
3773 107.08510 2521.27451 2490.01025 0.00040
3774 107.11110 2520.19875 2480.04004 0.00040
3775 107.13710 2519.25791 2470.09009 0.00040
3776 107.16310 2518.00978 2590.81006 0.00039
3777 107.18910 2516.09760 2500.00000 0.00040
3778 107.21510 2513.31564 2601.00000 0.00038
3779 107.24110 2509.64187 2450.25000 0.00041
3780 107.26710 2505.22851 2401.00000 0.00042
3781 107.29310 2500.35801 2450.25000 0.00041
3782 107.31910 2495.38466 2500.00000 0.00040
3783 107.34510 2490.67865 2490.01025 0.00040
3784 107.37110 2486.58452 2480.04004 0.00040
3785 107.39710 2483.39520 2510.00977 0.00040
3786 107.42310 2481.33483 2470.09009 0.00040
3787 107.44910 2480.54601 2401.00000 0.00042
3788 107.47510 2481.07929 2430.48999 0.00041
3789 107.50110 2482.88621 2460.15991 0.00041
3790 107.52710 2485.81941 2470.09009 0.00040
3791 107.55310 2489.64233 2500.00000 0.00040
3792 107.57910 2494.04801 2430.48999 0.00041
3793 107.60510 2498.68175 2420.64014 0.00041
3794 107.63110 2503.16189 2460.15991 0.00041
3795 107.65710 2507.09838 2530.08984 0.00040
3796 107.68310 2510.11347 2560.35986 0.00039
3797 107.70910 2511.86987 2510.00977 0.00040
3798 107.73510 2512.10665 2470.09009 0.00040
3799 107.76110 2510.67551 2520.04004 0.00040
3800 107.78710 2507.56842 2530.08984 0.00040
3801 107.81310 2502.93430 2520.04004 0.00040
3802 107.83910 2497.08387 2560.35986 0.00039
3803 107.86510 2490.47889 2540.16016 0.00039
3804 107.89110 2483.68566 2490.01025 0.00040
3805 107.91710 2477.24886 2480.04004 0.00040
3806 107.94310 2471.44570 2410.80981 0.00041
3807 107.96910 2465.97976 2450.25000 0.00041
3808 107.99510 2459.86941 2480.04004 0.00040
3809 108.02110 2451.83721 2420.64014 0.00041
3810 108.04710 2441.12493 2391.21021 0.00042
3811 108.07310 2428.10382 2440.36011 0.00041
3812 108.09910 2414.08711 2450.25000 0.00041
3813 108.12510 2400.52835 2371.69019 0.00042
3814 108.15110 2388.35528 2361.95996 0.00042
3815 108.17710 2377.87300 2401.00000 0.00042
3816 108.20310 2369.03864 2420.64014 0.00041
3817 108.22910 2361.73464 2401.00000 0.00042
3818 108.25510 2355.89208 2381.43994 0.00042
3819 108.28110 2351.50339 2361.95996 0.00042
3820 108.30710 2348.57768 2352.25000 0.00043
3821 108.33310 2347.06185 2361.95996 0.00042
3822 108.35910 2346.76557 2304.00000 0.00043
3823 108.38510 2347.35627 2332.88989 0.00043
3824 108.41110 2348.46750 2342.56006 0.00043
3825 108.43710 2349.88238 2361.95996 0.00042
3826 108.46310 2351.67146 2381.43994 0.00042
3827 108.48910 2354.17620 2381.43994 0.00042
3828 108.51510 2357.84422 2401.00000 0.00042
3829 108.54110 2363.03186 2401.00000 0.00042
3830 108.56710 2369.89181 2420.64014 0.00041
3831 108.59310 2378.37930 2460.15991 0.00041
3832 108.61910 2388.33058 2450.25000 0.00041
3833 108.64510 2399.54946 2500.00000 0.00040
3834 108.67110 2411.86427 2510.00977 0.00040
3835 108.69710 2425.14695 2440.36011 0.00041
3836 108.72310 2439.30198 2500.00000 0.00040
3837 108.74910 2454.23649 2470.09009 0.00040
3838 108.77510 2469.82425 2460.15991 0.00041
3839 108.80110 2485.87579 2480.04004 0.00040
3840 108.82710 2502.12393 2440.36011 0.00041
3841 108.85310 2518.23027 2510.00977 0.00040
3842 108.87910 2533.81215 2510.00977 0.00040
3843 108.90510 2548.48423 2520.04004 0.00040
3844 108.93110 2561.90497 2570.48999 0.00039
3845 108.95710 2573.81538 2611.20996 0.00038
3846 108.98310 2584.06100 2662.55981 0.00038
3847 109.00910 2592.59576 2550.25000 0.00039
3848 109.03510 2599.47362 2550.25000 0.00039
3849 109.06110 2604.83103 2580.63989 0.00039
3850 109.08710 2608.85844 2621.44019 0.00038
3851 109.11310 2611.76336 2704.00000 0.00037
3852 109.13910 2613.73263 2621.44019 0.00038
3853 109.16510 2614.90305 2641.96021 0.00038
3854 109.19110 2615.34950 2652.25000 0.00038
3855 109.21710 2615.09259 2672.89014 0.00037
3856 109.24310 2614.12210 2601.00000 0.00038
3857 109.26910 2612.42968 2652.25000 0.00038
3858 109.29510 2610.04001 2683.23999 0.00037
3859 109.32110 2607.03182 2631.68994 0.00038
3860 109.34710 2603.54165 2611.20996 0.00038
3861 109.37310 2599.74665 2520.04004 0.00040
3862 109.39910 2595.83337 2590.81006 0.00039
3863 109.42510 2591.96327 2611.20996 0.00038
3864 109.45110 2588.24397 2510.00977 0.00040
3865 109.47710 2584.71154 2601.00000 0.00038
3866 109.50310 2581.32560 2540.16016 0.00039
3867 109.52910 2577.97599 2520.04004 0.00040
3868 109.55510 2574.50169 2560.35986 0.00039
3869 109.58110 2570.72059 2520.04004 0.00040
3870 109.60710 2566.46712 2550.25000 0.00039
3871 109.63310 2561.63004 2652.25000 0.00038
3872 109.65910 2556.17772 2530.08984 0.00040
3873 109.68510 2550.16366 2470.09009 0.00040
3874 109.71110 2543.71154 2631.68994 0.00038
3875 109.73710 2536.98600 2570.48999 0.00039
3876 109.76310 2530.15795 2540.16016 0.00039
3877 109.78910 2523.37543 2480.04004 0.00040
3878 109.81510 2516.74685 2560.35986 0.00039
3879 109.84110 2510.33677 2510.00977 0.00040
3880 109.86710 2504.17391 2490.01025 0.00040
3881 109.89310 2498.26632 2560.35986 0.00039
3882 109.91910 2492.61832 2470.09009 0.00040
3883 109.94510 2487.24381 2550.25000 0.00039
3884 109.97110 2482.17137 2510.00977 0.00040
3885 109.99710 2477.44113 2470.09009 0.00040
