#------------------------------------------------------------------------------
#$Date: 2016-06-23 09:23:48 +0300 (Thu, 23 Jun 2016) $
#$Revision: 183878 $
#$URL: file:///home/coder/svn-repositories/cod/cif/7/22/56/7225652.cif $
#------------------------------------------------------------------------------
#
# This file is available in the Crystallography Open Database (COD),
# http://www.crystallography.net/
#
# All data on this site have been placed in the public domain by the
# contributors.
#
data_7225652
loop_
_publ_author_name
'Juric, Marijana'
'Molcanov, Kresimir'
'Zilic, Dijana'
'Kojic-Prodic, Biserka'
_publ_section_title
;
 From mononuclear to linear one-dimensional coordination species of
 copper(II)-chloranilate: design and characterization
;
_journal_name_full               'RSC Adv.'
_journal_paper_doi               10.1039/C6RA13809H
_journal_year                    2016
_chemical_formula_moiety         'C12 H4 Cl4 Cu O10, 2(C3 H5 N2)'
_chemical_formula_sum            'C18 H14 Cl4 Cu N4 O10'
_chemical_formula_weight         651.68
_chemical_name_systematic
;
 ?
;
_space_group_IT_number           2
_symmetry_cell_setting           triclinic
_symmetry_space_group_name_Hall  '-P 1'
_symmetry_space_group_name_H-M   'P -1'
_atom_sites_solution_hydrogens   geom
_atom_sites_solution_primary     direct
_atom_sites_solution_secondary   difmap
_audit_creation_date             2016-01-13T10:48:34-00:00
_audit_creation_method           'WinGX routine CIF_UPDATE'
_audit_update_record
;
2016-04-11 deposited with the CCDC.
2016-06-21 downloaded from the CCDC.
;
_cell_angle_alpha                70.332(8)
_cell_angle_beta                 71.570(9)
_cell_angle_gamma                67.319(10)
_cell_formula_units_Z            1
_cell_length_a                   8.2635(10)
_cell_length_b                   8.7473(8)
_cell_length_c                   9.1791(7)
_cell_measurement_reflns_used    2573
_cell_measurement_temperature    293(2)
_cell_measurement_theta_max      75.8032
_cell_measurement_theta_min      5.2349
_cell_volume                     563.05(11)
_computing_cell_refinement
;
        CrysAlisPro, Agilent Technologies,
        Version 1.171.36.20 (release 27-06-2012 CrysAlis171 .NET)
        (compiled Jul 11 2012,15:38:31)
;
_computing_data_collection
;
        CrysAlisPro, Agilent Technologies,
        Version 1.171.36.20 (release 27-06-2012 CrysAlis171 .NET)
        (compiled Jul 11 2012,15:38:31)
;
_computing_data_reduction
;
        CrysAlisPro, Agilent Technologies,
        Version 1.171.36.20 (release 27-06-2012 CrysAlis171 .NET)
        (compiled Jul 11 2012,15:38:31)
;
_computing_molecular_graphics    'Ortep-3 for Windows (Farrugia, 1997)'
_computing_publication_material  'WinGX publication routines (Farrugia, 1999)'
_computing_structure_refinement  'SHELXL-97 (Sheldrick, 1997)'
_computing_structure_solution    'SHELXS-97 (Sheldrick, 1997)'
_diffrn_ambient_temperature      293(2)
_diffrn_detector_area_resol_mean 10.4323
_diffrn_measured_fraction_theta_full 0.972
_diffrn_measured_fraction_theta_max 0.972
_diffrn_measurement_device_type  'Xcalibur, Ruby, Nova'
_diffrn_measurement_method       '\w scans'
_diffrn_radiation_monochromator  graphite
_diffrn_radiation_type           CuK\a
_diffrn_radiation_wavelength     1.54184
_diffrn_reflns_av_R_equivalents  0.04
_diffrn_reflns_av_unetI/netI     0.037
_diffrn_reflns_limit_h_max       10
_diffrn_reflns_limit_h_min       -9
_diffrn_reflns_limit_k_max       10
_diffrn_reflns_limit_k_min       -9
_diffrn_reflns_limit_l_max       11
_diffrn_reflns_limit_l_min       -7
_diffrn_reflns_number            4503
_diffrn_reflns_theta_full        75.99
_diffrn_reflns_theta_max         75.99
_diffrn_reflns_theta_min         5.24
_exptl_absorpt_coefficient_mu    6.356
_exptl_absorpt_correction_T_max  1
_exptl_absorpt_correction_T_min  0.66584
_exptl_absorpt_correction_type   multi-scan
_exptl_absorpt_process_details
;
        CrysAlisPro, Agilent Technologies,
        Version 1.171.36.20 (release 27-06-2012 CrysAlis171 .NET)
        (compiled Jul 11 2012,15:38:31)
        Empirical absorption correction using spherical harmonics,
 implemented in SCALE3 ABSPACK scaling algorithm.
;
_exptl_crystal_colour            'dark purple'
_exptl_crystal_density_diffrn    1.922
_exptl_crystal_density_method    'not measured'
_exptl_crystal_description       prism
_exptl_crystal_F_000             327.0
_exptl_crystal_recrystallization_method 'Re-crystallisation from solvent'
_exptl_crystal_size_max          0.15
_exptl_crystal_size_mid          0.12
_exptl_crystal_size_min          0.10
_refine_diff_density_max         0.528
_refine_diff_density_min         -0.751
_refine_diff_density_rms         0.088
_refine_ls_extinction_method     none
_refine_ls_goodness_of_fit_ref   1.077
_refine_ls_hydrogen_treatment    mixed
_refine_ls_matrix_type           full
_refine_ls_number_parameters     177
_refine_ls_number_reflns         2278
_refine_ls_number_restraints     3
_refine_ls_restrained_S_all      1.077
_refine_ls_R_factor_all          0.0463
_refine_ls_R_factor_gt           0.0429
_refine_ls_shift/su_max          0
_refine_ls_shift/su_mean         0
_refine_ls_structure_factor_coef Fsqd
_refine_ls_weighting_details
'calc w=1/[\s^2^(Fo^2^)+(0.0821P)^2^+0.1492P] where P=(Fo^2^+2Fc^2^)/3'
_refine_ls_weighting_scheme      calc
_refine_ls_wR_factor_ref         0.127
_reflns_number_gt                2094
_reflns_number_total             2278
_reflns_threshold_expression     >2sigma(I)
_iucr_refine_instructions_details
;
TITL Cu-CA-iz-116 in P-1
CELL  1.54184   8.2635   8.7473   9.1791   70.332   71.570   67.319
ZERR     2.00   0.0010   0.0008   0.0007    0.008    0.009    0.010
LATT   1
SFAC  C        2.31000 20.84392  1.02000 10.20751   1.58860   0.56870 =
         0.86500  51.65125   0.21560   0.018   0.009    89.900   0.770  12.011
SFAC  H        0.49300 10.51091  0.32291 26.12573   0.14019   3.14236 =
         0.04081  57.79977   0.00304   0.000   0.000     0.660   0.320   1.008
SFAC  N       12.21261  0.00570  3.13220  9.89331   2.01250  28.99754 =
         1.16630   0.58260 -11.52901   0.031   0.018   173.000   0.700  14.007
SFAC  O        3.04850 13.27711  2.28680  5.70111   1.54630   0.32390 =
         0.86700  32.90894   0.25080   0.049   0.032   304.000   0.660  15.999
SFAC  CL      11.46041  0.01040  7.19641  1.16620   6.25561  18.51942 =
         1.64550  47.77846  -9.55741   0.364   0.702  6240.000   0.990  35.453
SFAC  CU      13.33801  3.58280  7.16761  0.24700   5.61581  11.39661 =
         1.67350  64.81267   1.19100  -1.965   0.589  5470.000   1.280  63.546
UNIT  18    14    4    10    4    2
MERG   2
OMIT    1 10 6
DFIX     0.950   0.020 H5A O5
DFIX     0.950   0.020 O5 H5B
DANG     1.500   0.040 H5A H5B
FMAP   2
PLAN   20
L.S.  10
BOND    $H
HTAB
CONF
ACTA
WGHT    0.082100    0.149200
FVAR       5.87196
MOLE    1
CU1   6    0.500000    0.000000    0.500000    10.50000    0.04228    0.02887 =
         0.02699   -0.01030   -0.02052    0.00150
CL1   5    0.165674    0.470973    0.121449    11.00000    0.05666    0.04272 =
         0.03114   -0.01397   -0.02750    0.00250
CL2   5    0.326332    0.489667    0.744315    11.00000    0.05181    0.04289 =
         0.03055   -0.01496   -0.02157   -0.00494
O1    4    0.444889    0.188708    0.601988    11.00000    0.04091    0.03080 =
         0.02766   -0.00937   -0.01898   -0.00075
O2    4    0.379705    0.184090    0.342440    11.00000    0.04402    0.03087 =
         0.02841   -0.01121   -0.02038    0.00152
O3    4    0.018435    0.756164    0.278388    11.00000    0.04684    0.03087 =
         0.03819   -0.01014   -0.02441    0.00152
O4    4    0.103747    0.771616    0.529222    11.00000    0.05690    0.03268 =
         0.04417   -0.01645   -0.02530   -0.00165
O5    4    0.220422   -0.050182    0.655959    11.00000    0.04016    0.03919 =
         0.03925   -0.01728   -0.01826   -0.00275
C1    1    0.346435    0.331156    0.531013    11.00000    0.02962    0.03148 =
         0.02344   -0.00697   -0.01231   -0.00454
C2    1    0.309138    0.327475    0.380133    11.00000    0.03272    0.03317 =
         0.02565   -0.01005   -0.01154   -0.00629
C3    1    0.204374    0.472836    0.295659    11.00000    0.03893    0.03234 =
         0.02311   -0.00830   -0.01534   -0.00474
C4    1    0.122134    0.626642    0.344991    11.00000    0.03366    0.03173 =
         0.02646   -0.00627   -0.01343   -0.00735
C5    1    0.167013    0.633691    0.494294    11.00000    0.03522    0.03044 =
         0.02785   -0.01003   -0.01107   -0.00576
C6    1    0.278483    0.480892    0.577459    11.00000    0.03660    0.03508 =
         0.02227   -0.00889   -0.01223   -0.00708
H5A   2    0.194389   -0.129459    0.628933    11.00000    0.06412
H5B   2    0.123358    0.046733    0.650507    11.00000    0.04437
MOLE    2
N1    3    0.632918    0.104415    0.846904    11.00000    0.04214    0.04442 =
         0.03563   -0.00617   -0.02055   -0.00975
AFIX  43
H1    2    0.570901    0.153294    0.774710    11.00000   -1.20000
AFIX   0
N2    3    0.726146    0.051762    1.055888    11.00000    0.05179    0.05495 =
         0.02748   -0.00959   -0.01798   -0.01606
AFIX  43
H2    2    0.734929    0.060482    1.143456    11.00000   -1.20000
AFIX   0
C7    1    0.606229    0.159209    0.971984    11.00000    0.04156    0.04953 =
         0.03797   -0.01210   -0.01314   -0.00783
AFIX  43
H7    2    0.517750    0.257169    0.997042    11.00000   -1.20000
AFIX   0
C8    1    0.834113   -0.075489    0.981676    11.00000    0.04672    0.04521 =
         0.04256   -0.00647   -0.02430   -0.00999
AFIX  43
H8    2    0.929996   -0.167197    1.015403    11.00000   -1.20000
AFIX   0
C9    1    0.774802   -0.042474    0.849895    11.00000    0.04708    0.04249 =
         0.03975   -0.01146   -0.01756   -0.01052
AFIX  43
H9    2    0.821616   -0.107367    0.775343    11.00000   -1.20000
HKLF    4
 
REM  Cu-CA-iz-116 in P-1
REM R1 =  0.0429 for   2094 Fo > 4sig(Fo)  and  0.0463 for all   2278 data
REM    177 parameters refined using      3 restraints
 
END
 
WGHT      0.0805      0.1465
REM Highest difference peak  0.528,  deepest hole -0.751,  1-sigma level  0.088
Q1    1   0.4447  0.1023  0.4177  11.00000  0.05    0.53
Q2    1   0.2164  0.5518  0.5363  11.00000  0.05    0.37
Q3    1   0.2507  0.4433  0.7844  11.00000  0.05    0.36
Q4    1   0.1440  0.6149  0.4137  11.00000  0.05    0.34
Q5    1   0.3958  0.2632  0.5601  11.00000  0.05    0.33
Q6    1   0.3747 -0.0411  0.5593  11.00000  0.05    0.32
Q7    1   0.2225  0.3616  0.1954  11.00000  0.05    0.30
Q8    1   0.2495 -0.0415  0.5610  11.00000  0.05    0.29
Q9    1   0.4169  0.0276  0.6559  11.00000  0.05    0.29
Q10   1   0.4669  0.1202  0.5836  11.00000  0.05    0.28
Q11   1   0.3228  0.3369  0.4574  11.00000  0.05    0.28
Q12   1   0.2705  0.4990  0.0804  11.00000  0.05    0.28
Q13   1   0.3791  0.3927  0.8125  11.00000  0.05    0.28
Q14   1   0.6782  0.1203  1.0021  11.00000  0.05    0.28
Q15   1   0.2145  0.1151  0.5638  11.00000  0.05    0.28
Q16   1   0.4957  0.2186  0.2845  11.00000  0.05    0.26
Q17   1   0.2930 -0.0867  0.4782  11.00000  0.05    0.26
Q18   1   0.0331  0.6990  0.2417  11.00000  0.05    0.26
Q19   1   0.3500  0.2586  0.3671  11.00000  0.05    0.25
Q20   1   0.3449  0.1443  0.6841  11.00000  0.05    0.25
;
_cod_data_source_file            c6ra13809h2.cif
_cod_data_source_block           cu-ca-iz-116
_cod_original_cell_volume        563.05(10)
_cod_original_formula_sum        'C18 H14 Cl4 Cu N4 O10 '
_cod_database_code               7225652
_iucr_refine_reflections_details
;
   0   0   1 69058.2 799.273   2
   0   0   1 87119.6 1132.80   1
   0   0  -2 13494.9 423.125   3
   0   0   2 14678.6 576.116   1
   0   0   3 704.447 169.515   1
   0   0  -3 677.579 116.254   3
   0   0  -4 4639.47 356.954   3
   0   0   4 4960.31 525.859   1
   0   0   5 40666.7 1708.80   1
   0   0  -5 36030.2 1164.54   3
   0   0   7 34.8735 41.3057  16
   0   0   7 65.1216 48.2112  27
   0   0   7 33.1612 37.4807  23
   0   0   7 7.40824 30.4712  20
   0   0   7 54.8720 39.5928   9
   0   0   8 32062.6 721.562  23
   0   0   8 30106.2 922.672  27
   0   0   9 1656.58 201.052  27
   0   0  10 184.763 58.3232  27
   0   0  10 183.066 56.5002  15
   0  -1  10 344.097 65.8180  15
   0  -1  10 400.412 61.2759  27
   0  -1   9 2279.89 204.154  27
   0  -1   9 1974.43 153.850  20
   0  -1   8 7432.04 380.159  20
   0  -1   8 8078.70 447.175  27
   0  -1   7 9170.96 429.094  20
   0  -1   7 8517.68 365.282  23
   0  -1   7 8826.15 479.763  27
   0  -1   6 45708.8 830.567  23
   0  -1   6 49072.6 1112.04  27
   0  -1   5 244.878 132.735   1
   0   1  -5 226.884 97.1893   3
   0  -1   4 4194.35 461.312   1
   0   1  -4 3804.98 336.635   3
   0  -1   3 6150.22 461.112   1
   0   1  -3 5406.33 344.343   3
   0  -1   2 82242.4 1534.46   1
   0   1  -2 78289.3 1252.39   3
   0   1  -1 226.695 48.1895   3
   0  -1   1 303.627 66.0136   1
   0   1   0 238.387 41.4293   3
   0   1   1 6275.38 235.501   2
   0   1   2 104218. 1895.42   1
   0   1   2 104789. 1379.23   2
   0   1   3 1428.60 157.162   2
   0   1   3 1978.76 282.042   1
   0   1   4 4.80904 52.8920   1
   0   1   4 61.3259 55.6881   2
   0  -1  -5 15713.0 770.886   3
   0   1   5 15370.7 1102.20   1
   0   1   5 16321.6 679.172   2
   0  -1  -6 42440.8 1425.04   3
   0   1   7 20793.3 573.825  16
   0   1   7 20869.3 613.402   9
   0   1   7 22478.4 794.720  27
   0   1   8 49.0588 31.8596  16
   0   1   8 96.1923 66.4447  27
   0   1   8 25.0312 33.3914  23
   0   1   9 4816.36 356.797  27
   0   1   9 6287.52 289.070  23
   0   1  10 116.439 50.5656  27
   0   1  10 14.1911 21.3651  15
   0  -2   9 155.613 52.5217  20
   0  -2   9 177.477 52.4155  27
   0  -2   8 549.114 108.016  20
   0  -2   8 709.146 117.541  27
   0  -2   7 6201.61 373.996  27
   0  -2   7 6777.02 383.806  20
   0  -2   6 458.790 98.3386  27
   0  -2   6 28.6973 35.7770  20
   0   2  -5 9802.61 637.839   3
   0  -2   4 8412.29 261.055   6
   0   2  -4 7664.30 524.729   3
   0   2  -3 25963.7 864.912   3
   0  -2   3 31517.2 1052.13   1
   0   2  -2 24067.3 728.814   3
   0  -2   2 25404.0 819.252   1
   0  -2   1 34052.0 857.987   1
   0   2  -1 32430.8 792.001   3
   0   2   0 165647. 1994.28   3
   0   2   1 18584.3 549.421   2
   0   2   2 5798.05 324.588   2
   0   2   3 21195.0 677.754   2
   0   2   4 1099.98 170.086   2
   0   2   5 39365.5 1131.20   2
   0   2   6 394.777 122.135   2
   0  -2  -6 317.393 113.811   3
   0   2   7 4473.72 255.708  16
   0   2   7 4317.73 350.861  27
   0   2   7 3845.28 216.238  10
   0   2   7 4444.53 281.591   9
   0   2   8 41769.0 1103.85  27
   0   2   8 39874.7 929.960   9
   0   2   8 41105.5 875.217  16
   0   2   9 841.915 145.046  27
   0   2   9 1098.72 164.575  15
   0   2   9 1102.91 130.878  23
   0   2   9 1024.33 123.876  16
   0   2  10 27.4367 28.9315  23
   0   2  10-34.1474 40.1775  27
   0  -3   9 1606.71 110.825  20
   0  -3   8 138.943 54.1650  20
   0  -3   7 21816.8 696.241  20
   0  -3   6 16300.2 632.109  20
   0  -3   5 2240.41 212.826  20
   0  -3   4 22739.7 484.690   6
   0   3  -4 19124.8 923.120   3
   0  -3   3 6137.91 209.536   6
   0   3  -3 5603.84 456.351   3
   0   3  -2 76093.8 1613.17   3
   0   3  -1 4836.82 341.079   3
   0  -3   1 4835.94 354.252   1
   0   3   0 29700.1 878.877   2
   0   3   1 89792.1 1611.20   2
   0   3   2 42271.6 1075.97   2
   0   3   3 24580.5 835.710   2
   0   3   4 1278.99 199.679   2
   0   3   5 1666.46 249.219   2
   0   3   6 46437.0 1403.59   2
   0   3   7 22271.7 731.512  27
   0   3   7 20685.4 564.466  10
   0   3   7 21494.6 660.961   9
   0   3   8 4344.08 295.600   9
   0   3   8 4438.60 250.846  10
   0   3   8 4836.49 275.396  16
   0   3   8 4524.06 325.653  27
   0   3   8 4852.86 285.768  23
   0   3   9 3778.92 230.346  16
   0   3   9 4325.67 253.721  23
   0   3  10 412.066 65.4256  23
   0   3  10 342.968 65.8084  27
   0  -4   8 9189.62 322.799  20
   0  -4   7 134.294 70.5129  20
   0  -4   6 1553.39 191.209  20
   0  -4   5 5291.11 335.848  20
   0  -4   4 11431.0 374.497   6
   0  -4   4 12307.3 471.317  20
   0   4  -3 4026.56 429.405   3
   0  -4   3 4328.09 196.142   6
   0   4  -2 9320.81 610.462   3
   0   4  -1 1795.21 259.730   2
   0   4   0 80436.7 1771.11   2
   0   4   1 17154.9 766.345   2
   0   4   2 723.553 161.105   2
   0   4   3 21493.5 890.014   2
   0   4   4 15538.8 787.910   2
   0   4   5 62543.0 1707.26   2
   0   4   6 52358.0 990.240   9
   0   4   6 57662.6 1038.99  14
   0   4   6 58956.2 1011.00  25
   0   4   6 52656.5 962.365  10
   0   4   6 53649.5 1191.41  28
   0   4   6 47789.1 1543.86   2
   0   4   7 4860.54 268.709  16
   0   4   7 5093.39 310.011  14
   0   4   7 4361.86 259.725  10
   0   4   7 4690.43 347.001  28
   0   4   7 4428.81 287.501   9
   0   4   8 888.871 117.276  10
   0   4   8 866.597 135.565   9
   0   4   8 990.139 120.597  16
   0   4   9 418.743 82.4737  23
   0   4   9 399.962 72.1838  16
   0   4  10 539.328 73.0057  23
   0   4  10 10.1261 14.7913   8
   0  -5   7 1616.40 142.538  20
   0   5  -6 2524.45 144.410  26
   0  -5   6 2810.59 223.844  20
   0  -5   5 2479.50 227.077  20
   0  -5   4 1131.02 152.165  20
   0   5  -3 7206.92 298.935  24
   0  -5   3 7746.44 349.623  20
   0   5  -2 32819.1 1275.15   2
   0   5  -1 11103.8 720.602   2
   0   5   0 357.568 127.449   2
   0   5   1 61723.2 1714.72   2
   0   5   2 6333.97 529.944   2
   0   5   3 32949.2 1252.43   2
   0   5   4 312.037 111.569   2
   0   5   5-7.57556 33.2418   2
   0   5   5 162.155 51.8030  10
   0   5   5 168.365 57.3785  14
   0   5   5 80.6247 38.2270  25
   0   5   5 122.926 57.7362  28
   0   5   6 38798.3 1441.27   2
   0   5   6 41178.4 864.396  10
   0   5   6 42682.5 924.064  14
   0   5   6 45086.9 924.406  25
   0   5   6 40259.5 1048.63  28
   0   5   6 42354.1 801.634  16
   0   5   6 39653.1 863.710   9
   0   5   7 43507.5 846.627  16
   0   5   7 39450.4 852.955  10
   0   5   7 41425.9 941.078  14
   0   5   7 40410.3 896.554   9
   0   5   7 40964.7 1074.61  28
   0   5   8 171.387 56.2080  10
   0   5   8 84.4440 55.4959  14
   0   5   8 141.952 43.5300  16
   0   5   9 5929.19 274.019  23
   0   5   9 7409.63 277.907  16
   0   5  10 354.807 52.7561  23
   0   5  10 343.863 40.9751   8
   0   6  -6 253.945 40.8209  26
   0  -6   6 178.178 49.9760  12
   0  -6   6 271.548 61.7831  20
   0  -6   5-0.07767 35.2742  20
   0   6  -5 10.1181 28.1766  26
   0  -6   4 347.056 79.9412  20
   0   6  -4 350.784 69.4439  26
   0   6  -4 329.171 66.5763  24
   0   6  -3 3222.10 198.104  26
   0   6  -3 3508.63 217.823  24
   0   6  -2 226.302 55.8879  26
   0   6  -2 235.318 64.0736  24
   0   6  -1 8296.78 302.373  26
   0   6  -1 8642.92 337.062  24
   0   6   0 30989.3 649.142  24
   0   6   0 30362.3 584.104  26
   0   6   1 13618.5 859.760   2
   0   6   2 3398.30 435.923   2
   0   6   3 425.444 159.101   2
   0   6   4 2721.00 387.404   2
   0   6   4 2787.06 234.233  28
   0   6   4 2927.94 202.645  10
   0   6   5 10754.5 501.849  28
   0   6   5 12265.3 483.332  25
   0   6   5 11465.6 793.590   2
   0   6   5 11598.1 483.885  14
   0   6   5 11607.7 432.574  10
   0   6   6 2871.11 272.568  28
   0   6   6 2609.45 227.619  14
   0   6   6 3058.63 221.918  10
   0   6   6 3169.02 238.140  25
   0   6   7 11168.5 417.148  10
   0   6   7 12063.5 381.698  16
   0   6   7 11242.9 431.970  25
   0   6   8 14002.6 381.224  16
   0   6   8 13831.4 433.158  10
   0   6   9 2395.97 127.415  16
   0   6   9 1765.93 132.983  23
   0   6  10 713.981 50.7645   8
   0   6  10 771.546 61.5402  23
   0   7  -5 4445.22 148.758  26
   0  -7   5 3723.14 208.632  12
   0   7  -4 2754.44 155.474  26
   0   7  -4 2602.48 138.557  24
   0   7  -3 322.021 65.5880  26
   0   7  -3 410.554 70.7508  24
   0   7  -2 7788.13 328.810  24
   0   7  -2 7314.74 299.887  26
   0   7  -1 4980.97 243.522  26
   0   7  -1 4863.46 265.262  24
   0   7   0 11537.5 370.310  26
   0   7   0 11005.8 400.186  24
   0   7   1 8303.18 304.104  26
   0   7   1 8269.50 328.409  24
   0   7   2 587.055 81.6286  24
   0   7   3 6647.20 260.926  24
   0   7   4 3340.55 215.425  10
   0   7   4 3022.69 250.192  28
   0   7   4 2868.52 235.754  25
   0   7   5 14537.8 568.525  28
   0   7   5 15260.0 536.908  25
   0   7   5 16003.5 484.844  10
   0   7   6 13205.3 437.503  10
   0   7   6 12940.1 469.480  25
   0   7   6 11908.8 515.419  28
   0   7   7 1174.65 141.622  14
   0   7   7 1764.53 149.585  10
   0   7   7 1656.37 154.090  25
   0   7   7 1743.04 181.965  28
   0   7   8 104.040 50.4780  14
   0   7   8 74.9844 32.5224  10
   0   7   9 942.429 80.2706  23
   0  -8   4 1507.73 116.993  12
   0   8  -3 5519.95 198.414  24
   0   8  -2 1261.36 114.545  24
   0   8  -2 1098.37 107.791  26
   0   8  -1 1316.45 126.514  24
   0   8   0 3571.94 212.027  24
   0   8   1 2635.87 181.961  24
   0   8   2 930.772 106.776  24
   0   8   3 1473.47 119.115  24
   0   8   4 18138.8 569.260  25
   0   8   5 12232.3 446.679  25
   0   8   5 11641.2 466.484  14
   0   8   6 942.437 122.445  14
   0   8   6 1121.55 119.489  25
   0   8   6 1388.37 119.965  10
   0   8   6 1241.28 131.157  28
   0   8   7 165.529 45.0486  25
   0   8   7 155.478 52.4954  14
   0   8   7 181.699 44.4605  10
   0   8   8 2172.41 126.861  14
   0   9  -2 5877.12 165.555  24
   0  -9   2 3842.18 170.505  12
   0  -9   1 1021.52 97.6130  12
   0   9  -1 1836.75 116.485  24
   0   9   0 38.8541 28.7199  24
   0  -9   0 7.59523 27.3776  12
   0   9   1 1801.47 128.376  24
   0   9   2 305.519 54.4204  24
   0   9   3 18017.6 363.434  24
   0   9   3 15196.6 457.864  25
   0   9   4 1495.80 133.204  25
   0   9   4 1591.01 155.315  14
   0   9   4 1811.57 102.663  13
   0   9   5-14.5758 27.6380  25
   0   9   5-12.4120 37.5567  14
   0   9   6 5599.09 222.427  14
   0   9   6 4189.01 177.029  25
   0   9   7 48.3403 23.2009  14
   0  10   2 1262.15 91.3856  14
   0  10   3 277.259 45.8990  14
   0  10   4 2657.32 119.097  14
  -1   9   5 229.111 39.8783  14
  -1   9   4 300.387 37.1926  13
  -1   9   4 272.701 54.2077  14
  -1   9   3 172.997 36.4624  13
  -1   9   3 112.387 45.3839  14
  -1   9   3 62.8193 24.9437  25
  -1   9   2 9012.75 233.172  13
  -1   9   2 4157.50 173.102  25
  -1   8   7 141.957 39.4888  14
  -1   8   6 210.633 53.7914  14
  -1   8   6 233.147 48.6531  25
  -1   8   5 234.151 64.9647  28
  -1   8   5 307.110 46.6730  13
  -1   8   5 204.916 48.5018  25
  -1   8   5 242.928 65.3731  14
  -1   8   4 2256.05 132.165  13
  -1   8   4 1924.72 184.029  14
  -1   8   4 2298.25 191.149  28
  -1   8   4 1891.17 155.130  25
  -1   8   3 6867.89 336.500  28
  -1   8   3 6072.89 289.358  25
  -1   8   2 87.9566 47.2427  25
  -1   8   2 56.1657 32.3739  28
  -1   8   2 80.2282 36.9799  24
  -1   8   1 111.853 48.4443  24
   1  -8   0 3858.44 229.890  12
  -1   8   0 4878.34 236.320  24
   1  -8   1 201.487 63.2729  12
  -1   8  -1 434.517 71.1869  24
   1  -8   2 997.203 124.130  12
  -1   8  -2 1245.30 103.467  24
   1  -8   3 60.2757 33.0736  12
   1  -8   4 389.486 50.4918  12
  -1   7   7 8601.31 372.518  28
  -1   7   7 7120.89 301.292  14
  -1   7   6 3419.46 198.076  10
  -1   7   6 2602.38 181.419  25
  -1   7   6 3016.68 249.957  28
  -1   7   6 2138.58 177.015  14
  -1   7   5 4984.22 329.797  28
  -1   7   5 4223.51 252.312  25
  -1   7   5 4132.38 275.600  14
  -1   7   5 5469.73 258.458  10
  -1   7   5 4546.05 196.738  13
  -1   7   4 10136.2 316.673  13
  -1   7   4 10155.1 412.338  25
  -1   7   4 9947.46 453.515  14
  -1   7   4 10641.2 488.241  28
  -1   7   3 424.388 99.0432  28
  -1   7   3 438.301 69.3885  24
  -1   7   3 466.746 99.2699  25
  -1   7   2 18089.7 631.225  28
  -1   7   2 16953.8 459.106  24
  -1   7   1 149.626 71.5542  28
  -1   7   1 152.427 45.7917  24
  -1   7   0 4230.70 240.592  24
  -1   7  -1 1379.64 143.285  24
  -1   7  -2 3637.97 203.575  26
  -1   7  -2 4142.56 235.669  24
  -1   7  -3 780.459 90.9453  26
  -1   7  -3 915.864 98.6940  24
  -1   7  -4 2137.51 115.970  24
   1  -7   4 2402.51 200.300  12
   1  -7   5 102.199 37.3404  12
  -1   6   9 632.371 63.5750  23
  -1   6   9 933.191 72.7007   8
  -1   6   8 10099.5 352.254  14
  -1   6   7 3578.59 284.302  28
  -1   6   7 3733.84 227.752  10
  -1   6   6 435.141 92.6845  14
  -1   6   6 542.689 99.7719  25
  -1   6   6 647.416 138.853  28
  -1   6   6 443.908 83.8045  10
  -1   6   5 50.2148 45.2599  25
  -1   6   5 120.455 49.6861  10
  -1   6   5 96.4547 60.3256  28
  -1   6   5 63.2170 55.7004  14
  -1   6   5 49.6791 30.4792  13
  -1   6   4 1488.79 143.231  10
  -1   6   4 1438.48 164.176  25
  -1   6   4 1647.05 198.278  28
  -1   6   4 1242.13 110.687  13
  -1   6   3 5773.67 351.123  28
  -1   6   3 5793.07 566.402   2
  -1   6   3 5088.59 220.716  24
  -1   6   2 315.093 88.3264  28
  -1   6   2 195.101 47.5217  24
  -1   6   2 137.859 85.3795   2
  -1   6   1 23523.1 1139.86   2
  -1   6   1 26723.4 590.246  24
  -1   6   0 68268.7 993.742  26
  -1   6   0 68678.4 1059.12  24
  -1   6  -1 6699.12 277.879  26
  -1   6  -1 6576.62 305.245  24
  -1   6  -2 4775.77 257.165  24
  -1   6  -2 4336.35 227.569  26
  -1   6  -3 891.438 112.310  24
  -1   6  -3 821.583 104.301  26
  -1   6  -4 13849.5 389.968  26
  -1   6  -4 14617.8 399.994  24
  -1   6  -5 18274.5 387.159  26
   1  -6   5 20417.6 522.014  20
   1  -6   6 180.704 47.4927  20
   1  -6   6 105.579 35.3510  12
  -1   5   9 574.857 72.9845  23
  -1   5   8 1584.91 125.816  16
  -1   5   7 11322.5 457.198  14
  -1   5   7 12534.5 577.746  28
  -1   5   7 12897.1 452.887  10
  -1   5   6 1220.11 179.393  28
  -1   5   6 1249.36 144.276  25
  -1   5   6 1083.83 137.003  14
  -1   5   6 1362.25 151.457  10
  -1   5   5 13522.4 357.945  13
  -1   5   5 16532.0 522.598  25
  -1   5   5 15330.0 921.669   2
  -1   5   5 16690.9 559.724  14
  -1   5   5 15062.0 482.146  10
  -1   5   5 14099.9 585.511  28
  -1   5   4 719.262 119.256  28
  -1   5   4 734.376 98.6817  10
  -1   5   4 613.900 70.1990  13
  -1   5   4 849.253 215.241   2
  -1   5   4 805.764 110.073  25
  -1   5   3 23315.1 1090.96   2
  -1   5   2 42711.1 1460.26   2
   1  -5  -1 20613.8 445.285   6
  -1   5   1 21015.1 994.979   2
   1  -5   0 117.733 31.3883   6
  -1   5   0 267.216 111.403   2
   1  -5   1 14480.0 368.602   6
  -1   5  -1 13192.7 780.784   2
   1  -5   2 1619.25 130.270   6
  -1   5  -2 1621.17 125.010  26
  -1   5  -2 1605.72 138.683  24
  -1   5  -3 5128.13 236.922  26
  -1   5  -3 5583.41 264.024  24
   1  -5   3 5937.04 268.256   6
   1  -5   3 5553.30 291.473  20
  -1   5  -4 103.215 49.4871  26
   1  -5   4 162.422 69.7281  20
  -1   5  -4 76.3065 40.2215  24
   1  -5   4 87.2955 48.7120   6
   1  -5   5 6725.95 343.834  20
  -1   5  -5 5516.50 233.092  26
   1  -5   6 3585.28 258.427  12
   1  -5   6 4633.37 273.345  20
   1  -5   7 4607.14 226.836  20
  -1   4  10 474.690 50.0355  23
  -1   4   9 444.706 62.6285   8
  -1   4   9 403.651 69.8869  23
  -1   4   8 1351.42 130.684  16
  -1   4   7 1747.77 171.255  10
  -1   4   7 2083.65 195.570  14
  -1   4   7 1828.21 220.818  28
  -1   4   7 1979.48 163.747  16
  -1   4   6 5610.15 537.748   2
  -1   4   6 5434.99 315.562   9
  -1   4   6 5656.32 382.157  28
  -1   4   6 5655.35 298.444  10
  -1   4   6 6841.49 328.561  25
  -1   4   6 6141.02 285.171  16
  -1   4   6 6393.77 330.257  14
  -1   4   5 553.036 162.439   2
  -1   4   5 590.074 98.3645  14
  -1   4   5 664.118 96.9280  10
  -1   4   5 546.513 110.626  28
  -1   4   4 1833.60 288.030   2
  -1   4   3 9337.98 620.961   2
  -1   4   2 13644.4 726.111   2
  -1   4   1 2732.98 320.469   2
  -1   4   0 18722.1 833.211   2
  -1   4  -1 19354.8 843.793   2
   1  -4   1 18646.8 386.041   6
   1  -4   2 7309.29 248.689   6
  -1   4  -2 7724.77 531.691   2
   1  -4   3 6582.86 253.171   6
   1  -4   4 208.602 52.8551   6
   1  -4   4 282.641 74.1121  20
   1  -4   5 14242.4 537.796  20
  -1   4  -5 12095.2 355.308  26
   1  -4   6 1143.06 153.926  20
   1  -4   7 10252.4 428.761  20
   1  -4   8 2016.95 151.871  20
  -1   3  10 4620.93 164.935  23
  -1   3  10-13.4737 18.2375  27
  -1   3   9 1074.05 93.2071   8
  -1   3   9 1261.02 130.039  23
  -1   3   9 888.436 119.068  27
  -1   3   8 106.283 61.2399  27
  -1   3   8 72.5103 45.3656  23
  -1   3   8 93.7328 50.3378  16
  -1   3   7 3111.73 224.322  10
  -1   3   7 3635.35 230.810  16
  -1   3   7 3107.70 250.654   9
  -1   3   7 2981.92 251.945  27
  -1   3   6 811.858 196.270   2
  -1   3   6 968.719 152.993  28
  -1   3   6 854.266 108.127  16
  -1   3   6 953.787 123.830  14
  -1   3   6 845.469 127.645   9
  -1   3   6 759.127 107.299  10
  -1   3   5 56306.9 1637.52   2
  -1   3   4 28024.6 521.584   4
  -1   3   4 28857.1 1078.74   2
  -1   3   3 7919.63 516.394   2
  -1   3   2 120337. 2100.99   2
  -1   3   1-1.20715 30.0297   2
  -1   3   0 658.735 135.406   2
  -1   3  -1 34096.8 976.436   2
   1  -3   2 218.411 109.750   1
  -1   3  -2 231.119 81.0426   2
  -1   3  -3 18601.5 748.693   2
   1  -3   3 21364.6 428.342   6
   1  -3   4 7348.56 272.590   6
   1  -3   5 29.0279 29.2334  20
   1  -3   5 56.3180 41.9826   6
   1  -3   6 28824.1 818.113  20
   1  -3   7 16531.0 592.088  20
   1  -3   8 96.2837 40.8610  20
   1  -3   9 847.619 86.4509  20
  -1   2  10 538.754 76.2153  27
  -1   2   9 3089.03 190.848  23
  -1   2   9 2220.96 208.361  27
  -1   2   8 4626.69 337.791  27
  -1   2   8 5312.89 289.366  16
  -1   2   7 1478.70 176.626   9
  -1   2   7 1636.18 165.084  23
  -1   2   7 1449.15 191.497  27
  -1   2   7 1474.03 158.043  16
  -1   2   6 22908.3 575.410  16
   1  -2  -6 18465.4 1073.01   3
  -1   2   6 25099.3 631.353  14
  -1   2   6 21257.5 983.646   2
  -1   2   6 21003.6 639.249   9
  -1   2   6 25123.0 761.360  28
  -1   2   5 1832.47 272.403   2
  -1   2   4 75433.7 1688.45   2
  -1   2   3 57536.0 1331.24   2
  -1   2   2 47951.1 1111.30   2
  -1   2   1 109.642 45.5284   2
  -1   2   0 56296.7 1080.74   2
  -1   2  -1 62560.7 1128.90   2
   1  -2   2 63007.1 1745.11   1
  -1   2  -2 60286.6 1150.72   3
   1  -2   3 12210.5 778.328   1
  -1   2  -3 10817.4 496.596   3
   1  -2   4 30471.0 546.111   6
  -1   2  -4 28736.1 924.316   3
   1  -2   5 42054.6 739.105   6
   1  -2   6 28012.7 785.870  20
   1  -2   6 26201.4 711.973  27
   1  -2   7 50.6936 50.2685  27
   1  -2   7 31.7540 53.3705  20
   1  -2   8 40.4438 50.1240  20
   1  -2   8 32.6720 37.8207  27
   1  -2   9 6067.54 274.726  20
   1  -2   9 5519.06 253.917  27
  -1   1  10 2253.18 157.943  27
  -1   1   9 1933.37 147.073  23
  -1   1   9 1480.79 176.025  27
  -1   1   8 12.4631 48.0251  27
  -1   1   8 65.3824 47.1466  23
  -1   1   7 2197.50 178.597  23
  -1   1   7 1625.37 211.710  27
  -1   1   7 1765.39 172.146  16
   1  -1  -6 13503.8 887.858   3
  -1   1   5 58780.6 1521.15   2
   1  -1  -5 54322.0 1696.44   3
  -1   1   4 2209.10 255.668   2
  -1   1   3 12138.4 540.410   2
  -1   1   2 76143.1 1312.65   2
  -1   1   1 7089.06 316.400   2
  -1   1   0 43452.7 748.252   2
  -1   1  -1 335.170 55.4253   2
   1  -1   2 23421.4 943.472   1
  -1   1  -2 22031.2 524.129   3
  -1   1  -3 244209. 2846.71   3
   1  -1   3 273671. 4085.60   1
   1  -1   4 187.185 115.767   1
  -1   1  -4 235.584 69.3381   3
   1  -1   5 3413.29 466.873   1
   1  -1   5 2853.01 160.774   6
   1  -1   6 27727.2 617.048  23
   1  -1   6 31640.0 1592.55   1
   1  -1   7 7220.34 407.029  27
   1  -1   7 7031.55 379.092  20
   1  -1   8 4968.91 340.301  27
   1  -1   8 5110.49 311.777  20
   1  -1   9 140.112 52.9919  27
   1  -1   9 167.792 56.3860  20
   1  -1  10 115.127 40.6718  27
  -1   0  10 606.838 79.5933  27
  -1   0   9 2956.11 238.374  27
  -1   0   8 572.578 91.2889  23
  -1   0   8 461.309 127.184  27
  -1   0   7 5112.48 381.340  27
  -1   0   7 4957.78 285.189  16
  -1   0   7 4630.30 280.609  20
  -1   0   6 5006.54 252.219  23
   1   0  -6 3850.36 460.837   3
  -1   0   6 4004.75 241.711  16
   1   0  -5 67016.7 1870.87   3
   1   0  -4 817.583 174.748   3
  -1   0   3 18002.9 633.417   2
   1   0  -3 18327.1 741.895   3
  -1   0   2 10562.5 412.491   2
  -1   0   1 48756.1 801.749   2
  -1   0   0 21402.8 381.462   2
   1   0   1 10023.5 477.278   1
   1   0   2 143647. 2325.10   1
  -1   0  -2 127497. 1304.02   3
   1   0   3 3391.75 368.079   1
  -1   0  -3 3156.30 187.022   3
  -1   0  -4 17162.1 561.832   3
   1   0   4 16947.3 934.224   1
   1   0   5 47105.6 1774.76   1
   1   0   6 853.563 264.496   1
   1   0   7 4764.65 294.185  20
   1   0   7 4760.64 684.573   1
   1   0   7 4603.11 243.641  16
   1   0   7 5253.33 356.559  27
   1   0   7 4852.97 258.814  23
   1   0   8 4207.45 262.626  20
   1   0   8 4217.21 257.213  23
   1   0   8 3593.80 220.689  16
   1   0   8 4565.88 338.583  27
   1   0   9 4439.15 321.561  27
   1   0  10 2542.87 233.506  15
   1   0  10 2603.62 203.041  27
  -1  -1   9 1247.57 143.895  27
  -1  -1   9 541.210 71.2501  20
  -1  -1   8 39.4727 31.6486  20
  -1  -1   8-87.0096 57.3309  27
  -1  -1   7 560.058 99.1813  23
  -1  -1   7 536.600 110.790  20
  -1  -1   7 500.000 116.287  27
  -1  -1   6 4078.64 227.341  23
   1   1  -6 3337.25 430.260   3
  -1  -1   6 3395.96 251.351  20
   1   1  -5 48945.2 1591.11   3
   1   1  -4 15324.2 781.246   3
   1   1  -3 2212.29 257.648   3
   1   1  -2 3583.37 279.952   3
   1   1  -1 3226.38 219.590   3
   1   1   0 69809.8 943.736   3
   1   1   1 27992.1 417.424   3
   1   1   1 27511.7 683.404   1
   1   1   2 40148.0 1060.83   1
   1   1   2 41261.5 604.290   2
   1   1   3 25677.2 540.174   2
   1   1   3 26684.2 992.286   1
   1   1   4 192623. 2235.77   2
  -1  -1  -4 188475. 2429.69   3
  -1  -1  -5 15372.3 628.063   3
   1   1   5 16842.4 1057.65   1
   1   1   6 14393.7 1116.20   1
   1   1   7 2235.32 495.985   1
   1   1   7 2914.69 265.995  27
   1   1   7 3086.02 210.603  23
   1   1   7 2772.04 203.307   9
   1   1   7 2645.99 187.618  16
   1   1   8 24958.2 660.544   9
   1   1   8 26089.1 665.020  23
   1   1   8 23821.5 624.832  16
   1   1   8 26615.9 858.412  27
   1   1   9 1127.27 126.830  23
   1   1   9 1051.01 165.480  27
   1   1   9 935.320 113.697  16
   1   1  10 1898.61 186.447  27
   1   1  10 1855.75 203.175  15
   1   1  11 5060.37 196.488  27
  -1  -2   9 885.119 86.5527  20
  -1  -2   9 1009.94 102.300  27
  -1  -2   8 117.667 53.9615  20
  -1  -2   8 23.3517 40.5162  27
  -1  -2   7 6403.84 367.520  20
  -1  -2   7 6564.40 403.101  27
  -1  -2   6 9417.58 457.595  20
  -1  -2   6 9678.76 486.770  27
   1   2  -5 87.4708 78.6473   3
   1   2  -4 100217. 2217.47   3
   1   2  -3 55440.2 1427.65   3
   1   2  -2 19266.1 717.206   3
   1   2  -1 35910.2 878.481   3
   1   2   0 1980.51 169.081   3
   1   2   1 92388.8 1282.99   3
   1   2   1 97998.3 1376.89   1
   1   2   2 60866.2 1336.09   1
   1   2   2 62891.2 1038.94   2
   1   2   3 4404.32 409.962   1
   1   2   3 4521.09 265.063   2
   1   2   4 65033.7 1950.26   1
   1   2   4 68383.2 1243.28   2
   1   2   5 74043.1 1401.79   2
   1   2   5 74774.0 2339.36   1
   1   2   6 450.954 211.165   1
   1   2   7 3108.64 213.836  23
   1   2   7 2847.80 199.221  16
   1   2   7 3411.60 279.350  27
   1   2   7 2812.61 213.440   9
   1   2   8 5318.27 302.085   9
   1   2   8 5645.12 376.092  27
   1   2   8 4802.76 271.233  16
   1   2   8 5668.04 304.359  23
   1   2   9 9216.19 368.971  16
   1   2   9 9517.83 483.943  27
   1   2   9 8785.84 387.908   9
   1   2   9 10407.2 562.167  15
   1   2   9 10399.0 399.110  23
   1   2  10 2837.50 174.274  23
   1   2  10 2342.98 213.765  27
   1   2  10 2901.72 253.874  15
   1   2  11 6458.86 241.003  27
  -1  -3   9 50.5579 18.9221  20
  -1  -3   8 51.1110 50.7109  20
  -1  -3   8 116.421 45.4242  27
  -1  -3   7 7205.75 385.902  20
  -1  -3   7 6848.25 354.550  27
  -1  -3   6 82.5340 61.0494  27
  -1  -3   6 106.649 61.5681  20
   1   3  -5 22762.5 1136.00   3
  -1  -3   5 29109.2 818.556  20
   1   3  -4 11848.6 773.400   3
   1   3  -3 8403.31 592.843   3
   1   3  -2 32785.9 1060.32   3
   1   3  -1 14899.3 639.996   3
   1   3   0 198.529 70.6708   3
   1   3   2 19107.4 660.539   2
   1   3   3 293470. 4326.22   1
   1   3   3 300503. 3525.63   2
   1   3   4 7284.52 440.601   2
   1   3   4 6709.48 665.563   1
   1   3   5 8779.93 833.448   1
   1   3   5 9715.87 527.685   2
   1   3   6 3082.08 307.994   2
   1   3   7 4902.42 293.262   9
   1   3   7 5198.22 329.438  27
   1   3   7 4587.27 237.236  10
   1   3   7 5158.10 271.959  16
   1   3   7 5756.07 309.067  14
   1   3   7 4877.10 372.968  15
   1   3   8 34130.1 827.258   9
   1   3   8 35314.4 937.401  27
   1   3   8 34449.7 787.379  16
   1   3   8 34842.7 1066.23  15
   1   3   8 35831.5 826.186  23
   1   3   8 32224.7 683.039  10
   1   3   9 989.710 124.778  23
   1   3   9 950.377 128.650   9
   1   3   9 846.168 144.126  27
   1   3   9 959.559 173.574  15
   1   3   9 899.649 116.878  16
   1   3  10 2773.00 177.732  23
   1   3  10 2364.90 205.578  27
   1   3  10 2630.12 164.668  16
   1   3  10 2822.99 238.691  15
   1   3  11 5421.57 205.759  27
  -1  -4   8 1771.90 133.509  20
  -1  -4   7 7932.62 375.303  20
  -1  -4   6 6185.77 382.557  20
  -1  -4   5 8961.18 446.995  20
  -1  -4   4 13580.4 508.363  20
   1   4  -4 9564.94 740.939   3
   1   4  -3 3090.39 406.544   3
   1   4  -2 2207.53 315.229   3
   1   4  -1 262.156 99.9949   3
   1   4   0 15233.7 694.610   3
   1   4   1 64053.3 1500.60   2
   1   4   2 88955.8 1805.62   2
   1   4   3 14742.9 695.105   2
   1   4   4 89921.3 1860.68   2
   1   4   5 11476.5 649.749   2
   1   4   6 46.3496 56.2053   2
   1   4   7 1816.46 166.759  25
   1   4   7 1341.40 204.786  15
   1   4   7 1643.42 150.732  10
   1   4   7 1980.13 188.749  14
   1   4   7 1703.09 174.422   9
   1   4   8 34.4708 50.5451  27
   1   4   8 133.647 61.1649   9
   1   4   8 58.3479 64.6822  15
   1   4   8 64.4380 33.1462  10
   1   4   8 56.0843 33.5670  16
   1   4   9 15721.2 550.869  27
   1   4   9 16169.5 488.825  16
   1   4   9 15735.1 536.194   9
   1   4   9 14510.7 423.828  10
   1   4   9 15648.6 679.602  15
   1   4   9 15742.4 500.656  23
   1   4  10 2871.83 196.761  27
   1   4  10 3150.53 179.587  16
   1   4  10 3175.37 190.410  23
  -1  -5   7 659.963 93.5661  20
  -1  -5   6 842.118 131.916  20
  -1  -5   5 3772.80 288.372  20
  -1  -5   4 161.053 58.5891  20
  -1  -5   3 643.035 108.057  20
   1   5  -3 773.368 96.2083  24
   1   5  -3 581.691 189.393   3
   1   5  -2 10941.9 761.136   3
   1   5  -1 612.166 169.154   2
   1   5  -1 583.920 174.034   3
   1   5   0 12185.0 742.595   2
   1   5   1 8446.10 603.373   2
   1   5   2 12.3978 41.1983   2
   1   5   3 25468.4 1058.45   2
   1   5   4 62.3237 71.5882   2
   1   5   5 2217.80 316.683   2
   1   5   6 3722.54 236.647  10
   1   5   6 4229.89 264.472  14
   1   5   6 3505.73 232.246   9
   1   5   6 3591.19 280.812  28
   1   5   6 4036.17 252.342  25
   1   5   7 428.268 89.0634  10
   1   5   7 376.403 81.8334  25
   1   5   7 429.685 87.3736   9
   1   5   7 339.361 82.0730  14
   1   5   8 2282.95 199.358   9
   1   5   8 2401.67 190.031  16
   1   5   8 2181.44 178.626  10
   1   5   8 2205.77 202.188  14
   1   5   9 3415.90 201.585  10
   1   5   9 3460.42 239.605   9
   1   5   9 3092.39 212.930  23
   1   5   9 3663.83 214.149  16
   1   5  10 9715.31 297.056  16
   1   5  10 9138.69 311.464  23
  -1  -6   6-13.3886 31.6367  20
   1   6  -6 19.5230 24.1309  26
  -1  -6   5 2106.40 190.172  20
   1   6  -5 2351.16 155.701  26
  -1  -6   4 4276.37 282.383  20
   1   6  -4 4351.57 218.134  24
   1   6  -3 3585.07 218.892  24
  -1  -6   3 3063.47 240.898  20
   1   6  -2 2068.44 365.276   2
   1   6  -2 3807.30 227.895  24
   1   6  -1 515.651 182.962   2
   1   6  -1 606.451 86.0765  24
   1   6   0 1745.01 314.474   2
   1   6   1 30412.4 1301.36   2
   1   6   2 129.047 88.5011   2
   1   6   3 6597.03 593.455   2
   1   6   4 17558.3 969.299   2
   1   6   5 1637.13 165.273  10
   1   6   5 1386.89 272.808   2
   1   6   5 1665.29 177.167  14
   1   6   5 1702.64 173.212  25
   1   6   6 9581.35 468.138  28
   1   6   6 10614.7 451.761  14
   1   6   6 9953.85 413.638  10
   1   6   6 9980.21 378.967   9
   1   6   6 10408.9 439.948  25
   1   6   7 66.9954 44.8297  10
   1   6   7 91.7836 54.7123  25
   1   6   7 127.655 50.9934   9
   1   6   7 13.0171 44.3035  14
   1   6   8 28.9145 32.3639  16
   1   6   8 53.9885 35.7290   9
   1   6   8 50.3232 36.8395  10
   1   6   8 90.4069 45.6159  14
   1   6   9 16444.9 436.267  10
   1   6   9 16762.2 429.785  16
   1   6  10 127.926 30.3433  16
   1   6  10 107.541 33.4784  23
  -1  -7   5 7303.00 231.564  20
   1   7  -5 9650.52 245.150  26
   1   7  -4 10.3238 30.3395  24
   1   7  -4 81.9580 43.9241  26
   1   7  -3 2485.88 170.382  26
   1   7  -3 2497.51 175.406  24
   1   7  -2 4465.34 248.778  24
   1   7  -2 4137.56 227.101  26
   1   7  -1 17502.0 475.078  26
   1   7  -1 17488.2 516.898  24
   1   7   0 39560.2 795.308  24
   1   7   0 39341.1 726.038  26
   1   7   1 63.9650 83.4500   2
   1   7   1 51.0338 39.5694  24
   1   7   1 119.405 44.8983  26
   1   7   2 2030.44 155.852  24
   1   7   2 2322.30 379.359   2
   1   7   2 2177.99 142.033  26
   1   7   3 21468.0 484.200  24
   1   7   3 24317.6 1225.73   2
   1   7   4 298.396 79.0200  10
   1   7   5 360.584 96.2241  14
   1   7   5 427.152 101.785  25
   1   7   5 440.151 84.1798  10
   1   7   6 3209.41 241.750  25
   1   7   6 3252.81 230.167  10
   1   7   6 2787.23 230.070  14
   1   7   7 5093.09 273.186  10
   1   7   7 4897.90 279.225  25
   1   7   7 4900.21 239.686  16
   1   7   8 20088.1 515.593  10
   1   7   8 19605.1 455.749  16
   1   7   9 507.932 68.1441  10
   1   7   9 457.148 56.6705  16
   1   7  10 567.953 52.6473  23
   1   8  -4 570.757 58.5259  26
   1   8  -3 4080.57 178.076  24
   1   8  -3 4368.85 187.645  26
   1   8  -2 1242.30 118.153  24
   1   8  -2 1362.87 120.307  26
   1   8  -1 901.493 110.656  24
   1   8  -1 971.977 109.563  26
   1   8   0 6232.80 268.638  26
   1   8   0 6381.17 293.664  24
   1   8   1 4189.48 235.622  24
   1   8   1 4234.31 217.591  26
   1   8   2 880.430 102.441  24
   1   8   3 4630.56 218.394  24
   1   8   4 13667.1 433.233  10
   1   8   5 2775.29 228.420  25
   1   8   5 3165.70 211.305  10
   1   8   5 2569.87 226.850  14
   1   8   6 13173.1 422.272  10
   1   8   6 12088.3 449.714  25
   1   8   7 13.6685 25.8992  10
   1   8   7-43.3027 37.7020  25
   1   8   7 1.56009 33.7842  14
   1   8   8 147.162 47.5542  14
   1   8   8 263.298 55.1236  10
   1   8   9 5044.85 171.356  23
   1   9  -2 56.2699 23.1729  24
   1   9  -1 1199.49 102.741  24
   1   9   0 1272.93 118.326  24
   1   9   1 1926.73 142.230  24
   1   9   2 597.506 80.4709  24
   1   9   3 9026.34 277.815  24
   1   9   4 48.4456 41.6326  14
   1   9   4 122.743 71.9382  25
   1   9   5 2658.96 195.737  25
   1   9   5 2796.04 202.817  14
   1   9   6 38.5154 25.6283  10
   1   9   6 40.6765 32.3245  14
   1   9   6 47.6384 27.0306  25
   1   9   7 1306.99 90.3403  10
   1   9   7 996.509 89.9027  25
   1   9   7 1176.55 103.963  14
   1  10   0 413.736 43.0422  24
   1  10   1 6575.24 187.924  24
   1  10   2 22.1534 18.4423  24
   1  10   2-15.7347 26.1270  25
   1  10   3 98.6858 38.4125  14
   1  10   3 47.0214 33.9314  25
   1  10   4 1003.42 91.0338  25
   1  10   4 1092.76 98.2786  14
   1  10   5 1460.28 97.7535  25
   1  10   5 1756.21 106.022  14
   1  10   6 1230.16 75.0862  25
  -2   9   3 438.459 36.1089  13
  -2   9   3 427.915 46.1121  14
  -2   9   2 1116.76 64.2520  13
  -2   9   2 1179.59 82.3326  14
  -2   9   1 191.345 34.9394  14
  -2   9   1 226.968 31.7577  13
  -2   8   6 1919.47 99.7435  14
  -2   8   5 43.6581 27.2406  14
  -2   8   5 70.9993 37.0310  28
  -2   8   4 9492.94 351.209  28
  -2   8   4 9543.26 243.413  13
  -2   8   3 2058.59 170.806  28
  -2   8   3 2300.76 130.166  13
  -2   8   3 1832.16 158.335  14
  -2   8   2 170.385 44.8013  13
  -2   8   2 227.591 64.1386  28
  -2   8   1 809.263 105.942  28
  -2   8   0 1047.87 112.264  28
   2  -8   1 8074.55 272.400  12
   2  -8   2 4653.50 200.174  12
   2  -8   3 107.311 29.1734  12
  -2   7   7 182.953 39.2918  14
  -2   7   7 273.165 40.0548   8
  -2   7   6 1370.18 146.909  28
  -2   7   6 1137.40 107.584  14
  -2   7   5 25212.4 448.256  13
  -2   7   5 19820.2 473.701  25
  -2   7   5 27422.6 730.408  28
  -2   7   5 21995.4 558.805  14
  -2   7   4 832.199 100.698  25
  -2   7   4 1193.63 158.269  28
  -2   7   4 924.914 125.458  14
  -2   7   4 1207.42 107.497  13
  -2   7   3 2.80680 30.2624  25
  -2   7   3 14.4921 33.2552  13
  -2   7   3 58.3799 61.7183  28
  -2   7   2 3480.54 196.787  24
  -2   7   2 3436.47 269.312  28
  -2   7   1 391.323 71.3476  24
  -2   7   1 276.619 95.3555  28
   2  -7   0 10022.1 397.008  12
  -2   7   0 9989.40 366.352  24
   2  -7   1 855.395 138.074  12
  -2   7  -1 1010.96 116.114  24
   2  -7   2 1443.53 168.364  12
  -2   7  -2 1586.85 137.177  24
  -2   7  -3 11446.0 329.214  24
   2  -7   3 11620.1 453.445  12
   2  -7   4 1527.78 141.290  12
   2  -7   5 73.6431 26.7055  12
  -2   6   8 147.156 32.3514   8
  -2   6   8 84.6025 26.6908  23
  -2   6   7 7000.45 353.484  28
  -2   6   7 5302.89 244.159  14
  -2   6   6 15.6006 31.4912  14
  -2   6   6 13.5484 55.2065  28
  -2   6   5 6407.29 245.061  13
  -2   6   5 5810.24 309.307  14
  -2   6   5 6456.51 396.337  28
  -2   6   5 5840.31 282.840  25
  -2   6   4 1398.33 184.555  28
  -2   6   4 1160.18 135.180  25
  -2   6   4 1349.81 154.030  14
  -2   6   4 1583.85 141.058  10
  -2   6   4 1245.23 118.996  13
  -2   6   3 877.588 117.819  25
   2  -6  -3 765.048 102.435   6
  -2   6   3 872.302 142.151  28
  -2   6   2 3976.40 243.184  25
  -2   6   2 4448.43 321.858  28
  -2   6   2 4040.19 218.168  24
   2  -6  -2 3873.99 218.351   6
   2  -6  -1 3655.06 205.825   6
  -2   6   1 3281.48 209.559  24
   2  -6   0 10716.3 454.101  12
  -2   6   0 11043.2 400.127  24
   2  -6   0 12110.9 376.754   6
   2  -6   1 7519.01 297.127   6
  -2   6  -1 7577.26 333.171  24
   2  -6   2 6556.43 279.119   6
  -2   6  -2 6721.53 309.177  24
   2  -6   3 151.334 52.8782   6
  -2   6  -3 133.746 45.8929  24
   2  -6   4 11218.4 493.577  12
   2  -6   4 11121.2 335.902   6
   2  -6   5 44.8981 37.6825  20
   2  -6   5 22.1130 35.3718  12
   2  -6   6 1321.32 104.898  12
  -2   5   9 904.107 58.2353  23
  -2   5   9 1918.55 92.6554   8
  -2   5   8 6466.52 242.356  23
  -2   5   7 585.186 92.5597  14
  -2   5   7 826.539 137.713  28
  -2   5   6 1020.84 161.012  28
  -2   5   6 1015.11 130.436  14
  -2   5   5 27206.8 650.242  25
  -2   5   5 23624.1 514.173  13
  -2   5   5 27027.5 665.454  10
  -2   5   5 25420.4 816.461  28
  -2   5   5 24809.9 680.076  14
  -2   5   4 33.1667 34.4682  25
  -2   5   4 17.3977 40.1445  14
  -2   5   4 36.7514 34.0660  10
  -2   5   4 32.1185 48.2010  28
  -2   5   4 19.7361 24.2955  13
  -2   5   4 128.991 98.1258   2
  -2   5   3 829.470 114.604  25
  -2   5   3 851.372 136.042  28
  -2   5   3 750.303 200.372   2
  -2   5   2 6472.23 570.820   2
  -2   5   2 5713.89 246.430  24
  -2   5   1 7268.17 604.028   2
  -2   5   1 7529.07 289.966  24
   2  -5  -1 7596.36 295.526   6
  -2   5   0 66897.3 1797.89   2
  -2   5   0 64343.7 1025.61  24
   2  -5   0 68282.0 1000.08   6
  -2   5  -1 4645.57 245.103  24
   2  -5   1 4967.23 237.760   6
  -2   5  -1 4473.48 213.830  26
  -2   5  -2 1228.77 134.729  24
  -2   5  -2 1201.04 115.277  26
   2  -5   2 1239.38 126.054   6
  -2   5  -3 6438.69 293.732  24
   2  -5   3 7285.73 302.204   6
   2  -5   3 6760.88 318.862  20
  -2   5  -4 948.026 109.163  24
   2  -5   4 1074.24 125.426   6
  -2   5  -4 1005.94 106.248  26
   2  -5   4 1049.88 135.232  20
   2  -5   5 52.7171 46.4880  20
   2  -5   5 38.1586 59.1969  12
   2  -5   6 218.308 77.9193  12
   2  -5   6 383.596 86.7126  20
   2  -5   7 1636.82 128.141  20
  -2   4   9 276.514 41.7737  23
  -2   4   9 403.817 51.6675   8
  -2   4   8 1693.57 135.997  23
  -2   4   7 17241.5 667.230  28
  -2   4   7 16586.1 519.725  14
  -2   4   6 6928.04 345.508  10
  -2   4   6 6620.83 421.236  28
  -2   4   6 7309.76 356.831  14
  -2   4   5 7.83563 40.7859  28
  -2   4   5 2.10665 22.9266  10
  -2   4   5 102.708 44.5598  14
  -2   4   5 55.9625 32.3806  13
  -2   4   5 50.5973 62.4999   2
  -2   4   5 96.0073 46.8945  25
  -2   4   4 23075.4 493.606  13
  -2   4   4 25829.0 617.404  10
  -2   4   4 25771.6 1184.06   2
  -2   4   4 27857.6 678.062  14
  -2   4   4 23771.5 728.012  28
  -2   4   3 4143.90 444.124   2
  -2   4   2 30972.9 1194.19   2
  -2   4   1 140.706 80.2604   2
  -2   4   0 1495.09 240.538   2
   2  -4   0 1365.47 119.441   6
   2  -4   1 80084.6 2861.41   1
   2  -4   1 77061.5 1059.35   6
   2  -4   2 220.162 49.8500   6
   2  -4   3 49.6575 29.7507   6
  -2   4  -3 40.4579 31.5678  26
   2  -4   3 90.7290 45.1456  20
  -2   4  -3 119.824 34.8160  24
  -2   4  -4 4511.74 206.444  26
   2  -4   4 4718.55 287.087  20
   2  -4   4 5094.98 264.265   6
   2  -4   5 462.559 85.0302   6
   2  -4   5 457.828 92.0001  20
   2  -4   6 7185.24 368.613  20
   2  -4   6 6203.42 370.701  12
   2  -4   7 226.241 58.6406  12
   2  -4   7 240.812 68.8463  20
   2  -4   8 1807.64 136.252  20
  -2   3   9 99.7903 33.4972  23
  -2   3   9 129.098 38.1371   8
  -2   3   8 54.1721 33.8806  23
  -2   3   8 18.3136 28.1881   8
  -2   3   8 53.2433 44.5466  27
  -2   3   7 44166.3 840.557  16
  -2   3   6 2561.76 216.366  10
  -2   3   6 2694.97 262.004  28
  -2   3   6 3086.98 205.703  16
  -2   3   6 3150.22 231.691  14
  -2   3   5 33516.1 900.783  28
  -2   3   5 35506.4 1370.73   2
  -2   3   5 37428.2 764.351  14
  -2   3   5 34518.6 769.476  10
  -2   3   5 35528.0 686.372   4
  -2   3   5 39395.0 776.238  25
  -2   3   4 15473.1 865.284   2
  -2   3   4 14672.7 409.612   4
  -2   3   3 3604.75 187.339   4
  -2   3   3 3928.33 403.543   2
  -2   3   2 3526.34 358.330   2
  -2   3   2 3132.99 167.634   4
  -2   3   1 4406.91 382.268   2
  -2   3   0 54072.9 1337.69   2
  -2   3  -1 9729.14 523.121   2
   2  -3   2 900.408 87.2271   6
   2  -3   2 862.079 256.834   1
   2  -3   3 62510.8 904.643   6
   2  -3   3 67461.5 2344.89   1
   2  -3   4 1815.60 145.353   6
   2  -3   5 3912.21 234.669   6
   2  -3   5 4180.18 279.096  20
   2  -3   6 1016.51 155.698  12
   2  -3   6 1152.75 156.338  20
   2  -3   7 13326.1 522.224  20
   2  -3   8 17790.2 543.674  20
   2  -3   9 166.368 43.5066  20
  -2   2   9 120.474 33.2976  23
  -2   2   9 84.5598 48.9723  27
  -2   2   9 127.011 31.1922   8
  -2   2   8 924.202 118.804  23
  -2   2   8 657.942 118.844  27
  -2   2   8 905.014 100.247   8
  -2   2   7 16766.1 644.472  27
  -2   2   7 18314.6 533.611  23
  -2   2   7 18180.8 534.018  16
  -2   2   6 11191.6 431.444  14
  -2   2   6 10608.8 510.841  28
   2  -2  -6 9634.45 829.987   3
  -2   2   6 10489.5 395.930  16
  -2   2   5 4180.74 204.260   4
  -2   2   5 3946.93 438.404   2
  -2   2   4 34224.7 1222.59   2
  -2   2   4 33968.3 616.165   4
  -2   2   3 14670.0 736.605   2
  -2   2   2 93933.8 1821.01   2
  -2   2   1 26641.9 845.275   2
  -2   2   0 36022.0 925.629   2
  -2   2  -1 125937. 1840.67   2
   2  -2   2 50129.2 1946.19   1
  -2   2  -2 50329.0 1001.88   2
   2  -2   3 46782.8 1891.69   1
   2  -2   3 41752.8 637.262   6
   2  -2   4 13311.7 995.371   1
   2  -2   4 11512.9 329.997   6
   2  -2   5 3953.23 213.329   6
   2  -2   6 41068.2 954.467  20
   2  -2   6 39735.9 799.222   6
   2  -2   7 7505.41 400.399  20
   2  -2   8 215.830 65.7024  27
   2  -2   8 155.814 70.5433  20
   2  -2   9 13727.3 420.497  20
  -2   1   9 4345.16 264.556  27
  -2   1   8 12072.9 351.692   8
  -2   1   8 10726.6 513.356  27
  -2   1   7 5737.19 289.752  23
  -2   1   7 4737.37 238.255   8
  -2   1   6 4870.26 261.035  23
  -2   1   6 3857.28 248.772  16
   2  -1  -6 4225.61 532.793   3
  -2   1   5 4226.57 439.371   2
   2  -1  -5 4166.73 509.039   3
  -2   1   4 19005.1 416.021   4
  -2   1   4 19793.7 884.688   2
  -2   1   3 16074.3 714.586   2
  -2   1   2 4517.89 346.276   2
  -2   1   1 1352.34 169.069   2
  -2   1   0 2105.92 181.710   2
  -2   1  -1 76440.1 1104.00   2
  -2   1  -2 14261.7 354.939   2
   2  -1   2 13691.7 928.761   1
   2  -1   3 49913.9 1829.52   1
   2  -1   4 16504.8 1078.12   1
   2  -1   4 14485.3 335.202   6
   2  -1   5 10109.2 878.495   1
   2  -1   5 8747.49 293.656   6
   2  -1   6 34431.8 810.178  20
   2  -1   6 31662.9 1645.95   1
   2  -1   6 31428.1 665.553   6
   2  -1   7 1699.56 183.435  20
   2  -1   7 1615.16 182.406  27
   2  -1   8 1271.62 153.534  20
   2  -1   8 1422.70 180.440  27
   2  -1   9 2475.87 188.504  20
   2  -1   9 2531.10 215.985  27
  -2   0   9 118.143 54.9180  27
  -2   0   8 276.792 64.9276  23
  -2   0   8 90.8623 55.3263  27
  -2   0   7 19896.0 531.085  23
  -2   0   6 473.332 76.0665   8
   2   0  -6 473.095 177.276   3
  -2   0   6 555.833 85.2271  23
   2   0  -5 2431.74 377.886   3
   2   0  -4 16736.2 919.121   3
  -2   0   3 11337.6 584.488   2
   2   0  -3 11206.8 672.903   3
  -2   0   2 36770.6 966.544   2
  -2   0   1 78.9537 44.5562   2
  -2   0   0 55669.9 915.612   2
  -2   0  -1 133280. 1373.35   2
   2   0   2 1868.77 310.238   1
   2   0   3 2754.19 392.169   1
   2   0   4 19932.5 1164.14   1
   2   0   5 16468.5 381.540   6
   2   0   5 18592.5 1163.32   1
   2   0   6 34087.4 1702.80   1
   2   0   7 4820.56 674.966   1
   2   0   7 4394.71 278.625  20
   2   0   7 4050.17 234.771  23
   2   0   7 4828.43 326.854  27
   2   0   8 453.193 111.105  27
   2   0   8 453.778 91.8084  20
   2   0   9 10084.4 478.848  27
   2   0   9 9626.32 376.325  20
   2   0  10 2680.95 201.514  27
  -2  -1   9 3231.99 204.267  27
  -2  -1   8 2527.61 188.980  20
  -2  -1   8 3298.19 279.020  27
  -2  -1   7 224.610 102.129  27
  -2  -1   7 112.307 58.9182  20
  -2  -1   6 3602.96 212.520  23
   2   1  -6 2772.93 427.129   3
   2   1  -5 9242.93 748.454   3
   2   1  -4 1502.40 271.828   3
   2   1  -3 15682.7 794.853   3
   2   1  -2 10397.0 566.383   3
   2   1  -1 999999. 9149.42   3
   2   1   0 224228. 2520.70   3
   2   1   1 15995.1 765.826   1
   2   1   1 17166.3 378.591   3
   2   1   2 4739.11 429.937   1
   2   1   2 4413.35 123.756   2
   2   1   3 25435.6 1111.65   1
   2   1   4 66193.1 2038.26   1
   2   1   5 50633.4 1885.25   1
   2   1   6 13348.9 1059.02   1
   2   1   7 39090.9 1989.15   1
   2   1   7 40669.1 791.506  23
   2   1   7 40520.3 993.027  27
   2   1   7 38607.7 814.675   9
   2   1   7 37427.7 739.924  16
   2   1   8 29475.7 693.335  23
   2   1   8 29341.3 654.176  16
   2   1   8 31029.6 714.828   9
   2   1   8 31007.2 917.239  27
   2   1   9 2131.49 230.631  27
   2   1   9 1778.87 144.669  16
   2   1  10 7134.06 368.918  27
   2   1  10 7099.45 437.389  15
   2   1  11 272.615 59.9320  15
  -2  -2   9 579.152 71.7061  27
  -2  -2   8 72.1310 48.7863  27
  -2  -2   8-12.1427 34.7363  20
  -2  -2   7 14312.1 605.958  27
  -2  -2   7 13742.5 524.505  20
  -2  -2   6 98.9726 27.1872  22
  -2  -2   5 804.102 100.434  23
  -2  -2   5 768.811 83.4350  22
   2   2  -5 727.393 223.416   3
   2   2  -4 557.768 173.310   3
   2   2  -3 15781.7 833.160   3
   2   2  -2 34802.5 1106.58   3
   2   2  -1 434.279 109.731   3
   2   2   0 291785. 3246.63   3
   2   2   1 139211. 2027.57   1
   2   2   1 148192. 1760.72   3
   2   2   2 339.303 107.777   1
   2   2   2 252.383 64.6094   2
   2   2   3 15312.8 426.441   2
   2   2   3 14150.5 767.012   1
   2   2   4 4556.71 234.560   2
   2   2   4 4494.03 478.569   1
   2   2   5 6105.51 629.885   1
   2   2   6 59347.0 2268.79   1
   2   2   7 3787.82 287.213  27
   2   2   7 4415.74 241.661  23
   2   2   7 3551.16 616.381   1
   2   2   7 3706.22 219.542  16
   2   2   7 3704.20 249.405   9
   2   2   8 544.802 96.0273  23
   2   2   8 535.922 90.8669   9
   2   2   8 655.254 134.958  27
   2   2   8 442.751 82.4091  16
   2   2   9 7604.32 345.431   9
   2   2   9 7654.17 336.171  23
   2   2   9 7479.96 322.877  16
   2   2   9 7686.05 448.760  27
   2   2  10 2995.16 251.978  27
   2   2  10 3082.67 290.870  15
   2   2  11 1875.77 161.026  15
   2   2  11 1932.48 146.269  27
  -2  -3   8-40.3901 34.3864  27
  -2  -3   8 84.7128 42.9134  20
  -2  -3   7 1802.25 185.283  20
  -2  -3   7 1872.57 193.808  27
  -2  -3   6 132.749 66.6571  20
  -2  -3   6 45.6782 52.1993  27
   2   3  -5 3383.92 461.703   3
  -2  -3   5 3550.35 191.657  22
   2   3  -4 9236.53 734.911   3
   2   3  -3 5195.38 505.090   3
   2   3  -2 17078.6 826.016   3
   2   3  -1 62642.1 1480.44   3
   2   3   0 11708.1 540.528   3
   2   3   1 189.900 47.9802   1
   2   3   1 287.134 81.6308   3
   2   3   2 2264.01 243.634   1
   2   3   2 2050.73 211.001   2
   2   3   3 1047.81 200.669   1
   2   3   3 1016.07 149.166   2
   2   3   4 61888.0 1886.38   1
   2   3   4 67282.8 1267.26   2
   2   3   5 30070.3 834.106   2
   2   3   5 29986.7 1451.45   1
   2   3   6 8372.73 848.558   1
   2   3   7 52753.1 1054.71   9
   2   3   7 54072.8 1120.60  27
   2   3   8 10093.8 404.535  23
   2   3   8 9033.97 410.435   9
   2   3   8 9841.60 483.739  27
   2   3   8 8745.20 377.538  16
   2   3   8 9401.36 581.478  15
   2   3   9 366.920 97.1072  27
   2   3   9 384.137 83.2790  23
   2   3   9 433.418 88.9596   9
   2   3   9 343.137 70.8123  16
   2   3   9 350.216 117.930  15
   2   3  10 5039.82 239.671  23
   2   3  10 4555.16 242.790   9
   2   3  10 5010.12 317.388  27
   2   3  10 4627.28 228.189  16
   2   3  10 5372.33 382.628  15
   2   3  11 72.8332 34.1864  27
   2   3  11 49.7322 44.8698  15
  -2  -4   8 2291.01 131.453  20
  -2  -4   7 8977.18 378.498  20
  -2  -4   6 37.7844 51.0804  20
  -2  -4   5 3119.86 263.467  20
   2   4  -4 2004.95 361.975   3
  -2  -4   4 2563.70 164.712  22
   2   4  -3 15949.4 948.407   3
   2   4  -2 48970.6 1570.09   3
   2   4  -1 90.7731 79.0128   3
   2   4   0 513.400 142.292   3
   2   4   1 50111.9 1250.94   3
   2   4   2 1310.63 201.265   2
   2   4   3 7097.91 551.557   1
   2   4   3 6055.06 428.889   2
   2   4   4 15617.4 683.418   2
   2   4   4 14159.4 917.581   1
   2   4   5 27129.4 939.967   2
   2   4   5 28009.0 1435.59   1
   2   4   6 69096.0 2560.74   1
   2   4   7 8623.59 379.648  14
   2   4   7 6786.07 309.441  10
   2   4   7 8075.59 336.209  25
   2   4   7 6615.86 466.122  15
   2   4   7 7574.79 374.375   9
   2   4   7 7048.30 366.549  27
   2   4   8 1015.69 116.733  10
   2   4   8 1246.02 155.354   9
   2   4   8 1144.47 136.553  16
   2   4   8 1383.75 172.963  27
   2   4   8 1133.49 209.386  15
   2   4   9 4563.59 270.917  23
   2   4   9 4963.31 294.307   9
   2   4   9 5415.75 341.928  27
   2   4   9 5079.70 279.706  16
   2   4   9 5150.76 426.559  15
   2   4  10 4340.44 270.637  27
   2   4  10 3684.36 223.375   9
   2   4  10 3950.56 213.976  23
   2   4  10 3774.04 206.740  16
   2   4  10 3906.31 317.740  15
   2   5  -7-17.3295 22.3577  26
  -2  -5   7 19.2753 30.4150  20
  -2  -5   6 745.755 120.926  20
  -2  -5   5 1241.18 171.801  20
  -2  -5   4 1079.83 154.091  20
   2   5  -3 32.5850 30.6881  24
   2   5  -3 74.2186 83.2645   3
  -2  -5   3 13.8056 26.7388  20
   2   5  -2 1007.79 243.088   3
   2   5  -1 53298.3 1675.41   3
   2   5   0 22790.3 996.033   3
   2   5   1 2679.27 340.056   2
   2   5   2 8566.59 605.166   2
   2   5   3 6336.41 502.736   2
   2   5   4 122647. 2430.35   2
   2   5   5 763.180 175.666   2
   2   5   6 35858.3 809.882   9
   2   5   6 36820.2 807.930  10
   2   5   6 36427.3 787.841  25
   2   5   6 34581.3 734.521  17
   2   5   6 31237.6 1048.06  15
   2   5   6 40231.2 814.774  14
   2   5   7 140.586 43.8652  10
   2   5   7 213.846 58.5283  25
   2   5   7 278.860 82.2726   9
   2   5   7 183.566 98.1290  15
   2   5   7 227.126 65.9456  14
   2   5   8 1062.00 127.354  10
   2   5   8 1097.44 145.725   9
   2   5   8 879.423 180.275  15
   2   5   8 1114.40 151.165  14
   2   5   9 42.2537 36.2719  23
   2   5   9 109.418 48.9956  10
   2   5   9 141.616 59.0285   9
   2   5   9 38.8082 32.1564  16
   2   5  10 1571.16 141.328   9
   2   5  10 1464.82 132.314  23
   2   5  10 1623.91 129.036  16
   2   5  11 4.82331 13.2055  23
  -2  -6   6 136.558 48.5982  20
   2   6  -6 120.935 36.5114  26
  -2  -6   5 378.984 86.8387  20
  -2  -6   4 2771.48 229.169  20
   2   6  -4 2730.66 170.217  24
  -2  -6   3 3307.02 254.528  20
   2   6  -3 3858.82 230.595  24
   2   6  -2 20566.7 554.876  24
   2   6  -2 18456.8 1104.11   3
   2   6  -1 588.549 200.267   2
   2   6  -1 653.624 91.8767  24
   2   6   0 9813.67 763.286   2
   2   6   1 6555.50 604.563   2
   2   6   2 9085.00 693.312   2
   2   6   3 2261.65 346.475   2
   2   6   4 62.9767 88.3884   2
   2   6   5 14308.8 844.051   2
   2   6   5 15208.4 440.181  17
   2   6   6 137036. 1874.37  25
   2   6   6 130497. 1796.79   9
   2   6   6 129558. 1866.03  10
   2   6   6 141488. 1870.44  14
   2   6   7 1209.13 144.805  10
   2   6   7 1281.47 146.553  25
   2   6   7 1380.13 153.227   9
   2   6   7 1395.83 167.058  14
   2   6   8 5505.72 291.129  10
   2   6   8 5750.58 305.436   9
   2   6   8 5688.00 322.342  14
   2   6   9 740.511 94.0400  10
   2   6   9 790.924 106.125   9
   2   6   9 816.318 107.151  16
   2   6  10 4082.22 195.566  23
   2   6  10 5284.90 213.608  16
   2   7  -5 48.6210 28.9815  26
  -2  -7   5 127.983 35.8691  20
   2   7  -4 507.806 65.2234  24
  -2  -7   4 500.469 81.2223  20
   2   7  -4 703.993 84.7903  26
   2   7  -3 1596.18 138.512  24
   2   7  -2 11.9367 42.6304  24
   2   7  -1 24402.6 627.724  24
   2   7   0 13986.8 459.220  24
   2   7   0 14500.9 410.462  26
   2   7   0 13816.3 954.039   2
   2   7   1 19.5437 47.2218   2
   2   7   1 63.0628 30.2173  24
   2   7   1 61.1776 32.8852  26
   2   7   2 1702.59 143.163  24
   2   7   2 1971.58 354.208   2
   2   7   2 1828.39 123.807  26
   2   7   3 2257.22 149.057  24
   2   7   3 2542.40 390.753   2
   2   7   4 16349.5 975.945   2
   2   7   5 690.222 97.8378  17
   2   7   5 958.128 140.082  14
   2   7   6 1189.87 152.249  25
   2   7   6 1118.98 144.059  10
   2   7   6 1138.25 148.587  14
   2   7   7 15689.8 521.618  10
   2   7   7 14836.2 516.271  25
   2   7   7 13793.3 504.026  14
   2   7   8 7088.47 323.562  25
   2   7   8 7546.68 323.411  10
   2   7   8 7368.79 310.187  16
   2   7   8 6573.57 325.957  14
   2   7   9 374.474 65.5318  10
   2   7   9 411.208 73.1131   9
   2   7   9 291.534 59.4162  16
   2   7  10 12.3841 15.7114  23
   2   7  10-8.57938 15.4841  16
   2   8  -4 131.823 34.3543  26
   2   8  -3 1716.74 123.995  26
   2   8  -3 1447.42 104.244  24
   2   8  -2 13.0948 34.1159  24
   2   8  -2 93.3123 42.7215  26
   2   8  -1 4692.00 251.221  24
   2   8  -1 4664.19 228.900  26
   2   8   0 1091.90 123.241  24
   2   8   0 1018.52 107.112  26
   2   8   1 535.033 89.5577  24
   2   8   1 528.858 77.2800  26
   2   8   2 2146.04 166.188  24
   2   8   2 2349.06 149.744  26
   2   8   3 89.6100 37.8528  24
   2   8   4 14459.1 501.112  10
   2   8   5 2556.13 227.551  25
   2   8   5 2726.87 219.776  10
   2   8   5 2817.13 231.671  14
   2   8   6 14246.1 516.615  25
   2   8   6 15178.3 498.402  10
   2   8   7 1428.95 143.142  10
   2   8   7 1099.01 129.844  25
   2   8   7 1007.56 126.394  14
   2   8   8 1472.53 127.650  10
   2   8   8 1088.96 101.159  16
   2   8   8 1231.43 125.070  14
   2   8   8 1183.59 116.493  25
   2   8   9 68.8142 26.9166  23
   2   8   9 129.843 28.1291  16
   2   9  -2 38.3643 24.8918  24
   2   9  -2 85.0965 31.9247  26
   2   9  -1 5995.92 235.496  24
   2   9  -1 5873.30 215.785  26
   2   9   0 2967.84 177.653  24
   2   9   0 3047.65 163.451  26
   2   9   1 8.68145 27.9075  24
   2   9   2 1639.71 132.101  24
   2   9   3 2332.76 144.869  24
   2   9   4 20523.7 613.870  14
   2   9   5 2023.81 186.201  25
   2   9   5 2256.13 189.341  14
   2   9   5 2265.29 165.091  10
   2   9   6 604.062 97.9387  25
   2   9   6 662.389 86.4504  10
   2   9   6 494.456 84.4817  14
   2   9   7 3833.90 197.308  25
   2   9   7 3858.51 201.509  14
   2   9   8 1331.01 96.3647  14
   2   9   8 1840.85 111.045  10
   2  10   0 994.528 73.9393  24
   2  10   1 85.6848 27.7847  24
   2  10   2 5891.29 195.556  24
   2  10   2 1893.28 139.194  14
   2  10   3 2887.65 121.407  24
   2  10   3 2590.15 185.460  25
   2  10   4 700.357 94.2955  25
   2  10   4 406.992 67.9044  14
   2  10   5 3748.74 192.188  25
   2  10   5 2785.02 146.907  14
   2  10   6 3044.07 148.654  25
   2  10   6 2641.15 128.795  14
  -3   8   4 369.597 51.7421  28
  -3   8   3 1481.95 112.612  28
  -3   8   3 1469.79 81.7315  13
  -3   8   2 10925.8 249.887  13
  -3   8   2 10179.9 314.183  28
  -3   8   1 171.233 35.9246  13
  -3   8   1 71.3858 31.7378  14
  -3   8   1 210.134 48.0350  28
  -3   8   0 81.9180 28.9426  13
  -3   8   0 85.4460 32.8196  28
  -3   8  -1 2633.29 100.262  13
  -3   7   6 269.041 51.7839  28
  -3   7   5 477.031 59.5605  14
  -3   7   5 662.920 98.3563  28
  -3   7   4 8040.78 237.684  13
  -3   7   4 8532.41 368.442  28
  -3   7   3 3546.78 174.238  13
  -3   7   3 2838.50 186.643  14
  -3   7   3 3309.14 241.521  28
  -3   7   2 3941.96 268.296  28
  -3   7   2 3295.84 214.742  14
  -3   7   2 3839.83 186.867  13
  -3   7   1 1418.63 165.737  28
  -3   7   1 1381.44 116.720  13
  -3   7   0 121.557 61.3164  28
   3  -7   1 47.1907 34.6138  12
  -3   7  -1 82.1525 53.7088  28
   3  -7   2 1254.54 126.928  12
   3  -7   3 493.110 75.7353  12
   3  -7   4 2563.70 140.033  12
  -3   6   7 2240.87 104.776   8
  -3   6   6 476.325 68.6802  14
  -3   6   6 597.469 104.535  28
  -3   6   6 671.350 68.3125   8
   3  -6  -6 494.586 69.9457   6
  -3   6   5 8711.84 416.873  28
  -3   6   5 9067.20 272.543   8
   3  -6  -5 6760.89 264.998   6
  -3   6   5 6753.93 276.221  14
  -3   6   4 205.990 62.4376  14
   3  -6  -4 279.892 68.7119   6
  -3   6   4 268.098 77.1683  28
  -3   6   4 270.445 54.5650  13
  -3   6   3 7200.08 408.219  28
   3  -6  -3 6729.49 288.491   6
  -3   6   3 6517.08 326.250  14
  -3   6   3 7111.22 282.151  13
  -3   6   2 7133.71 407.853  28
   3  -6  -2 6580.29 287.640   6
  -3   6   2 6965.13 277.596  13
   3  -6  -1 3527.49 215.050   6
  -3   6   1 3787.45 299.351  28
   3  -6   0 477.283 84.2629  12
  -3   6   0 484.690 85.3729  24
   3  -6   0 599.796 96.2583   6
  -3   6  -1 6028.47 294.964  24
   3  -6   1 6602.12 283.139   6
   3  -6   1 6451.77 346.447  12
   3  -6   2 513.708 114.709  12
   3  -6   2 546.946 83.4172   6
  -3   6  -2 504.481 82.4913  24
   3  -6   3 16931.3 431.627   6
   3  -6   3 15012.4 562.106  12
   3  -6   4 113.937 46.0146  12
   3  -6   4 66.7394 31.2349   6
   3  -6   5 2206.74 160.888  12
  -3   5   8 2973.46 122.973   8
  -3   5   7 56.4992 32.8071  23
  -3   5   7 76.2288 36.2894   8
  -3   5   6 191.371 56.1557  14
  -3   5   6 210.124 84.6741  28
  -3   5   5 428.035 80.3991  14
  -3   5   5 465.503 109.359  28
  -3   5   4 2270.12 158.678  13
  -3   5   4 2424.18 241.837  28
  -3   5   4 2401.89 194.730  14
  -3   5   3 8319.08 445.096  28
  -3   5   3 8434.09 375.989  14
  -3   5   3 7939.59 303.584  13
  -3   5   2 1409.38 187.568  28
   3  -5  -2 1343.37 138.349   6
  -3   5   1 65222.7 1040.04  24
   3  -5  -1 67498.5 1082.82   6
  -3   5   0 12559.4 427.156  24
   3  -5   0 13122.9 426.943   6
   3  -5   0 12375.8 475.937  12
  -3   5  -1 2415.18 186.209  24
   3  -5   1 2598.80 186.940   6
   3  -5   1 2173.39 215.127  12
   3  -5   2 92.6421 78.6294  12
   3  -5   2 86.6147 48.4285   6
  -3   5  -2 98.9601 52.0973  24
  -3   5  -3 11329.5 402.983  24
   3  -5   3 12224.2 442.537  20
   3  -5   3 12209.9 408.157   6
   3  -5   3 11755.3 556.465  12
   3  -5   4 31895.1 686.879   6
   3  -5   4 34555.4 946.773  12
   3  -5   4 33559.4 777.147  20
   3  -5   5 5262.21 285.183  20
   3  -5   5 5207.48 247.318   6
   3  -5   5 5540.86 336.009  12
   3  -5   6 1565.35 140.495  20
   3  -5   6 1399.36 138.980  12
  -3   4   8 1333.92 99.4666   8
  -3   4   7 743.212 83.6058  23
  -3   4   7 1015.26 105.155   8
  -3   4   6 2225.58 180.166  14
  -3   4   6 2529.54 247.188  28
  -3   4   5 1287.11 135.167  14
  -3   4   5 1293.70 184.162  28
  -3   4   4 9486.23 324.120  13
  -3   4   4 9581.97 478.550  28
  -3   4   3 12027.5 808.601   2
  -3   4   3 11068.8 412.683  14
  -3   4   3 11131.8 496.613  28
  -3   4   3 10939.4 345.444  13
  -3   4   2 29584.6 812.689  28
  -3   4   2 30374.2 1253.01   2
  -3   4   1 159.977 67.8711   2
   3  -4   0 1255.61 126.093   6
   3  -4   1 3109.45 238.847  12
  -3   4  -1 3184.84 199.314  24
   3  -4   1 2516.34 582.514   1
   3  -4   1 2711.77 192.565   6
  -3   4  -2 1928.58 155.859  24
   3  -4   2 1924.77 155.885   6
   3  -4   2 1899.91 205.813  12
   3  -4   3 19043.4 578.102  20
  -3   4  -3 18560.5 509.319  24
   3  -4   3 19481.9 524.189   6
   3  -4   3 19342.4 702.863  12
  -3   4  -4 16236.2 452.647  24
   3  -4   4 17352.2 687.892  12
   3  -4   4 16487.3 560.057  20
   3  -4   4 16905.9 500.786   6
   3  -4   5 818.362 147.128  12
   3  -4   5 851.187 122.443   6
   3  -4   5 717.814 123.451  20
   3  -4   6 19494.2 610.817  20
   3  -4   6 19354.6 637.401  12
   3  -4   7 92.5971 43.7926  12
   3  -4   7 125.772 49.3050  20
   3  -4   8 1216.89 100.323  20
  -3   3   9 880.374 58.7149   8
  -3   3   8 1239.60 104.147   8
  -3   3   8 748.036 73.5923  23
  -3   3   7 68.3780 37.6659  23
  -3   3   7 67.9648 38.4419   8
  -3   3   6 2037.48 222.917  28
  -3   3   6 2005.01 174.788  14
  -3   3   5 1144.82 133.611  14
  -3   3   5 1054.10 159.896  28
  -3   3   4 13427.9 540.491  28
  -3   3   4 13136.8 362.946  13
  -3   3   4 14396.8 443.927   4
  -3   3   3 3499.27 428.262   2
  -3   3   3 3543.52 211.015   4
  -3   3   2 4786.49 465.952   2
  -3   3   2 4555.50 231.136   4
  -3   3   1 20555.4 911.725   2
  -3   3   0 9881.30 583.692   2
   3  -3   0 8099.32 307.210   6
   3  -3   1 2325.27 159.736   6
   3  -3   2 273.922 64.1617   6
   3  -3   2 210.406 190.294   1
   3  -3   3 1573.55 388.608   1
   3  -3   3 1413.61 130.593   6
   3  -3   4 21614.2 629.882  20
   3  -3   4 21572.8 544.856   6
   3  -3   5 2901.99 239.828  20
   3  -3   5 2831.38 204.645   6
   3  -3   5 2795.69 274.623  12
   3  -3   6 1814.10 198.095  20
   3  -3   6 1704.85 164.339   6
   3  -3   6 1614.57 194.620  12
   3  -3   7 5541.41 323.785  20
   3  -3   7 4809.13 279.440  12
   3  -3   8 2757.99 201.219  20
   3  -3   9 1983.97 116.089  20
  -3   2   9 36.8156 18.5468   8
  -3   2   9 0.80996 5.66392  27
  -3   2   8 845.876 90.9161   8
  -3   2   8 640.203 101.373  27
  -3   2   7 73.0409 33.7677  23
  -3   2   7 47.0542 35.6042   8
  -3   2   7-16.0244 48.0163  27
  -3   2   6 4147.82 314.401  28
   3  -2  -5 16312.9 1133.30   3
  -3   2   5 17569.0 994.099   2
  -3   2   5 16684.4 467.243   4
  -3   2   5 14695.2 583.833  28
  -3   2   4 1771.11 144.632   4
  -3   2   4 1777.33 297.949   2
  -3   2   3 53162.4 1597.04   2
  -3   2   3 50421.5 834.701   4
  -3   2   2 36251.1 1206.99   2
  -3   2   2 32562.6 618.635   4
  -3   2   1 627.189 74.2128   4
  -3   2   1 589.825 141.390   2
  -3   2   0 13555.9 615.218   2
  -3   2  -1 5490.53 348.403   2
   3  -2   1 4767.47 202.087   6
   3  -2   2 4495.98 711.092   1
   3  -2   2 4690.09 201.284   6
   3  -2   3 8796.02 949.972   1
   3  -2   3 8783.64 288.653   6
   3  -2   4 1755.48 431.141   1
   3  -2   4 1838.51 138.545   6
   3  -2   5 19835.8 519.554   6
   3  -2   5 19680.7 613.224  20
   3  -2   5 18397.2 1347.42   1
   3  -2   5 20856.9 681.107  12
   3  -2   6 46013.7 887.163   6
   3  -2   6 47191.0 1047.85  20
   3  -2   6 46322.1 1070.12  12
   3  -2   7 1534.58 176.372  20
   3  -2   8 5398.05 311.034  20
   3  -2   9 397.134 69.3803  20
  -3   1   9 1852.55 127.929  27
  -3   1   8 1354.87 109.321   8
  -3   1   8 1009.32 141.803  27
  -3   1   7 5315.16 243.646  23
  -3   1   7 4503.71 237.937   8
  -3   1   6 1500.25 146.017   8
  -3   1   5 889.842 102.087   4
   3  -1  -5 957.151 267.032   3
  -3   1   5 868.536 89.6765   7
  -3   1   5 805.453 128.696  28
  -3   1   4 28983.2 1201.74   2
  -3   1   4 26827.7 584.823   4
   3  -1  -4 29660.7 1408.00   3
  -3   1   3 184.629 92.1192   2
  -3   1   3 158.853 45.1275   4
  -3   1   2 1886.45 254.098   2
  -3   1   1 59811.1 1361.46   2
  -3   1   0 22182.3 724.117   2
  -3   1  -1 14096.8 491.555   2
   3  -1   2 22591.6 1485.20   1
   3  -1   3 11956.7 1044.91   1
   3  -1   3 11486.9 292.677   6
   3  -1   4 174175. 4307.80   1
   3  -1   4 164617. 1747.53   6
   3  -1   5 2782.81 170.166   6
   3  -1   5 2567.49 509.900   1
   3  -1   6 3574.40 259.673  20
   3  -1   6 3467.44 214.051   6
   3  -1   6 2837.96 539.188   1
   3  -1   6 3195.82 242.595  27
   3  -1   7 227.412 81.7014  27
   3  -1   7 193.674 65.0729  20
   3  -1   8 5618.94 335.660  20
   3  -1   8 5925.50 343.402  27
   3  -1   9 3992.12 240.549  20
   3  -1  10 796.983 119.787  15
  -3   0   9 68.8856 35.2523  27
  -3   0   8 1271.98 163.606  27
  -3   0   7 3161.19 188.446   8
  -3   0   6 5774.42 273.988   8
  -3   0   5 6560.69 281.023   8
  -3   0   5 6159.73 244.065   7
   3   0  -5 6795.84 694.468   3
  -3   0   5 6382.34 267.572   4
   3   0  -4 20095.4 1128.56   3
   3   0  -3 15963.4 927.847   3
  -3   0   2 52518.4 1357.12   2
  -3   0   1 16588.4 652.535   2
  -3   0   0 8004.43 400.938   2
  -3   0  -1 3584.64 212.344   2
   3   0   2 83801.4 2591.19   1
   3   0   3 32025.9 1629.89   1
   3   0   4 2267.89 456.140   1
   3   0   5 26186.2 517.154   6
   3   0   5 27483.5 1601.06   1
   3   0   6 53751.1 2351.28   1
   3   0   6 56479.3 900.999   6
   3   0   7 584.129 99.6046  20
   3   0   7 423.030 210.981   1
   3   0   7 696.749 130.783  27
   3   0   8 3753.73 267.148  20
   3   0   8 3941.30 304.228  27
   3   0   9 3109.38 221.085  20
   3   0   9 3649.88 279.094  27
   3   0  10 27374.2 813.844  15
  -3  -1   9 326.422 51.0235  27
  -3  -1   8 1564.41 175.043  27
  -3  -1   7 2458.91 200.675  20
  -3  -1   6 8706.89 319.346   8
  -3  -1   5 6638.09 276.681   8
  -3  -1   5 6514.00 252.126   7
   3   1  -5 7153.14 713.081   3
   3   1  -4 3492.19 466.566   3
   3   1  -3 22.2678 50.3923   3
   3   1  -2 7208.43 539.779   3
   3   1  -1 41936.0 1202.64   3
   3   1   0 6472.09 390.668   3
   3   1   1 82614.7 1258.98   3
   3   1   2 9676.64 786.167   1
   3   1   2 8526.92 177.052   3
   3   1   3 22432.4 1243.51   1
   3   1   4 123873. 3242.42   1
   3   1   5 362.191 50.6382   6
   3   1   5 475.781 207.724   1
   3   1   6 8843.60 902.288   1
   3   1   7 7588.11 415.402  27
   3   1   7 6691.26 290.854  23
   3   1   7 6834.81 325.355  20
   3   1   7 6934.61 852.145   1
   3   1   8 470.225 116.079  27
   3   1   9 13414.5 586.975  27
   3   1  10 414.130 101.952  27
   3   1  10 397.484 119.329  15
   3   1  11 30.7924 33.8758  15
  -3  -2   8 751.229 89.2009  20
  -3  -2   8 971.731 120.273  27
  -3  -2   7 217.268 89.7589  27
  -3  -2   7 165.820 56.6876  20
  -3  -2   6 9961.42 319.808  22
  -3  -2   5 20084.1 478.586  22
   3   2  -5 21488.1 1241.57   3
   3   2  -4 2699.94 426.614   3
   3   2  -3 1686.58 308.140   3
   3   2  -2 15917.8 839.526   3
   3   2  -1 18995.7 817.987   3
   3   2   0 96653.6 1727.93   3
   3   2   1 16069.1 532.114   3
   3   2   1 14516.1 803.224   1
   3   2   2 864.009 206.134   1
   3   2   2 661.945 83.1240   3
   3   2   3 59018.7 1880.88   1
   3   2   3 56997.1 812.234   2
   3   2   4 69052.2 2186.76   1
   3   2   5 5829.86 659.432   1
   3   2   6 25051.7 1473.98   1
   3   2   7 21518.7 623.803   9
   3   2   7 23722.0 570.366  23
   3   2   7 21440.7 1501.18   1
   3   2   7 22130.3 723.429  27
   3   2   8 693.474 95.2469  23
   3   2   8 777.001 114.623   9
   3   2   8 814.126 145.082  27
   3   2   8 795.998 101.546  16
   3   2   9 680.534 94.5861  23
   3   2   9 820.670 106.860   9
   3   2   9 783.471 153.429  27
   3   2   9 704.652 93.1550  16
   3   2   9 927.667 194.765  15
   3   2  10 12839.7 521.743  27
   3   2  10 13358.4 636.382  15
   3   2  11 2397.76 201.195  15
  -3  -3   8 853.354 85.0526  20
  -3  -3   8 814.611 83.6844  27
  -3  -3   7 3047.08 224.054  20
  -3  -3   7 3301.40 243.916  27
  -3  -3   6 104.226 55.6887  20
  -3  -3   6 86.2765 32.2567  22
  -3  -3   5 5514.09 251.045  22
  -3  -3   4 20368.2 481.485  22
   3   3  -4 20396.3 1173.83   3
   3   3  -3 892.514 234.924   3
   3   3  -2 9842.31 686.678   3
   3   3  -1 2264.98 293.673   3
   3   3   0 23996.2 866.763   3
   3   3   1 73629.9 1393.66   3
   3   3   1 59242.8 1346.78   1
   3   3   2 9410.47 411.618   3
   3   3   2 8091.22 547.438   1
   3   3   3 2098.02 196.751   2
   3   3   3 2268.86 323.234   1
   3   3   4 165102. 3321.65   1
   3   3   5 207.070 116.398   1
   3   3   6 9384.59 890.046   1
   3   3   7 13669.4 502.629   9
   3   3   7 14282.3 433.591  23
   3   3   7 14420.5 1214.86   1
   3   3   7 15542.4 728.542  15
   3   3   7 13611.7 560.040  27
   3   3   8 1468.23 148.061  23
   3   3   8 1243.93 148.979   9
   3   3   8 1180.40 133.307  16
   3   3   8 1457.89 238.139  15
   3   3   8 1355.55 186.429  27
   3   3   9 25869.2 622.224  23
   3   3   9 24588.2 672.702   9
   3   3   9 25861.9 844.122  27
   3   3   9 24546.4 623.747  16
   3   3   9 26570.9 1024.77  15
   3   3  10 17104.0 610.314  27
   3   3  10 16166.9 427.491  23
   3   3  10 15970.6 458.008   9
   3   3  10 15751.8 420.906  16
   3   3  10 17669.6 747.343  15
   3   3  11 138.082 60.4195  15
  -3  -4   7 1101.08 120.820  20
  -3  -4   6 3976.31 280.661  20
  -3  -4   6 3748.67 252.361  27
  -3  -4   5 7927.52 306.167  22
  -3  -4   4 327.728 63.9811  22
   3   4  -4 1049.77 267.487   3
  -3  -4   3 5754.15 241.370  22
   3   4  -3 5077.50 579.915   3
   3   4  -2 16068.8 941.319   3
   3   4  -1-10.4592 43.1608   3
   3   4   0 4523.21 415.924   3
   3   4   1 993.566 183.350   3
   3   4   2 98293.4 1787.71   3
   3   4   3 33774.7 1185.07   1
   3   4   3 32245.8 991.713   2
   3   4   4 272.463 89.2603   2
   3   4   4 246.156 62.2707   5
   3   4   4 283.694 122.828   1
   3   4   5 6092.09 649.140   1
   3   4   6 19561.9 1307.31   1
   3   4   7 42683.6 831.216  10
   3   4   7 43152.3 955.063   9
   3   4   7 40395.8 1247.50  15
   3   4   7 42191.1 992.937  27
   3   4   8 1011.41 129.017  23
   3   4   8 1128.04 152.211   9
   3   4   8 987.878 205.389  15
   3   4   8 1226.35 170.669  27
   3   4   9 218.907 60.5095  23
   3   4   9 259.544 73.4104   9
   3   4   9 211.675 56.1994  16
   3   4   9 371.325 134.398  15
   3   4   9 445.140 102.338  27
   3   4  10 11046.0 345.723  23
   3   4  10 10992.4 388.775   9
   3   4  10 9895.95 342.883  16
   3   4  10 11533.0 601.124  15
   3   4  10 11173.3 462.803  27
   3   4  11 1951.33 106.122  16
  -3  -5   7 3576.36 167.254  20
  -3  -5   6 230.450 70.5123  20
  -3  -5   5 121.006 63.7160  20
  -3  -5   3 76.9669 40.7341  22
   3   5  -3 27.8876 30.4272  24
   3   5  -3 128.764 138.787   3
   3   5  -2 780.086 249.894   3
   3   5  -2 999.075 117.888  24
  -3  -5   2 977.357 96.4419  22
   3   5  -1 1797.99 321.895   3
   3   5   0 18225.5 944.265   3
   3   5   1 80218.8 1899.62   3
   3   5   2 3199.35 368.124   2
   3   5   3 7686.01 339.999   5
   3   5   3 7790.76 552.030   2
   3   5   4 33614.0 765.463   5
   3   5   4 35644.7 1179.69   2
   3   5   5 193.955 127.216   1
   3   5   6 13758.9 491.415   9
   3   5   6 12918.1 420.610  17
   3   5   6 12388.9 670.976  15
   3   5   7 825.861 104.245  25
   3   5   7 889.359 122.377  10
   3   5   7 896.151 135.580   9
   3   5   7 878.445 188.587  15
   3   5   7 844.803 116.004  14
   3   5   8 1486.74 146.591  10
   3   5   8 1799.41 190.644   9
   3   5   8 1647.04 180.552  27
   3   5   8 1481.25 257.175  15
   3   5   9 25286.2 558.394  10
   3   5   9 27595.9 750.916  27
   3   5   9 24630.3 613.954  23
   3   5   9 26227.1 699.387   9
   3   5   9 25948.2 663.702  16
   3   5   9 25126.1 1004.63  15
   3   5  10 4390.70 238.598   9
   3   5  10 3817.57 196.278  23
   3   5  10 4068.03 211.349  16
   3   5  11 900.798 73.5145  16
  -3  -6   6 766.404 84.8695  20
  -3  -6   5 1185.65 138.715  20
  -3  -6   4 582.308 103.387  20
  -3  -6   3 1801.36 188.645  20
   3   6  -3 2152.70 168.973  24
   3   6  -2 281.862 62.4660  24
   3   6  -1 6019.09 613.584   3
   3   6  -1 6266.05 301.623  24
   3   6   0 2424.95 177.675  24
   3   6   0 2396.78 379.823   3
   3   6   1 2268.39 360.653   2
   3   6   2 6011.31 321.671   5
   3   6   2 6787.20 616.116   2
   3   6   3 104.711 99.2897   2
   3   6   3 64.3143 39.3324   5
   3   6   4 2016.88 181.051   5
   3   6   4 2496.02 346.679   2
   3   6   5 6052.28 515.920   2
   3   6   5 5845.02 271.046  17
   3   6   6-22.0460 31.0157  14
   3   6   6 64.8539 47.3722  25
   3   6   6 51.5139 42.9980   9
   3   6   6 47.1804 35.5521  17
   3   6   7 4780.17 270.169  25
   3   6   7 4761.03 301.675  10
   3   6   7 5737.87 310.321  14
   3   6   7 5113.63 311.209   9
   3   6   8 686.960 106.023  10
   3   6   8 885.174 129.640   9
   3   6   8 878.908 123.187  14
   3   6   9 34.1586 30.7228  10
   3   6   9 17.9763 27.8433  23
   3   6   9 101.740 52.0866   9
   3   6   9-6.93137 44.4803  16
   3   6  10 31026.6 627.456   9
   3   6  10 29983.4 578.373  16
   3   6  11 6599.10 183.906  16
  -3  -7   5 208.253 40.2986  20
   3   7  -5 304.001 45.9590  26
  -3  -7   4 1288.49 123.257  20
   3   7  -3 177.682 55.2357  24
  -3  -7   3 57.1964 39.5113  20
   3   7  -2 146.716 51.4553  24
   3   7  -1 834.356 118.241  24
   3   7   0 7244.89 332.211  24
   3   7   1 16046.2 480.795  24
   3   7   1 16113.3 1041.05   2
   3   7   2 2697.36 186.328  24
   3   7   2 3307.21 456.014   2
   3   7   3 582.224 184.581   2
   3   7   3 526.809 75.0622  24
   3   7   4 1896.37 327.445   2
   3   7   4 2051.99 162.986  17
   3   7   5 1398.63 269.897   2
   3   7   5 1647.32 153.876  17
   3   7   6 3372.03 249.212  25
   3   7   6 3132.57 223.677  17
   3   7   6 3248.33 231.712  14
   3   7   7 1304.16 155.737  10
   3   7   7 1137.63 136.999  25
   3   7   7 1386.21 152.238   9
   3   7   7 1417.58 155.975  14
   3   7   8 9447.06 368.945   9
   3   7   8 9517.87 380.543  14
   3   7   8 9333.21 382.244  10
   3   7   9 9310.48 323.559  10
   3   7   9 8993.27 334.920  16
   3   7  10 10031.1 253.451  10
   3   7  10 10387.3 285.162  16
   3   8  -4 118.135 30.4152  26
   3   8  -3 892.553 80.4717  24
   3   8  -3 1017.56 93.1182  26
   3   8  -2 2106.62 153.564  24
   3   8  -2 2199.03 149.707  26
   3   8  -1 19322.0 530.826  24
   3   8  -1 18736.2 474.641  26
   3   8   0 2228.56 183.513  24
   3   8   0 2252.83 158.192  26
   3   8   1 441.248 82.0986  24
   3   8   1 449.934 69.1038  26
   3   8   2 16406.6 486.566  24
   3   8   2 18525.6 421.950  26
   3   8   3 1830.40 143.022  24
   3   8   4 1006.88 109.638  17
   3   8   4 699.078 120.042  14
   3   8   5 2559.29 189.280  17
   3   8   5 2679.13 217.938  14
   3   8   6 502.415 100.937  25
   3   8   6 544.139 110.982  10
   3   8   6 597.284 98.0285  14
   3   8   7 38615.2 835.272  10
   3   8   7 36617.8 770.373  14
   3   8   8 2273.93 172.163  10
   3   8   8 2009.24 152.774  14
   3   8   8 1707.91 142.650  25
   3   8   9 241.260 45.7964  23
   3   8   9 329.084 58.4632  16
   3   9  -2 67.9679 27.3847  26
   3   9  -2 90.8093 31.2559  24
   3   9  -1 4509.50 205.747  24
   3   9  -1 4760.75 191.673  26
   3   9   0 315.193 63.4621  24
   3   9   0 285.190 53.1711  26
   3   9   1 5183.09 251.159  24
   3   9   1 5650.97 219.451  26
   3   9   2 1137.52 117.958  24
   3   9   3 3864.45 199.595  24
   3   9   4 2434.96 195.237  10
   3   9   4 1417.15 153.734  14
   3   9   5 3756.02 243.003  10
   3   9   5 3628.14 256.755  25
   3   9   6 847.192 117.303  25
   3   9   6 781.001 111.643  10
   3   9   6 655.749 90.5998  14
   3   9   7 25.8301 32.2055  25
   3   9   7 49.3492 34.6507  14
   3   9   7 68.9167 45.5780  10
   3   9   8 3963.63 180.754  10
   3   9   8 2182.21 120.298  16
   3   9   9 4775.30 156.093  10
   3  10   0 66.9078 25.4517  24
   3  10   1 50.9081 26.9404  24
   3  10   2 5613.07 199.097  24
   3  10   3 157.788 34.2306  24
   3  10   4 626.950 100.827  25
   3  10   5 144.122 36.0245  10
   3  10   5 277.557 63.6849  25
   3  10   6 245.656 49.3251  25
   3  10   6 206.813 38.5912  10
   3  10   7 4752.23 153.428  10
   3  10   7 3365.05 143.900  25
  -4   7   4 3544.71 178.016  28
  -4   7   3 177.012 49.1992  28
  -4   7   2 1869.69 107.964  13
  -4   7   2 1933.57 154.312  28
  -4   7   1 1365.76 132.135  28
  -4   7   1 1518.98 97.9580  13
  -4   7   0 1752.50 148.353  28
  -4   7   0 1744.72 105.570  13
  -4   7  -1 10038.0 338.068  28
  -4   7  -1 9677.92 227.107  13
  -4   7  -2-14.2168 18.9062  28
  -4   6   5 2413.35 178.508  28
  -4   6   4 455.590 85.3499  28
   4  -6  -4 311.058 57.8050   6
  -4   6   3 3607.03 173.798  13
   4  -6  -3 2933.66 172.702   6
  -4   6   3 3435.53 249.212  28
  -4   6   2 721.212 89.6024  13
  -4   6   2 643.096 115.172  28
   4  -6  -2 593.080 83.8113   6
   4  -6  -1 6415.49 270.887   6
  -4   6   1 6858.80 371.563  28
  -4   6   1 7130.92 270.439  13
   4  -6   0-1.72347 37.5833   6
  -4   6   0 63.4094 58.8565  28
  -4   6   0-11.3895 39.6879  13
   4  -6   1 1613.31 131.458   6
  -4   6  -1 1365.99 108.106  13
   4  -6   1 1595.46 148.957  12
   4  -6   2 8458.71 285.627   6
   4  -6   2 9216.92 365.763  12
   4  -6   3 6795.27 242.694   6
   4  -6   3 6816.05 307.053  12
   4  -6   4 222.691 56.5468  12
  -4   5   7 1919.23 86.1693   8
  -4   5   6 2764.28 197.291  28
  -4   5   6 3104.64 143.662   8
  -4   5   5 2055.80 196.707  28
  -4   5   5 2353.36 137.213   8
  -4   5   4 1353.47 172.075  28
  -4   5   3 1199.91 117.469  13
   4  -5  -3 1278.06 136.843   6
  -4   5   3 1326.91 176.150  28
  -4   5   2 63.0618 50.5145  28
  -4   5   2 81.7038 40.8719  13
   4  -5  -2 75.3375 54.7001   6
   4  -5  -1 2633.72 194.782   6
  -4   5   1 2671.41 253.833  28
  -4   5   1 2482.58 170.601  13
   4  -5   0 121.767 49.8733   6
   4  -5   1 12575.9 485.278  12
   4  -5   1 12734.1 427.215   6
   4  -5   2 509.793 112.755  12
   4  -5   2 414.920 81.4172   6
   4  -5   3 2711.65 182.831   6
   4  -5   3 2975.27 248.584  12
   4  -5   4 3620.94 203.611   6
   4  -5   4 3617.88 266.078  12
   4  -5   5 3227.75 171.016   6
   4  -5   5 2784.97 213.307  12
   4  -5   6 3093.05 166.248  18
   4  -5   6 2942.12 165.798  12
  -4   4   7 31.3456 25.5955   8
  -4   4   6 11879.9 347.603   8
  -4   4   6 11111.2 448.242  28
  -4   4   5 729.226 130.949  28
  -4   4   5 859.726 103.429   8
  -4   4   4 271.438 82.1777  28
  -4   4   4 279.240 64.6974   8
  -4   4   3 3027.97 266.015  28
  -4   4   3 3076.49 188.037  13
  -4   4   2 1819.56 210.789  28
  -4   4   2 1978.38 157.279  13
   4  -4  -1 67472.2 1139.73   6
  -4   4   1 67678.6 999.124  13
   4  -4   0 25714.7 642.160   6
   4  -4   0 24746.0 655.649  12
   4  -4   1 538.524 104.758  12
   4  -4   1 460.898 84.6854   6
   4  -4   2 5145.80 275.213   6
   4  -4   2 5003.19 342.862  12
   4  -4   3 317.298 91.9242  12
   4  -4   3 394.013 75.2897   6
   4  -4   3 341.867 88.3125  20
   4  -4   4 570.011 119.183  12
   4  -4   4 568.723 95.9607   6
   4  -4   4 584.980 116.265  20
   4  -4   5 7009.90 372.407  20
   4  -4   5 7437.35 315.636   6
   4  -4   5 7933.88 418.831  12
   4  -4   6 54.3249 54.4227  12
   4  -4   6 26.0227 34.1473   6
   4  -4   6-11.1995 42.0705  20
   4  -4   7 5241.14 213.265  12
  -4   3   8 2068.29 103.901   8
  -4   3   7 11264.2 329.548   8
  -4   3   6 159.521 49.4760   8
  -4   3   6 109.457 37.2318   7
  -4   3   6 40.9721 44.7832  28
  -4   3   5 706.581 134.176  28
  -4   3   5 646.726 101.313   8
  -4   3   4 3715.89 293.652  28
  -4   3   3 2855.05 178.556  13
  -4   3   3 3183.79 423.623   2
  -4   3   3 3172.73 215.096   4
  -4   3   3 2941.11 251.912  28
  -4   3   2 4354.30 475.871   2
  -4   3   2 4427.20 220.535  13
  -4   3   2 4407.84 300.769  28
  -4   3   1 2697.91 353.118   2
  -4   3   1 2605.08 157.514  13
   4  -3   0 20755.8 552.127   6
   4  -3   1 14760.0 455.302   6
   4  -3   1 14740.7 518.631  12
   4  -3   2 1077.71 139.528  20
   4  -3   2 785.305 358.851   1
   4  -3   2 1282.62 133.674   6
   4  -3   2 1320.29 165.032  12
   4  -3   3 199.311 66.5101  12
   4  -3   3 222.583 72.3890   6
   4  -3   3 161.730 55.8218  20
   4  -3   3 22.0519 108.340   1
   4  -3   4 1979.09 208.666  20
   4  -3   4 2108.59 176.253   6
   4  -3   4 2182.91 239.288  12
   4  -3   5 6774.65 320.894   6
   4  -3   5 6750.64 384.477  20
   4  -3   5 7111.00 425.719  12
   4  -3   6 6862.26 391.690  20
   4  -3   6 7220.77 318.181   6
   4  -3   6 7406.85 398.530  12
   4  -3   7 1988.39 187.124  20
   4  -3   7 1665.69 159.160  12
   4  -3   8 3438.02 207.316  20
   4  -3   8 2513.63 183.751  19
  -4   2   8 6447.04 201.120   8
  -4   2   7 1148.74 113.692   8
  -4   2   7 774.239 107.715  27
  -4   2   6 10088.7 368.297   8
  -4   2   6 9501.88 302.461   7
  -4   2   5 5429.51 270.215   4
  -4   2   5 4906.95 269.208   8
  -4   2   5 4902.36 329.242  28
   4  -2  -4 51.1481 130.721   3
  -4   2   4 122.147 45.8752   4
  -4   2   4 217.522 61.3105   8
  -4   2   4 184.926 74.6999  28
  -4   2   4 323.754 161.687   2
  -4   2   3 1390.49 281.772   2
  -4   2   3 1263.50 133.803   4
  -4   2   3 1172.78 149.330  28
  -4   2   3 1141.32 108.527  13
  -4   2   2 708.868 96.1297   4
  -4   2   2 841.407 199.115   2
  -4   2   1 59390.6 1580.70   2
  -4   2   1 52785.7 881.495   4
  -4   2   0 945.497 176.675   2
  -4   2   0 747.544 91.2573   4
   4  -2   1 6758.76 281.251   6
   4  -2   2 56634.9 906.200   6
   4  -2   2 56507.5 2957.61   1
   4  -2   3 694.273 318.644   1
   4  -2   3 879.115 103.730   6
   4  -2   4 1311.90 441.888   1
   4  -2   4 1610.20 178.148  20
   4  -2   4 1541.32 141.457   6
   4  -2   4 1860.51 209.953  12
   4  -2   5 2302.71 178.990   6
   4  -2   5 1694.98 454.003   1
   4  -2   5 2280.30 222.589  20
   4  -2   5 2143.66 233.040  12
   4  -2   6 2526.03 252.996  20
   4  -2   6 2685.01 198.987   6
   4  -2   6 2569.20 247.186  12
   4  -2   7 47511.6 1082.72  20
   4  -2   7 48378.5 989.317  12
   4  -2   8 6272.45 332.092  20
   4  -2   9 561.246 85.6606  15
  -4   1   8 2141.59 112.474   8
  -4   1   8 1441.94 121.097  27
  -4   1   7 15742.2 421.722   8
  -4   1   7 13407.4 504.837  27
  -4   1   6 1036.85 103.697   4
  -4   1   6 914.026 119.051   8
  -4   1   6 913.993 92.3669   7
  -4   1   5 3733.93 225.186   4
  -4   1   5 3374.96 222.971   8
  -4   1   5 3236.41 193.020   7
  -4   1   5 3465.06 267.470  28
   4  -1  -4 4050.24 553.295   3
  -4   1   4 3628.72 222.889   4
  -4   1   4 3560.21 219.975   8
  -4   1   4 3492.66 255.780  28
  -4   1   3 15917.6 914.673   2
  -4   1   3 14953.2 455.654   4
   4  -1  -3 17158.1 1093.24   3
  -4   1   2 144.666 44.7463   4
  -4   1   2 181.655 89.9280   2
  -4   1   1 8093.35 544.293   2
  -4   1   1 7524.81 283.607   4
  -4   1   0 17075.6 408.822   4
  -4   1   0 18522.5 745.475   2
   4  -1   1 77898.0 1029.45   6
   4  -1   2 19045.6 1610.25   1
   4  -1   2 20670.7 450.156   6
   4  -1   3 2670.60 592.161   1
   4  -1   3 2689.59 160.087   6
   4  -1   4 2810.78 600.795   1
   4  -1   4 2583.59 166.644   6
   4  -1   5 26112.9 727.287  20
   4  -1   5 24796.0 583.576   6
   4  -1   5 26775.2 766.024  12
   4  -1   6 41311.5 997.995  20
   4  -1   6 42076.0 823.770   6
   4  -1   6 42270.4 985.943  12
   4  -1   7 191.279 65.2728   6
   4  -1   7 178.361 95.3539  20
   4  -1   8 13240.6 526.266  20
   4  -1   9 4292.77 249.174  20
   4  -1  10 472.433 75.1878  19
  -4   0   8 229.728 57.8273  27
  -4   0   7 66.4111 35.4614   8
  -4   0   6 3359.63 213.825   8
  -4   0   6 3565.68 183.812   7
  -4   0   5 8127.88 330.372   4
  -4   0   5 7343.62 328.837   8
  -4   0   5 7213.20 287.098   7
   4   0  -4 994.859 267.307   3
  -4   0   4 888.678 110.315   4
  -4   0   4 903.319 111.315   8
  -4   0   4 919.864 102.582   7
   4   0  -3 144.867 91.6988   3
  -4   0   3-0.93100 20.6024   4
   4   0  -2 9809.63 746.158   3
  -4   0   1 31094.2 1080.07   2
   4   0  -1 36024.9 1302.08   3
  -4   0   0 1299.68 185.535   2
   4   0   1 2299.31 239.825   3
   4   0   2 40822.7 2161.04   1
   4   0   3 1559.74 432.904   1
   4   0   3 1797.95 111.585   6
   4   0   4 11420.0 1140.42   1
   4   0   4 10708.0 305.873   6
   4   0   5 6278.61 883.959   1
   4   0   5 7012.64 265.890   6
   4   0   6 19294.4 622.063  20
   4   0   6 18015.5 1466.43   1
   4   0   6 17816.7 631.130  27
   4   0   6 19083.4 500.000   6
   4   0   7 4613.66 337.037  27
   4   0   7 5006.21 329.001  20
   4   0   8 1180.73 154.859  20
   4   0   8 1123.16 163.692  27
   4   0   9 318.846 78.2883  20
   4   0  10 11384.2 469.302  15
  -4  -1   8 683.353 89.4428  27
  -4  -1   7 1765.41 146.763  20
  -4  -1   7 2608.36 148.071   8
  -4  -1   6 817.816 87.2640  22
  -4  -1   6 808.507 102.283   8
  -4  -1   5 4251.92 234.730   4
  -4  -1   5 3902.62 230.625   8
  -4  -1   5 4174.79 217.266   7
   4   1  -4 151.461 116.200   3
  -4  -1   4 145.514 51.6407   8
  -4  -1   4 124.599 41.4696   7
   4   1  -3 6296.25 636.739   3
   4   1  -2 3017.10 407.241   3
   4   1  -1 8856.95 626.350   3
   4   1   0 52515.6 1370.46   3
   4   1   1 59425.7 1218.46   3
   4   1   2-26.4762 94.2043   1
   4   1   3 11648.3 1032.95   1
   4   1   4 781.857 273.478   1
   4   1   5 22767.0 460.476   6
   4   1   5 22986.9 1606.98   1
   4   1   6 12929.3 1207.03   1
   4   1   6 13272.8 538.747  27
   4   1   6 13582.5 384.392   6
   4   1   7 2906.08 235.815  20
   4   1   7 2839.14 587.069   1
   4   1   7 2792.54 266.704  27
   4   1   8 10722.1 458.696  20
   4   1   8 10661.5 540.372  27
   4   1   9 9281.94 479.589  27
   4   1  10 192.477 90.0419  15
  -4  -2   8-32.3317 27.6637  27
  -4  -2   7 50.1602 39.6983  20
  -4  -2   7 59.2481 58.9561  27
  -4  -2   6 6257.20 241.073  22
  -4  -2   6 5476.27 241.561   8
  -4  -2   5 1420.92 129.380  22
  -4  -2   5 1470.36 136.663   8
  -4  -2   4 874.553 106.336   8
  -4  -2   4 1042.44 108.650   7
   4   2  -4 1298.01 309.605   3
   4   2  -3 1118.12 272.668   3
   4   2  -2 70228.3 2045.10   3
   4   2  -1 164805. 2963.26   3
   4   2   0 59613.0 1495.36   3
   4   2   1 2050.54 411.829   1
   4   2   1 3520.60 286.115   3
   4   2   2 32429.1 1588.98   1
   4   2   3 19907.6 1284.63   1
   4   2   4 23666.6 1471.50   1
   4   2   5 3976.02 616.841   1
   4   2   6 6444.36 816.781   1
   4   2   7 95232.4 1486.21   9
   4   2   7 92454.3 1699.59  27
   4   2   8 437.105 91.0700   9
   4   2   8 445.601 119.705  27
   4   2   9 2551.10 183.737   9
   4   2   9 2701.96 319.133  15
   4   2   9 2548.00 259.782  27
   4   2  10 1158.69 147.739  19
   4   2  10 1143.86 180.409  15
   4   2  11 1201.82 140.268  15
  -4  -3   7 280.937 63.1516  20
  -4  -3   7 427.735 85.7498  27
  -4  -3   6 198.707 47.9509  22
  -4  -3   5 1360.88 126.760  22
  -4  -3   4 2015.20 154.452  22
  -4  -3   4 1793.75 148.488   8
  -4  -3   3 6341.93 266.852   8
   4   3  -3 7253.28 707.345   3
   4   3  -2 624.490 198.996   3
   4   3  -1 138209. 2776.97   3
   4   3   0 31670.0 1109.83   3
   4   3   1 16513.8 884.903   1
   4   3   1 20027.7 768.335   3
   4   3   2 10774.0 766.396   1
   4   3   2 12304.5 521.981   3
   4   3   3 263.385 129.228   1
   4   3   4 18378.5 550.655   5
   4   3   4 14442.5 1045.35   1
   4   3   5 15408.7 1130.83   1
   4   3   6 39208.7 1941.50   1
   4   3   7 485.460 95.7305   9
   4   3   7 442.222 210.244   1
   4   3   7 562.721 150.143  15
   4   3   7 545.908 127.927  27
   4   3   8 15969.4 574.547   9
   4   3   8 16813.8 824.906  15
   4   3   8 15536.6 668.132  27
   4   3   9 13797.7 395.832  23
   4   3   9 13557.6 485.977   9
   4   3   9 14471.6 584.107  19
   4   3   9 13016.1 413.324  16
   4   3   9 14455.9 764.746  15
   4   3   9 13229.3 606.777  27
   4   3  10 113.793 43.2034   9
   4   3  10 28.8526 65.6079  15
   4   3  11 197.246 74.2899  15
  -4  -4   7 455.190 65.9971  20
  -4  -4   6 2080.10 188.586  20
  -4  -4   6 2417.99 191.298  27
  -4  -4   5 1929.36 146.559  22
  -4  -4   4 5547.21 260.784  22
   4   4  -3 1768.34 150.650  24
  -4  -4   3 2131.61 159.658  22
   4   4  -3 2188.01 395.054   3
   4   4  -2 468.681 179.984   3
   4   4  -1 43.2980 55.5048   3
   4   4   0 5652.12 507.556   3
   4   4   1 1026.33 199.310   3
   4   4   2 17532.0 722.090   3
   4   4   3 15626.3 512.245   5
   4   4   3 13447.6 812.300   1
   4   4   3 14208.7 650.964   2
   4   4   4 39934.7 881.237   5
   4   4   4 35781.7 1515.36   1
   4   4   5 8666.27 798.168   1
   4   4   6 6813.14 782.836   1
   4   4   7 31336.5 828.646   9
   4   4   7 32374.4 1848.90   1
   4   4   7 30436.1 1101.32  15
   4   4   7 28843.2 868.679  27
   4   4   8 902.788 137.228   9
   4   4   8 883.173 207.257  15
   4   4   8 913.008 170.270  27
   4   4   9 5490.22 286.863  16
   4   4   9 6674.18 523.927  15
   4   4   9 5691.28 382.975  27
   4   4   9 6145.09 343.638   9
   4   4  10 50.3891 36.9994   9
   4   4  10 90.7378 35.0602  16
   4   4  10 52.2597 57.5950  15
   4   4  11 739.623 71.9659   9
  -4  -5   6 319.218 71.7845  20
  -4  -5   5 940.950 134.841  20
  -4  -5   4 2686.04 179.318  22
  -4  -5   3 15096.9 442.348  22
   4   5  -3 13888.7 450.752  24
   4   5  -2 3446.35 223.390  24
  -4  -5   2 3606.49 197.728  22
   4   5  -2 3971.21 528.973   3
   4   5  -1 10127.0 379.083  24
   4   5  -1 10304.5 808.991   3
   4   5   0 26716.9 1229.98   3
   4   5   1 2484.24 343.917   3
   4   5   2 11737.3 681.001   3
   4   5   3 21306.8 654.883   5
   4   5   3 21086.1 923.073   2
   4   5   4 905.273 130.232   5
   4   5   5 32870.0 1540.64   1
   4   5   6 2136.09 436.953   1
   4   5   6 2012.26 198.441   9
   4   5   6 1880.91 160.711  17
   4   5   6 1930.22 268.070  15
   4   5   7 19205.3 1398.61   1
   4   5   7 17649.5 614.151   9
   4   5   7 17294.6 536.217  17
   4   5   7 16483.3 840.738  15
   4   5   8 11220.9 420.991  10
   4   5   8 12074.2 503.477   9
   4   5   8 11086.0 703.651  15
   4   5   9 8384.56 397.594   9
   4   5   9 8246.54 584.591  15
   4   5  10 3188.45 203.728   9
   4   5  10 3018.02 180.258  16
   4   5  11 206.915 45.3953   9
   4   5  11 148.096 30.8223  16
  -4  -6   6 392.461 47.7802  20
  -4  -6   5 24.7686 35.9619  20
  -4  -6   4 387.869 82.3027  20
   4   6  -3 842.146 108.907  24
  -4  -6   2 1991.45 156.737  22
   4   6  -2 2213.56 188.353  24
   4   6  -1 9289.59 380.559  24
  -4  -6   1 8627.23 304.291  22
   4   6  -1 9430.72 815.246   3
   4   6   0 8.30601 24.6840  24
  -4  -6   0 21.3689 20.7224  22
   4   6   0-36.9716 93.9843   3
   4   6   1 662.568 97.2548  24
   4   6   1 636.989 183.681   3
   4   6   2 10532.4 769.372   2
   4   6   3 37309.2 935.912   5
   4   6   3 42184.8 1483.50   2
   4   6   4 6571.80 372.471   5
   4   6   4 7792.72 597.356   2
   4   6   5 28009.1 717.599   9
   4   6   5 27567.5 634.882  17
   4   6   6 6524.04 361.827   9
   4   6   6 6565.26 313.225  17
   4   6   7 5860.51 342.453   9
   4   6   7 5738.10 306.535  17
   4   6   8 51.6850 39.5556  10
   4   6   8 154.639 62.6841   9
   4   6   9 3077.08 191.285  10
   4   6   9 3471.38 241.196   9
   4   6  10 11.4971 32.2668   9
   4   6  10 0.57803 25.0604  16
   4   6  11 2829.36 134.668   9
   4   6  11 2577.55 114.233  16
   4   7  -5 89.5916 24.3426  26
  -4  -7   4 94.7199 40.3141  20
   4   7  -3 5659.38 246.320  24
  -4  -7   3 4602.59 252.551  20
   4   7  -2 1521.38 150.850  24
   4   7  -1 163.070 60.3352  24
   4   7   0 3537.26 237.009  24
   4   7   1 4494.05 265.678  24
   4   7   1 4927.11 584.321   2
   4   7   2 2368.81 237.021   5
   4   7   2 2417.33 180.869  24
   4   7   2 2418.77 400.951   2
   4   7   3 1650.95 193.193   5
   4   7   3 1608.52 317.143   2
   4   7   3 1787.86 145.456  24
   4   7   4 63.3625 95.2493   2
   4   7   4 181.323 70.3769   5
   4   7   5 65915.0 1101.10  17
   4   7   6 14494.9 527.609   9
   4   7   6 15357.6 489.739  17
   4   7   7 691.101 101.146  25
   4   7   7 1021.60 138.620   9
   4   7   7 1038.76 138.933  17
   4   7   8 4614.32 273.896  10
   4   7   8 5222.78 302.418   9
   4   7   9 5441.15 249.781  10
   4   7   9 5768.87 279.785   9
   4   7  10 18054.5 402.659   9
   4   7  10 16047.9 369.189  16
   4   8  -4 1178.56 67.7673  26
   4   8  -3 66.4988 31.5463  24
   4   8  -3-5.88533 25.1844  26
   4   8  -2 2891.27 178.032  24
   4   8  -1 6540.25 304.244  24
   4   8   0-29.6821 45.4682  24
   4   8   0 46.3428 52.4709   5
   4   8   0-15.6683 30.4506  26
   4   8   1 1345.39 146.591  24
   4   8   1 1619.21 123.408  26
   4   8   2 405.679 76.6286  24
   4   8   3 4845.59 248.187  24
   4   8   4 4223.66 252.384  17
   4   8   5 455.229 87.6372  17
   4   8   6 431.125 94.1198  25
   4   8   6 419.120 80.5123  17
   4   8   7 10474.8 384.317  25
   4   8   7 14044.3 509.202  10
   4   8   8 327.590 71.8093  10
   4   8   8 454.485 73.5537   9
   4   8   9 3008.02 166.885  10
   4   8   9 3352.58 163.458   9
   4   8  10 369.091 45.6928  16
   4   9  -2 226.116 38.5582  24
   4   9  -2 249.006 39.1791  26
   4   9  -1 832.453 87.4865  24
   4   9  -1 899.247 79.9875  26
   4   9   0 63.8876 38.2245  24
   4   9   0 98.2297 36.7791  26
   4   9   1 928.368 106.729  24
   4   9   1 935.375 87.2334  26
   4   9   2 223.203 58.4307  24
   4   9   3 601.831 77.6498  24
   4   9   3 464.025 77.6307  17
   4   9   4 580.829 90.4128  17
   4   9   5 6993.37 345.291  25
   4   9   5 8173.63 307.229  17
   4   9   6 223.127 62.4744  25
   4   9   6 274.977 80.2576  10
   4   9   7 44.4406 30.3108  25
   4   9   7 54.1968 44.2928  10
   4   9   8 455.725 73.7154  10
   4   9   9 964.322 74.1696  10
   4   9   9 598.304 55.3432  16
   4  10   0 128.484 31.5555  24
   4  10   1 527.811 65.8222  24
   4  10   2 339.570 55.6810  24
   4  10   3 11305.3 278.535  24
   4  10   4 8816.49 340.747  25
   4  10   4 7434.53 250.389  10
   4  10   5 564.956 81.6084  25
   4  10   5 581.275 73.5160  10
   4  10   6 210.743 42.9430  25
   4  10   6 243.714 47.0255  10
   4  10   7 2281.54 124.086  10
   4  10   7 1305.73 83.5602  25
  -5   6   4 1871.78 119.632  28
  -5   6   3 1172.49 112.664  28
  -5   6   2 505.600 86.2924  28
   5  -6  -1 2170.48 127.746   6
  -5   6   1 2524.91 189.303  28
  -5   6   1 2106.29 116.833  13
   5  -6   0 86.7401 31.7625   6
  -5   6   0 134.198 48.2048  28
  -5   6   0 89.9554 33.8295  13
  -5   6  -1 1344.55 134.572  28
  -5   6  -1 1058.60 72.6343  13
  -5   6  -2 483.496 80.6385  28
  -5   6  -3 366.191 59.2492  28
  -5   5   5 1187.03 67.0309   7
  -5   5   5 1522.13 122.674  28
  -5   5   4 37.7409 35.2003  28
   5  -5  -4 57.0987 36.0408   6
   5  -5  -3 2672.04 167.989   6
  -5   5   3 3039.20 226.526  28
  -5   5   2 85.7204 52.3939  28
  -5   5   2 59.4929 33.2508  13
   5  -5  -2 24.3603 33.8539   6
   5  -5  -1 2215.56 168.840   6
  -5   5   1 2596.57 229.765  28
  -5   5   1 2347.39 151.158  13
   5  -5   0 5518.23 264.521   6
  -5   5   0 5724.69 343.502  28
  -5   5   0 5431.21 229.531  13
   5  -5   1 959.966 110.771   6
  -5   5  -1 1065.08 99.1208  13
   5  -5   2 8210.47 308.664   6
  -5   5  -2 7270.51 229.515  13
   5  -5   2 8412.57 357.845  12
   5  -5   3 1221.65 114.314   6
   5  -5   3 1240.40 137.188  12
   5  -5   4 20.8272 32.2425   6
   5  -5   4-97.4012 53.6796  12
  -5   4   6-7.57698 18.1480   8
  -5   4   5 22.8731 24.3624   8
  -5   4   5 32.6715 20.6424   7
  -5   4   5 53.9083 32.3814  28
  -5   4   4 5227.70 211.036   8
  -5   4   4 5029.40 299.349  28
   5  -4  -3 470.919 88.3403   6
  -5   4   3 560.875 107.675  28
  -5   4   2 14636.0 562.695  28
  -5   4   2 14177.7 401.932  13
   5  -4  -1 20996.7 581.969   6
  -5   4   1 21349.2 704.921  28
  -5   4   1 21643.9 512.951  13
   5  -4   0 3222.06 220.981   6
  -5   4   0 3716.91 204.186  13
   5  -4   1 1370.17 143.858   6
  -5   4  -1 1136.14 110.286  13
   5  -4   1 1231.86 148.385  12
   5  -4   2 6772.95 312.547   6
   5  -4   2 6605.99 370.558  12
   5  -4   3 8405.97 401.105  18
   5  -4   3 7364.11 319.760   6
   5  -4   3 7293.65 399.008  12
   5  -4   4 24037.3 687.246  18
   5  -4   4 22098.1 550.401   6
   5  -4   4 23111.1 707.354  12
   5  -4   5 2551.87 213.816  18
   5  -4   5 2495.52 162.538   6
   5  -4   5 2562.49 211.045  12
   5  -4   6 433.803 78.7495  18
  -5   3   7 736.202 60.7291   8
  -5   3   6 1305.92 103.795   8
  -5   3   6 1063.72 74.5502   7
  -5   3   5 1.74698 31.0240   8
  -5   3   5-22.9079 23.4999   7
  -5   3   5-14.5337 37.6894  28
  -5   3   4 194.032 55.8916   8
  -5   3   4 149.354 77.0450  28
  -5   3   3 5232.22 245.620   8
  -5   3   3 4846.07 320.963  28
  -5   3   2 653.006 94.9809  13
  -5   3   2 749.894 131.688  28
   5  -3  -1 2129.60 188.495   6
  -5   3   1 2133.41 217.553  28
  -5   3   1 2264.49 163.361  13
   5  -3   0 8671.70 378.946   6
  -5   3   0 8425.57 306.768  13
   5  -3   1 2082.60 198.237  18
   5  -3   1 2167.63 185.083   6
  -5   3  -1 2063.99 144.320  13
   5  -3   1 2036.38 203.716  12
   5  -3   2 22180.8 701.938  18
   5  -3   2 21825.8 591.310   6
   5  -3   2 21242.1 703.383  12
   5  -3   3 10266.2 490.850  18
   5  -3   3 9040.54 373.108   6
   5  -3   3 9158.44 472.841  12
   5  -3   4 6173.50 302.279   6
   5  -3   4 6444.53 399.900  12
   5  -3   5 13786.9 447.369   6
   5  -3   5 14421.9 584.047  12
   5  -3   6 2623.97 222.974  12
   5  -3   6 2644.29 179.777   6
   5  -3   7 1124.96 116.006  19
   5  -3   8 2445.39 148.364  18
  -5   2   7 1008.31 81.6963   8
  -5   2   6 72.6311 48.0680   8
  -5   2   6 62.6134 24.4140   7
  -5   2   5 3201.02 203.685   8
  -5   2   5 3200.71 184.184   7
  -5   2   5 3142.98 236.838  28
  -5   2   4 11671.2 412.778   4
  -5   2   4 11206.8 400.476   8
  -5   2   4 11111.5 477.711  28
  -5   2   3 7274.98 328.961   4
  -5   2   3 6629.60 301.055   8
  -5   2   3 6778.61 369.123  28
   5  -2  -2 897.302 247.599   3
  -5   2   2 736.636 225.461   2
  -5   2   2 938.262 122.297   4
  -5   2   2 947.182 107.259   8
  -5   2   2 940.751 135.847  28
  -5   2   2 863.586 97.9659  13
  -5   2   1 5846.65 286.141   4
  -5   2   1 5623.18 327.525  28
  -5   2   1 5399.23 242.683  13
  -5   2   0 1655.65 145.481   4
   5  -2   0 1472.10 169.176  18
   5  -2   0 1562.42 158.610   6
  -5   2   0 1807.03 131.975  13
   5  -2   1 4188.27 286.847  18
   5  -2   1 4349.23 251.346   6
   5  -2   1 4020.08 274.863  12
   5  -2   2 196.059 65.4427  12
   5  -2   2 218.575 270.955   1
   5  -2   2 158.023 69.8150  18
   5  -2   2 125.544 47.0370   6
   5  -2   3 577.791 112.981  12
   5  -2   3 575.401 100.784   6
   5  -2   3 415.941 316.839   1
   5  -2   4 22850.7 590.376   6
   5  -2   4 22306.1 765.751  12
   5  -2   5 748.974 144.898  20
   5  -2   5 797.081 108.464   6
   5  -2   5 957.074 156.337  12
   5  -2   6 1889.39 229.443  20
   5  -2   6 2041.77 170.890   6
   5  -2   6 2026.33 210.169  12
   5  -2   7 11990.0 511.139  20
   5  -2   8 2208.34 191.529  19
  -5   1   7 72.6025 32.5108   8
  -5   1   7 62.3842 27.8175  27
  -5   1   6 2933.95 157.722   4
  -5   1   6 2600.64 171.892   8
  -5   1   6 2598.05 140.778   7
  -5   1   5 4685.33 242.738   4
  -5   1   5 4289.32 242.864   8
  -5   1   5 4574.79 224.787   7
  -5   1   4 6457.30 308.452   4
  -5   1   4 6211.63 309.759   8
  -5   1   4 6037.97 280.126   7
  -5   1   3 16357.5 508.483   4
  -5   1   3 15317.1 477.772   8
   5  -1  -2 866.457 249.393   3
  -5   1   2 816.269 107.696   4
  -5   1   2 900.463 109.688   8
   5  -1  -1 245.712 114.919   3
  -5   1   1 218.331 52.7692   4
  -5   1   0 11.6488 24.5727   4
  -5   1  -1 1496.40 121.949   4
   5  -1   1 1470.21 134.619   6
   5  -1   2 26454.9 2129.84   1
   5  -1   2 27371.4 603.989   6
   5  -1   3 142.118 61.1699  12
   5  -1   3 105.209 46.2008   6
   5  -1   3 32.7481 78.5552   1
   5  -1   4 241.765 75.6363  12
   5  -1   4 222.580 52.1669   6
   5  -1   4 275.543 88.8173  20
   5  -1   4 290.350 248.456   1
   5  -1   5 32277.1 929.149  20
   5  -1   5 34680.6 726.274   6
   5  -1   5 33596.2 939.734  12
   5  -1   6 123.103 54.3648   6
   5  -1   6 174.484 81.2808  20
   5  -1   6 148.953 61.3664  12
   5  -1   7 5137.32 350.120  20
   5  -1   7 5061.25 263.318   6
   5  -1   8 1006.14 149.833  20
   5  -1   9 506.678 97.1028  19
  -5   0   7 1110.35 90.8735   8
  -5   0   7 870.195 111.900  27
  -5   0   6 20.6217 22.5254  22
  -5   0   6 45.1330 25.8085   4
  -5   0   6 34.1598 39.4879   8
  -5   0   5 4712.74 247.754   4
  -5   0   5 4237.96 252.327   8
  -5   0   5 4551.93 226.793   7
  -5   0   4 7056.61 324.272   4
  -5   0   4 6448.94 313.078   8
  -5   0   4 6276.87 284.371   7
   5   0  -3 2870.84 196.825  24
  -5   0   3 3447.71 228.178   4
  -5   0   3 3138.91 210.836   8
  -5   0   2 5655.32 281.575   4
  -5   0   2 5766.19 267.678   8
  -5   0   1 4695.91 242.180   4
   5   0  -1 6011.59 586.462   3
  -5   0   0 282.807 55.1720   4
  -5   0  -1 36375.1 651.895   4
   5   0   1 39146.4 671.333   6
   5   0   2 6260.38 1061.51   1
   5   0   2 8174.04 276.698   6
   5   0   3 89833.8 1154.44   6
   5   0   3 90422.0 3689.69   1
   5   0   4 15855.6 1513.26   1
   5   0   4 15399.3 414.652   6
   5   0   5 15665.9 1536.57   1
   5   0   5 14872.2 587.119  20
   5   0   5 15335.1 432.932   6
   5   0   5 14820.9 572.561  12
   5   0   6 3445.51 288.179  20
   5   0   6 3787.43 223.913   6
   5   0   6 3488.01 279.742  12
   5   0   7 9244.28 482.888  20
   5   0   7 10495.7 378.258   6
   5   0   8 2549.81 238.818  20
   5   0   8 3367.67 313.097  15
   5   0   9 4648.57 326.082  19
   5   0   9 3812.74 289.223  15
   5   0  10 8192.08 317.497  19
  -5  -1   7 168.752 61.1734  27
  -5  -1   6 2363.29 132.491  22
  -5  -1   6 2396.05 161.391   8
  -5  -1   5 618.016 93.4648   4
  -5  -1   5 608.795 96.5451   8
  -5  -1   5 665.844 88.3405   7
  -5  -1   4 402.334 78.4373   4
  -5  -1   4 377.672 81.2281   8
  -5  -1   4 368.963 71.8443   7
  -5  -1   3 16815.9 502.352   8
  -5  -1   3 17955.4 484.193   7
   5   1  -2 5857.96 629.186   3
   5   1  -1-0.31842 48.0372   3
   5   1   0 1867.69 284.405   3
   5   1   2 43914.5 2409.13   1
   5   1   3 10013.0 1107.60   1
   5   1   4 185.725 39.3635   6
   5   1   4 168.256 123.975   1
   5   1   5 73470.2 1010.58   6
   5   1   5 73426.3 3189.44   1
   5   1   6 80.6999 36.4631   6
   5   1   6 52.5747 38.5308  20
   5   1   7 5640.76 363.236  20
   5   1   8 2095.77 217.797  20
   5   1   8 2606.29 305.569  15
   5   1   9 13205.6 628.523  15
   5   1  10 62720.8 1100.68  19
   5   1  10 55686.1 1121.67  15
  -5  -2   7 262.840 44.1997  20
  -5  -2   7 512.249 82.8022  27
  -5  -2   6 2992.30 149.198  22
  -5  -2   5 42.7972 35.1237  22
  -5  -2   5 31.6455 34.2809   4
  -5  -2   5 61.7059 35.1341   8
  -5  -2   4 4197.17 248.640   8
  -5  -2   4 4572.36 243.228   7
   5   2  -3 31.8535 36.9081  24
  -5  -2   3 35.1879 34.5185   8
  -5  -2   3 14.1257 29.7565   7
   5   2  -3-53.1783 94.1729   3
  -5  -2   2 7372.43 310.294   8
  -5  -2   2 7631.04 291.654   7
   5   2  -2 8395.04 746.144   3
   5   2  -1 1757.82 313.739   3
   5   2   0 7988.26 597.760   3
   5   2   1 3177.96 609.517   1
   5   2   2 18369.8 538.220   5
   5   2   2 16576.6 1349.84   1
   5   2   3 47549.0 936.712   5
   5   2   3 48476.5 2279.32   1
   5   2   4 10732.7 1098.69   1
   5   2   5 1077.63 362.993   1
   5   2   6 831.690 123.578   9
   5   2   6 960.907 173.095  15
   5   2   6 648.268 276.535   1
   5   2   7 971.972 138.389   9
   5   2   7 1311.15 217.496  15
   5   2   8 7561.13 367.316   9
   5   2   8 8816.05 568.492  15
   5   2   9 11285.8 554.804  19
   5   2   9 11643.5 631.760  15
   5   2  10 5851.30 328.589  19
   5   2  10 6246.22 398.523  15
  -5  -3   7 170.367 32.5512  20
  -5  -3   7 245.736 46.8303  27
  -5  -3   6 7599.64 230.289  22
  -5  -3   6 5484.16 281.834  20
  -5  -3   5-16.3688 23.5344   4
  -5  -3   5 42.6540 37.4100  22
  -5  -3   4 244.309 67.8130  22
   5   3  -3 6744.50 310.788  24
  -5  -3   3 7133.05 317.748   8
  -5  -3   3 7399.52 307.523   7
   5   3  -2 2655.67 200.207  24
  -5  -3   2 2866.68 194.740   8
  -5  -3   2 2923.10 179.298   7
   5   3  -2 3063.68 455.267   3
   5   3  -1 17900.8 1025.19   3
   5   3   0 6187.78 535.449   3
   5   3   1 378.907 114.922   3
   5   3   2 1511.33 166.928   5
   5   3   2 1245.47 340.274   1
   5   3   3 11231.1 455.351   5
   5   3   3 10323.1 947.343   1
   5   3   4 5391.20 710.141   1
   5   3   4 6138.05 347.157   5
   5   3   5 26111.6 1651.05   1
   5   3   6 1653.68 182.649   9
   5   3   6 1725.56 212.046  19
   5   3   6 1352.13 394.084   1
   5   3   6 2125.26 258.405  15
   5   3   7 5405.29 331.854   9
   5   3   7 5063.76 387.810  19
   5   3   7 5850.41 464.563  15
   5   3   8 32.3942 66.5253   9
   5   3   8 125.204 91.6490  19
   5   3   8 74.6198 89.2494  15
   5   3   9 2426.89 203.045   9
   5   3   9 2642.77 263.357  19
   5   3   9 2704.80 323.452  15
   5   3  10 17300.3 420.612   9
   5   3  10 18680.4 580.896  19
  -5  -4   6 48.4508 40.1871  20
  -5  -4   6 79.7361 41.7254  27
  -5  -4   5 1913.96 136.067  22
  -5  -4   4 2497.30 176.862  22
   5   4  -3 1104.09 128.235  24
  -5  -4   3 1175.39 126.047  22
   5   4  -2 866.337 116.956  24
   5   4  -2 1183.69 290.946   3
   5   4  -1 1196.28 136.148  24
   5   4  -1 1203.63 273.091   3
   5   4   0 3873.47 448.486   3
   5   4   1-18.7041 55.5197   3
   5   4   3 97882.5 1613.48   5
   5   4   4 18751.0 647.327   5
   5   4   4 16862.5 1154.42   1
   5   4   5 1457.50 367.926   1
   5   4   6 4344.75 290.966  11
   5   4   6 4452.02 313.332   9
   5   4   6 3804.12 314.126  19
   5   4   6 4301.98 650.441   1
   5   4   6 5149.62 252.812  17
   5   4   6 4862.84 411.206  15
   5   4   7 111.917 63.8577   9
   5   4   7 117.941 83.0990  19
   5   4   7 131.216 94.2188  15
   5   4   8 26523.1 776.641   9
   5   4   8 24699.4 830.559  19
   5   4   8 28008.5 1107.84  15
   5   4   9 268.588 95.7465   9
   5   4   9 325.121 96.8659  19
   5   4   9 152.311 44.1950  16
   5   4   9 280.719 117.866  15
   5   4  10 7457.74 306.155   9
   5   4  10 8424.03 526.657  15
  -5  -5   6 849.791 78.2857  20
  -5  -5   5 90.5069 52.5588  20
  -5  -5   4 499.954 75.9238  22
   5   5  -3 8360.79 338.674  24
  -5  -5   3 9018.64 336.958  22
   5   5  -2-7.14683 47.1532  24
  -5  -5   2 34.6179 37.0052  22
   5   5  -1 2602.59 208.145  24
  -5  -5   1 2669.37 168.966  22
   5   5  -1 2583.23 427.979   3
   5   5   0 3354.51 228.259  24
  -5  -5   0 3140.89 169.809  22
   5   5   0 3381.34 452.233   3
   5   5   1 3010.48 394.082   3
   5   5   3 2822.67 261.746   5
   5   5   4 441.912 102.219   5
   5   5   5 23546.2 728.064  11
   5   5   5 26756.0 832.647   5
   5   5   6 7580.50 403.524  11
   5   5   6 8379.73 425.666   9
   5   5   6 8187.30 339.155  17
   5   5   7 3842.96 275.671  11
   5   5   7 3999.17 296.595   9
   5   5   7 4171.99 255.025  17
   5   5   7 3867.19 419.355  15
   5   5   8-0.59478 45.8208   9
   5   5   8 27.1710 84.6051  15
   5   5   9 838.295 139.460   9
   5   5  10 27343.2 619.285   9
   5   5  10 25279.6 519.779  16
   5   5  11 1190.48 86.6094   9
  -5  -6   5 39.1534 26.3113  20
  -5  -6   4 192.666 66.8680  20
   5   6  -3 313.874 69.1846  24
   5   6  -2 27.8477 34.3386  24
  -5  -6   2-22.7414 36.7588  22
   5   6  -1 3069.45 226.013  24
  -5  -6   1 3123.79 187.317  22
   5   6   0 11851.3 440.806  24
   5   6   0 10924.5 846.766   3
   5   6   1 3565.71 237.282  24
   5   6   1 3593.23 452.692   3
   5   6   2 138.310 83.8323   5
   5   6   2 146.591 49.7742  24
   5   6   3 20320.8 739.748   5
   5   6   3 20335.1 513.702  24
   5   6   4 5138.85 348.193  11
   5   6   4 4639.70 349.858   5
   5   6   5 7564.45 450.621   5
   5   6   5 6718.89 376.977   9
   5   6   6 626.680 124.453   9
   5   6   6 693.772 111.652  17
   5   6   7 3418.09 272.607   9
   5   6   7 3753.57 245.646  17
   5   6   8 21791.1 611.537  10
   5   6   8 23890.3 731.812   9
   5   6   9 122.720 49.5830   9
   5   6  10 107.594 46.2572   9
   5   6  10 38.6539 27.3430  16
   5   6  11 10739.3 262.462   9
  -5  -7   4 44.1390 23.7830  20
   5   7  -3 673.822 77.7581  24
  -5  -7   3 667.286 90.0928  20
   5   7  -2 670.366 93.3979  24
  -5  -7   2 503.601 92.0563  20
   5   7  -1 4793.06 271.988  24
   5   7   0 2076.90 184.130  24
   5   7   1 239.585 65.5231  24
   5   7   2 1708.47 225.860   5
   5   7   2 1504.07 156.404  24
   5   7   3 504.197 79.6647  24
   5   7   3 565.153 126.956   5
   5   7   4 1778.54 212.962   5
   5   7   5 2522.29 233.636   9
   5   7   5 2729.28 210.800  17
   5   7   6 38.3012 34.9860   9
   5   7   6 50.7129 44.1161  17
   5   7   7 49.0310 54.7403   9
   5   7   7 82.7370 62.9638  17
   5   7   8 1601.04 164.433  10
   5   7   8 1553.27 171.099   9
   5   7   9 4792.27 227.813  10
   5   7   9 5618.06 288.903   9
   5   7  10 29435.8 558.870   9
   5   7  10 26321.8 512.230  16
   5   8  -3 47.1946 19.6158  24
   5   8  -3 3.83626 24.3337  26
   5   8  -2 317.532 83.8718   5
   5   8  -2 386.783 61.9393  24
   5   8  -1 912.480 112.023  24
   5   8   0 4910.17 342.824   5
   5   8   0 5800.93 296.513  24
   5   8   1 3.70258 34.8046  24
   5   8   1 40.8030 56.6908   5
   5   8   2 880.638 114.972  24
   5   8   2 829.134 142.057   5
   5   8   3 2049.28 163.007  24
   5   8   3 1802.77 205.810   5
   5   8   4 1873.68 204.371   5
   5   8   5 2777.86 212.936  17
   5   8   6 4207.03 251.816  17
   5   8   7 478.868 97.3926   9
   5   8   7 524.621 89.8166  17
   5   8   8 12373.3 426.448  10
   5   8   8 14194.0 435.455   9
   5   8   9 2616.90 155.393  10
   5   8   9 3170.20 169.710   9
   5   8  10 4161.10 155.267  16
   5   9  -1 2704.00 141.806  24
   5   9  -1 2799.81 119.697  26
   5   9   0 224.994 56.3166  24
   5   9   0 184.164 38.9666  26
   5   9   1 1413.43 127.709  24
   5   9   2 3353.30 198.698  24
   5   9   3 582.826 84.1341  24
   5   9   4 1243.85 125.571  17
   5   9   5 779.319 106.430  17
   5   9   6 16197.8 452.517  17
   5   9   7 6071.58 297.923  10
   5   9   8 952.700 104.843  10
   5   9   9 674.668 62.1850  10
   5   9   9 480.329 55.3835  16
   5  10   0 849.716 63.4665  24
   5  10   1 204.767 41.5646  24
   5  10   2 87.2194 31.5525  24
   5  10   3 1423.81 95.7304  24
   5  10   4 1431.04 122.028  25
   5  10   4 1599.43 109.375  17
   5  10   5 827.552 101.564  10
   5  10   5 916.532 82.3985  17
   5  10   6 591.264 79.2348  10
   5  10   7 148.560 37.2105  10
   5  10   8 3666.10 129.798  10
  -6   5   3 858.224 80.6285  28
  -6   5   2 271.989 53.9096  28
   6  -5  -1 259.944 50.4442   6
  -6   5   1 262.057 59.6562  28
   6  -5   0 1554.74 114.573   6
  -6   5   0 1521.07 139.965  28
   6  -5   1 645.607 75.5752   6
  -6   5  -1 493.060 81.3455  28
  -6   5  -2 11185.5 364.396  28
  -6   5  -3 821.302 90.9831  28
  -6   4   4 1023.28 76.7287   7
  -6   4   4 926.355 88.3520  28
  -6   4   3 65.0101 40.3552  28
   6  -4  -3 95.2959 41.1271   6
  -6   4   2 65.8274 49.5145  28
   6  -4  -2 105.510 44.8440   6
   6  -4  -1 4187.58 223.153   6
  -6   4   1 4351.20 269.925  28
   6  -4   0 4104.85 227.163   6
  -6   4   0 4220.97 273.651  28
  -6   4   0 3728.01 168.189  13
   6  -4   1 648.695 90.0300   6
  -6   4  -1 626.592 67.7417  13
  -6   4  -1 583.640 107.520  28
   6  -4   2 26.0160 31.0027   6
   6  -4   3 6432.34 263.162   6
   6  -4   4 1784.24 147.713  18
   6  -4   4 2207.69 140.705   6
   6  -4   5 1519.16 119.584  18
  -6   3   5-12.1658 19.8248   8
  -6   3   5 15.7891 17.5734   7
  -6   3   4 562.015 69.3446   7
  -6   3   4 540.841 82.2986  28
   6  -3  -4 469.171 75.3435   6
   6  -3  -3 1111.63 120.777   6
  -6   3   3 1197.75 139.360  28
   6  -3  -2 15643.7 479.427   6
  -6   3   2 17205.3 559.340  28
   6  -3  -1 20947.6 570.688   6
  -6   3   1 22151.8 663.681  28
  -6   3   0 88.6096 53.4616  28
  -6   3   0 9.34517 35.4097  13
   6  -3   0-13.1322 46.0931   6
   6  -3   1 280.784 75.6856   6
  -6   3  -1 302.361 60.8555  13
   6  -3   2 2238.84 215.424  18
   6  -3   2 2346.89 181.353   6
   6  -3   3 481.746 86.5153   6
   6  -3   3 513.628 104.039  18
   6  -3   4 6252.78 363.812  18
   6  -3   4 5700.85 267.470   6
   6  -3   5 51.2589 39.2684   6
   6  -3   5 1.68877 50.7612  18
   6  -3   6 1255.97 141.189  18
   6  -3   6 1214.55 102.633   6
   6  -3   7 5111.89 217.761  18
  -6   2   6 393.497 46.7420   8
  -6   2   5 1822.90 126.622   8
  -6   2   5 2013.51 117.987   7
  -6   2   4 1108.17 108.932   8
  -6   2   4 1024.17 104.950   7
  -6   2   3 2235.44 160.940   8
  -6   2   3 2126.09 185.879  28
  -6   2   2 2423.82 187.613   4
  -6   2   2 2041.88 188.271  28
  -6   2   1 209.617 69.1385  28
   6  -2  -1 255.034 79.1500   6
   6  -2   0 6813.70 330.704   6
  -6   2   0 6785.79 367.908  28
  -6   2   0 6329.38 249.056  13
   6  -2   1 708.665 126.708  18
   6  -2   1 572.752 93.3560   6
   6  -2   2 528.022 94.1013   6
   6  -2   2 486.522 102.378  18
   6  -2   3 7570.98 443.743  18
   6  -2   3 7459.42 331.961   6
   6  -2   3 7489.10 429.289  12
   6  -2   4 4087.25 335.355  18
   6  -2   4 3639.68 225.979   6
   6  -2   4 3807.26 307.166  12
   6  -2   5 3380.89 297.801  18
   6  -2   5 3069.56 201.987   6
   6  -2   6 154.069 50.9551   6
   6  -2   6 324.447 85.8294  19
   6  -2   6 218.320 87.3494  18
   6  -2   7 246.227 62.5591  19
   6  -2   7 343.255 84.9083  18
   6  -2   8 9054.47 312.998  18
  -6   1   6 1199.95 93.9893   8
  -6   1   5 231.013 61.6304   8
  -6   1   5 196.313 49.7192   7
  -6   1   4 524.083 85.9253   4
  -6   1   4 461.977 80.6764   8
  -6   1   4 470.375 75.9168   7
   6  -1  -3-13.2979 36.8228  24
  -6   1   3 4.42618 40.7166   4
  -6   1   3 9.12022 40.0069   8
  -6   1   2 8516.28 368.718   4
  -6   1   2 8302.67 333.639   8
  -6   1   1 3153.72 217.384   4
  -6   1   0 8257.65 343.937   4
   6  -1   0 8119.48 345.564   6
  -6   1  -1 8267.04 316.526   4
   6  -1   1 7373.97 430.429  18
   6  -1   1 8127.57 339.144   6
   6  -1   2 5601.15 379.472  18
   6  -1   2 6056.79 291.719   6
   6  -1   3 1698.17 217.194  18
   6  -1   3 1489.96 142.208   6
   6  -1   4 7491.39 421.849  19
   6  -1   4 7752.03 466.078  18
   6  -1   4 7731.81 328.179   6
   6  -1   4 7586.98 441.018  12
   6  -1   5 17.7908 32.1591   6
   6  -1   5 61.3639 77.0488  19
   6  -1   6 22661.3 766.772  19
   6  -1   6 21826.0 555.025   6
   6  -1   7 23727.9 749.609  19
   6  -1   7 22467.5 524.919   6
   6  -1   8 3142.95 234.986  19
   6  -1   8 3204.36 241.678  18
  -6   0   6 95.9356 36.5918   8
  -6   0   5 1187.44 110.528   4
  -6   0   5 1072.72 115.200   8
  -6   0   5 1113.00 101.043   7
  -6   0   4 3203.71 206.706   4
  -6   0   4 2652.30 198.758   8
  -6   0   4 2942.98 186.448   7
   6   0  -3 3476.38 228.379  24
  -6   0   3 4129.88 251.575   4
  -6   0   3 3559.25 231.588   8
  -6   0   3 3503.54 221.359   7
  -6   0   2 294.843 74.6169   4
  -6   0   2 325.386 73.3511   8
  -6   0   1 874.636 116.502   4
  -6   0   1 742.278 100.286   8
  -6   0   0 23169.4 583.739   4
   6   0   0 21074.5 642.114  21
   6   0   1 8927.63 470.342  18
   6   0   1 9552.71 348.718   6
   6   0   2 341.330 235.661   1
   6   0   2 388.274 99.4770  18
   6   0   2 363.426 68.4899   6
   6   0   3 11192.3 520.584  19
   6   0   3 11338.9 542.671  18
   6   0   3 10053.7 1375.00   1
   6   0   3 12009.4 379.929   6
   6   0   4 10685.6 1362.37   1
   6   0   4 11136.1 542.513  19
   6   0   4 11653.1 568.376  18
   6   0   4 12060.6 389.935   6
   6   0   5 32963.2 988.951  19
   6   0   5 35422.9 710.083   6
   6   0   6 1609.04 229.608  19
   6   0   6 1832.33 153.046   6
   6   0   7 178.038 52.9835   6
   6   0   7 94.7981 63.1595  21
   6   0   7 160.846 87.9322  19
   6   0   8 11301.2 530.028  19
   6   0   8 11586.9 502.792  18
   6   0   9 454.918 93.9990  19
   6   0   9 364.751 69.5727  18
  -6  -1   6 1428.57 78.1295  22
  -6  -1   5-18.8517 28.3674   4
  -6  -1   5-22.6890 29.8371   8
  -6  -1   4 226.964 60.7278   4
  -6  -1   4 163.213 55.8711   8
  -6  -1   4 229.388 55.6720   7
   6   1  -3 1432.10 146.496  24
  -6  -1   3 1801.12 168.060   4
  -6  -1   3 1527.42 156.073   8
  -6  -1   3 1641.00 152.424   7
   6   1  -2 8068.55 377.333  24
  -6  -1   2 9342.47 384.057   4
  -6  -1   2 8937.08 371.504   8
  -6  -1   2 8516.30 348.708   7
  -6  -1   1 2346.58 185.538   4
  -6  -1   1 2361.42 179.563   8
  -6  -1   0 5329.17 273.838   4
  -6  -1   0 5803.49 261.865   8
  -6  -1  -1 1693.16 144.709   4
   6   1   1 875.914 526.041   1
   6   1   2 1299.73 174.843  18
   6   1   2 1164.56 461.013   1
   6   1   3 7550.75 432.244  19
   6   1   3 8075.15 441.021  18
   6   1   3 7488.29 1097.91   1
   6   1   4 3038.07 696.722   1
   6   1   4 2743.05 270.726  19
   6   1   4 3053.09 276.517  18
   6   1   5 20817.0 1855.84   1
   6   1   5 19032.7 758.959  19
   6   1   5 20167.2 750.456  18
   6   1   6 337.295 67.2361   6
   6   1   6 343.106 94.7963  21
   6   1   6 244.198 111.351  19
   6   1   7 271.601 114.408  19
   6   1   8 5719.80 408.249  19
   6   1   8 5444.56 352.143  18
   6   1   9 13286.7 552.333  19
   6   1   9 11872.7 422.201  18
   6   1  10 6502.70 289.624  19
  -6  -2   6 32.0448 15.0089  22
  -6  -2   6-5.78647 18.1002  20
  -6  -2   5 51.6730 28.4743  22
  -6  -2   5-3.22788 26.6968   4
  -6  -2   4 403.049 80.2658   4
  -6  -2   4 275.714 66.0554   8
  -6  -2   4 380.404 72.2803   7
   6   2  -3 2221.65 181.478  24
  -6  -2   3 2444.40 194.616   4
  -6  -2   3 2268.05 190.907   8
  -6  -2   3 2376.77 178.139   7
   6   2  -2 363.575 79.0991  24
  -6  -2   2 443.488 85.7612   8
  -6  -2   2 469.093 77.7983   7
   6   2  -1 770.285 116.352  24
  -6  -2   1 734.676 102.824   8
  -6  -2   1 734.227 97.3021   7
   6   2   0 21692.2 630.718  24
  -6  -2   0 21987.9 550.117   8
  -6  -2   0 22525.9 514.927   7
   6   2   1-168.080 148.207   1
   6   2   2 191.421 148.427   1
   6   2   3 2951.32 230.139   5
   6   2   3 2623.64 612.377   1
   6   2   4 7878.64 1063.55   1
   6   2   4 7847.50 425.379  21
   6   2   4 7767.54 458.350  19
   6   2   4 8197.91 436.106  18
   6   2   5 34213.4 2197.74   1
   6   2   5 33723.0 908.701  21
   6   2   5 33145.8 1020.78  19
   6   2   5 31714.7 916.108  18
   6   2   6 701.518 128.654  21
   6   2   6 449.073 104.355   9
   6   2   6 472.532 133.124  19
   6   2   6 539.246 125.480  18
   6   2   7 37.4644 46.6449   9
   6   2   7 92.3105 81.9609  19
   6   2   7 18.2992 40.7357  18
   6   2   8 14427.1 676.846  19
   6   2   8 14364.7 559.221  18
   6   2   9 155.133 75.9060  19
   6   2   9 158.589 77.3644  15
   6   2  10 1628.09 166.625  19
  -6  -3   6 287.485 50.7042  20
  -6  -3   6 524.873 78.0499  27
  -6  -3   5 89.8848 35.5905  22
  -6  -3   5 46.5297 27.5960   4
  -6  -3   4 426.236 74.4547   4
  -6  -3   4 394.044 73.9624  22
   6   3  -3 2509.49 190.345  24
   6   3  -2 34848.6 808.604  24
  -6  -3   2 36137.1 736.881   7
   6   3  -1 31079.0 780.299  24
  -6  -3   1 32419.4 665.015   7
   6   3   0 253.820 74.0554  24
  -6  -3   0 222.489 43.8981   7
   6   3   1 4194.11 265.119  24
   6   3   2 4231.10 305.055   5
   6   3   3 3176.29 261.533   5
   6   3   3 2873.79 573.518   1
   6   3   4 4298.96 712.049   1
   6   3   4 4668.63 326.811   5
   6   3   4 4418.96 303.302  21
   6   3   4 4675.99 363.330  19
   6   3   5 120.790 59.1008  21
   6   3   5 71.4917 66.9459  19
   6   3   5 118.381 55.4572  18
   6   3   5 61.9764 71.0784   1
   6   3   6 48120.0 1043.90  21
   6   3   6 48313.5 1087.80   9
   6   3   6 48716.3 1304.91  19
   6   3   7 11238.1 492.676  11
   6   3   7 12623.8 523.228   9
   6   3   7 11588.8 628.784  19
   6   3   8 432.258 97.8126   9
   6   3   8 504.142 137.055  19
   6   3   8 607.241 166.983  15
   6   3   9 1024.59 120.677   9
   6   3   9 1155.07 176.342  19
   6   3   9 1226.05 193.992  15
   6   3  10 2086.36 190.479  19
  -6  -4   5 320.988 51.7771  22
  -6  -4   4 594.484 84.3238  22
   6   4  -3 510.816 91.0308  24
  -6  -4   3 611.346 93.3611  22
   6   4  -2 13039.4 470.316  24
   6   4  -1 20.2865 47.6190  24
   6   4  -1 33.1134 60.3283   3
   6   4   0 6706.82 346.295  24
   6   4   1 1985.37 184.587  24
   6   4   2 45.2644 56.7713   5
   6   4   2 75.6343 49.2436  24
   6   4   2-0.76997 46.6554  19
   6   4   3 8480.19 466.251   5
   6   4   3 7981.48 502.547  19
   6   4   4 598.898 127.516   5
   6   4   4 868.847 171.063  19
   6   4   5 41679.7 1177.81  19
   6   4   5 37786.0 1983.74   1
   6   4   6 362.214 96.1722  11
   6   4   6 249.695 87.7238   9
   6   4   6 437.061 141.222  19
   6   4   6 501.953 234.404   1
   6   4   7 465.486 99.3567  11
   6   4   7 537.537 118.717   9
   6   4   7 363.510 113.301  19
   6   4   7 432.852 149.091  15
   6   4   8 17337.1 620.623   9
   6   4   8 15818.5 711.844  19
   6   4   8 18316.6 867.001  15
   6   4   9 199.936 62.1531   9
   6   4   9 170.680 72.8662  19
   6   4   9 61.5137 66.0802  15
   6   4  10 1969.04 136.188   9
   6   4  10-2.27633 27.3295  19
  -6  -5   5 304.713 60.0267  20
  -6  -5   4 3.84012 24.3166  22
   6   5  -3 321.082 62.8225  24
  -6  -5   3 363.838 66.3039  22
   6   5  -2 895.055 118.984  24
  -6  -5   2 951.505 112.132  22
   6   5  -1 9564.70 409.233  24
  -6  -5   1 8852.54 338.002  22
   6   5   0 2625.05 215.328  24
  -6  -5   0 2287.78 157.281  22
   6   5   1 3034.17 226.917  24
   6   5   2 1145.92 156.652  11
   6   5   2 1034.37 185.786   5
   6   5   2 945.384 128.595  24
   6   5   3 7415.70 414.202  11
   6   5   3 8107.97 479.767   5
   6   5   3 7667.57 330.113  24
   6   5   4 2210.90 231.307  11
   6   5   4 2450.79 263.839   5
   6   5   4 2283.83 272.585  19
   6   5   5 82.4281 39.9538  11
   6   5   5 68.9949 84.9177  19
   6   5   6 14033.0 600.743  11
   6   5   6 15167.2 607.795   9
   6   5   6 13588.2 664.704  19
   6   5   6 15460.9 484.432  17
   6   5   7 8468.58 433.102  11
   6   5   7 8464.02 453.789   9
   6   5   7 7659.51 484.595  19
   6   5   7 9205.46 377.033  17
   6   5   8 131.400 67.7865   9
   6   5   8 219.310 88.7444  19
   6   5   9 56.8856 46.9809   9
   6   5   9 75.7984 37.8870  16
   6   5  10-2.13101 34.3605   9
  -6  -6   4 929.726 101.094  20
   6   6  -3 2423.15 146.908  24
   6   6  -2 853.672 113.135  24
  -6  -6   2 971.568 102.062  22
   6   6  -1 3954.58 255.149  24
  -6  -6   1 4108.56 213.686  22
   6   6   0 1566.55 164.814  24
  -6  -6   0 1368.50 118.398  22
   6   6   1 3648.85 255.508  24
   6   6   2 3309.44 337.410   5
   6   6   2 3369.13 231.431  24
   6   6   3 1.96182 46.3172  11
   6   6   3 29.5745 59.6745   5
   6   6   3 57.4981 50.7157  24
   6   6   4 4338.67 338.728  11
   6   6   4 4464.00 365.979   5
   6   6   5 18707.0 706.685  11
   6   6   5 17806.0 730.631   5
   6   6   5 16960.3 745.034  19
   6   6   6 6496.93 407.099  11
   6   6   6 6794.09 395.729   9
   6   6   6 6436.99 328.768  17
   6   6   7 1316.74 182.555   9
   6   6   7 1310.50 147.824  17
   6   6   8 6345.91 373.927   9
   6   6   9 49.6719 50.3664   9
   6   6  10 1435.42 125.221   9
   6   6  10 943.358 83.8523  16
   6   7  -3 151.326 30.8397  24
  -6  -7   3 134.394 40.7044  20
   6   7  -2 1785.47 136.270  24
  -6  -7   2 1360.47 132.504  20
   6   7  -1 2384.64 183.048  24
   6   7   0 164.702 61.0170  24
   6   7   1 4480.50 380.033   5
   6   7   1 4723.13 282.706  24
   6   7   2 3924.31 360.739   5
   6   7   2 4060.20 253.457  24
   6   7   3 2852.10 204.049  24
   6   7   3 2791.90 292.613   5
   6   7   4 1966.50 241.072   5
   6   7   4 1379.09 191.432   9
   6   7   5 7479.39 400.904   9
   6   7   6 2565.97 242.885   9
   6   7   6 2754.01 210.313  17
   6   7   7 3924.59 285.952   9
   6   7   7 4332.37 258.559  17
   6   7   8-23.9239 33.1192  10
   6   7   8 26.4415 38.4692   9
   6   7   9 63.6516 48.9968   9
   6   7  10 168.291 48.0770   9
   6   7  10 87.1745 29.7906  16
   6   8  -2 37.1144 23.0071  24
   6   8  -2 71.0893 23.5769  26
   6   8  -1 650.154 81.3236  24
   6   8  -1 575.708 112.423   5
   6   8   0 1597.81 204.601   5
   6   8   0 2562.56 182.975  24
   6   8   1 973.506 169.891   5
   6   8   1 1031.07 127.379  24
   6   8   2 417.411 81.7491  24
   6   8   2 450.736 114.052   5
   6   8   3 2216.37 166.677  24
   6   8   3 2099.92 236.857   5
   6   8   4 10844.0 527.420   5
   6   8   5 27423.0 686.254  17
   6   8   6 1621.60 174.585   9
   6   8   6 1939.60 171.819  17
   6   8   7 3396.35 236.979   9
   6   8   7 4172.31 245.484  17
   6   8   8 3034.60 204.252  10
   6   8   8 3373.17 217.999   9
   6   8   9 3140.00 151.133  10
   6   8   9 4577.46 205.549   9
   6   9  -1 408.702 49.1148  24
   6   9   0 297.373 54.5158  24
   6   9   1 37.0000 33.8802  24
   6   9   1 46.8977 50.1667   5
   6   9   2 366.069 64.7587  24
   6   9   2 285.680 75.9694   5
   6   9   3 1133.06 111.061  24
   6   9   3 983.117 134.291   5
   6   9   4 39.8461 43.6552  17
   6   9   5 1603.98 143.005  17
   6   9   6 7941.27 309.979  17
   6   9   7 2190.22 182.128  10
   6   9   8 1517.75 117.471  10
   6   9   9 20.0305 14.8591  16
   6  10   1 81.8751 24.1277  24
   6  10   2 90.3601 28.1559  24
   6  10   3 1430.11 85.6590  24
   6  10   3 1088.46 88.0826  17
   6  10   4 231.531 50.6903  17
   6  10   5 333.546 55.3362  17
   6  10   6 44.6486 31.6639  10
   6  10   7 114.410 32.5335  10
  -7   4   2 126.415 26.1222   7
  -7   4   1 231.644 40.5805  28
  -7   4   0 651.442 74.0243  28
   7  -4   1 287.756 51.1671  21
  -7   4  -1 396.146 59.8806  28
   7  -4   2 1951.90 142.615  21
  -7   4  -2 2025.07 129.898  28
   7  -4   3 33.8257 30.8964  21
  -7   4  -3 7.30726 21.9687  28
  -7   3   3 950.081 74.1611   7
   7  -3  -2 10495.1 302.155  24
   7  -3  -2 9445.27 280.674   6
   7  -3  -1 4402.50 205.711   6
  -7   3   1 4012.57 210.831  28
   7  -3   0 94.3284 38.0845   6
  -7   3   0 89.3113 38.9096  28
   7  -3   1 1751.14 167.704  21
   7  -3   1 1938.19 142.406   6
  -7   3  -1 1822.04 157.674  28
   7  -3   2 241.146 55.9367   6
  -7   3  -2 158.037 51.8531  28
   7  -3   3 14840.0 383.486   6
  -7   3  -3 13135.1 426.782  28
   7  -3   4 645.471 75.7318   6
   7  -3   5 107.352 47.0151  21
  -7   2   4 11.2098 22.2174   7
  -7   2   3 2260.51 136.834   7
   7  -2  -3 1853.65 125.568   6
   7  -2  -2 1387.09 130.206  24
   7  -2  -2 968.963 101.847   6
   7  -2  -1 2240.82 165.568   6
   7  -2   0 1772.96 151.898   6
   7  -2   1 3632.23 217.810   6
  -7   2  -1 3534.49 233.905  28
   7  -2   2 1370.36 132.587   6
  -7   2  -2 1525.33 161.765  28
   7  -2   3 7444.20 411.636  18
   7  -2   3 7402.85 304.118   6
   7  -2   4 507.551 77.0708   6
   7  -2   4 484.332 108.501  18
   7  -2   5 15075.5 552.138  18
   7  -2   5 14403.4 384.736   6
   7  -2   6 519.019 89.0594  21
   7  -2   6 497.260 90.8542  18
   7  -2   7 855.917 93.1534  18
  -7   1   4 804.736 79.2091   7
   7  -1  -3 52.7746 38.7560  24
  -7   1   3-53.5101 51.3700   8
  -7   1   3 22.9427 23.6052   4
  -7   1   3 30.1679 30.3223   7
   7  -1  -3 68.8122 34.5095   6
   7  -1  -2 2499.85 186.855  24
  -7   1   2 2710.52 185.544   4
  -7   1   2 2558.68 174.984   7
   7  -1  -2 2184.76 162.942   6
  -7   1   1 3422.31 217.004   4
   7  -1  -1 2926.23 195.780   6
   7  -1   0 830.227 108.798   6
   7  -1   1 217.171 91.0491  21
   7  -1   1 171.755 50.9049   6
   7  -1   2 3765.71 223.135   6
   7  -1   3 20501.3 764.299  18
   7  -1   3 20976.6 540.920   6
   7  -1   4 135.652 44.1011   6
   7  -1   4 200.779 83.7037  18
   7  -1   5 48.5651 30.7280   6
   7  -1   5 133.761 76.1214  19
   7  -1   5 117.502 92.6990  18
   7  -1   6 13908.0 518.734  21
   7  -1   6 13619.3 507.346  19
   7  -1   6 14190.2 573.399  18
   7  -1   6 13245.9 369.154   6
   7  -1   7 888.002 96.4197  21
   7  -1   7 1121.98 130.173  19
   7  -1   7 1309.32 156.329  18
   7  -1   8 1626.31 127.271  18
  -7   0   5 182.576 27.5435  22
  -7   0   4 1305.04 109.226   4
  -7   0   4 1099.97 95.4289   7
   7   0  -3 3927.33 214.389  24
  -7   0   3 4681.19 237.292   4
  -7   0   3 3918.75 217.100   8
  -7   0   3 4245.26 217.245   7
   7   0  -2 438.907 90.8063  24
  -7   0   2 581.047 93.3108   4
  -7   0   2 442.360 80.1173   8
  -7   0   2 493.696 83.1798   7
   7   0  -2 463.570 75.9493   6
  -7   0   1 551.899 90.3806   4
  -7   0   1 494.666 91.1254   7
   7   0  -1 502.460 84.7090   6
   7   0   0 652.685 112.145  21
  -7   0   0 614.104 97.1471   4
   7   0   0 554.034 86.0674   6
   7   0   1 4469.74 321.238  21
  -7   0  -1 5050.65 253.108   4
   7   0   1 4837.43 245.457   6
   7   0   2 1617.65 205.434  21
   7   0   2 1607.33 141.497   6
   7   0   3 162.719 53.1108   6
   7   0   3 154.698 84.1686  19
   7   0   3 204.276 86.9374  18
   7   0   4 4564.28 352.225  19
   7   0   4 4685.91 376.962  18
   7   0   4 4575.07 234.113   6
   7   0   5 7457.77 458.134  21
   7   0   5 7521.20 458.708  19
   7   0   5 7950.06 482.208  18
   7   0   5 7671.55 301.395   6
   7   0   6 2023.88 220.032  21
   7   0   6 1957.86 232.421  19
   7   0   6 2138.66 241.286  18
   7   0   6 2023.88 146.942   6
   7   0   7 2009.42 172.273  21
   7   0   7 1970.78 218.388  19
   7   0   7 2180.44 225.674  18
   7   0   8-25.6076 44.4254  19
   7   0   8 72.9130 47.5778  18
  -7  -1   5 820.351 62.1159  22
  -7  -1   4 899.908 97.0057   4
  -7  -1   4 818.532 85.9450   7
   7   1  -3-28.0424 31.6418  24
  -7  -1   3-6.63131 39.1242   8
  -7  -1   3 22.7580 30.6540   4
  -7  -1   3 21.3081 35.5168   7
   7   1  -2 1903.61 178.260  24
  -7  -1   2 2060.86 172.804   4
  -7  -1   2 1864.07 162.579   8
  -7  -1   2 2009.11 165.476   7
   7   1  -1 815.920 135.305  24
  -7  -1   1 804.356 117.599   4
  -7  -1   1 792.443 109.274   7
  -7  -1   0 12947.7 445.298   4
   7   1   0 12701.6 477.708  21
  -7  -1   0 11414.7 406.316   7
  -7  -1  -1 4405.81 239.861   4
   7   1   1 3708.66 286.914  21
   7   1   2 6432.99 408.552  21
   7   1   2 6520.35 437.210  19
   7   1   3 21647.0 778.673  21
   7   1   3 20652.6 804.569  19
   7   1   3 20762.1 803.114  18
   7   1   4 3024.70 292.088  21
   7   1   4 2786.26 294.159  19
   7   1   4 2860.40 294.221  18
   7   1   5 5804.81 406.539  21
   7   1   5 5706.17 425.607  19
   7   1   5 5675.38 416.393  18
   7   1   6 12244.4 545.425  21
   7   1   6 11490.1 611.869  19
   7   1   6 12145.0 594.390  18
   7   1   7 385.640 82.5997  21
   7   1   7 209.346 94.9060  19
   7   1   7 424.227 114.173  18
   7   1   8 6783.95 411.923  19
   7   1   8 6515.21 353.330  18
   7   1   9 2341.76 197.294  19
   7   1   9 10.9392 13.2818  18
  -7  -2   5 65.7026 22.5905  22
  -7  -2   4 897.690 88.8892  22
  -7  -2   4 998.859 102.356   4
   7   2  -3 2504.33 173.007  24
  -7  -2   3 3008.27 201.006   4
  -7  -2   3 2852.04 178.536   7
   7   2  -2 193.825 61.6654  24
  -7  -2   2 205.764 66.0324   4
  -7  -2   2 168.127 62.3717   7
   7   2  -1 78.0315 44.4295  24
  -7  -2   1 55.7816 43.5462   4
  -7  -2   1 127.267 47.3524   7
   7   2   0 1987.97 199.830  24
  -7  -2   0 1731.01 169.004   4
  -7  -2   0 1767.89 152.318   7
   7   2   1 5325.70 327.807  24
  -7  -2  -1 5457.78 278.089   4
   7   2   1 5207.85 336.463  21
  -7  -2  -1 4962.83 237.844   7
   7   2   2 6664.15 361.279  24
   7   2   2 6650.69 400.096  21
   7   2   2 6742.31 465.388  19
   7   2   3 2938.80 278.396  21
   7   2   3 3055.95 318.510  19
   7   2   3 2271.97 619.002   1
   7   2   3 2953.77 295.984  18
   7   2   4 18722.5 564.927  24
   7   2   4 18349.1 710.118  21
   7   2   4 18210.4 791.847  19
   7   2   4 17948.5 739.150  18
   7   2   5 7663.86 449.633  21
   7   2   5 7694.85 517.859  19
   7   2   5 7326.01 463.036  18
   7   2   6 4840.22 337.025  21
   7   2   6 4006.68 287.380   9
   7   2   6 4847.24 409.537  19
   7   2   6 4541.64 355.359  18
   7   2   7 260.983 75.2532  21
   7   2   7 241.127 107.145  19
   7   2   7 284.362 93.2888  18
   7   2   8 1467.88 218.518  19
   7   2   8 1198.64 150.732  18
   7   2   9 30401.8 842.673  19
  -7  -3   5 919.118 60.4873  22
  -7  -3   4 54.8332 34.5433  22
  -7  -3   4 102.746 29.8333   4
   7   3  -3 27.0272 29.7918  24
  -7  -3   3 36.7995 33.0800   4
   7   3  -2 486.264 97.0967  24
  -7  -3   2 578.650 95.2683   4
  -7  -3   2 788.486 100.683   7
   7   3  -1 1426.17 161.839  24
  -7  -3   1 1317.72 132.608   7
   7   3   0 6264.28 384.183   5
   7   3   0 6934.43 385.683  24
  -7  -3   0 6806.58 291.245   7
   7   3   1 1625.55 198.171   5
   7   3   1 1555.02 184.015  24
  -7  -3  -1 1561.96 127.449   7
   7   3   2 651.991 140.591   5
   7   3   2 710.128 124.634  24
   7   3   2 793.730 145.996  21
   7   3   3 5750.98 319.757  24
   7   3   3 5544.95 356.483   5
   7   3   3 5651.71 385.248  21
   7   3   3 5929.23 460.898  19
   7   3   4 337.753 69.4432  24
   7   3   4 316.976 101.895  21
   7   3   4 385.288 119.892  19
   7   3   5 681.060 137.391  21
   7   3   5 783.299 174.758  19
   7   3   5 653.329 131.393  18
   7   3   6 7715.26 429.474  21
   7   3   6 7283.17 415.139   9
   7   3   6 7842.66 530.793  19
   7   3   6 7095.34 427.018  18
   7   3   7 876.192 141.528  11
   7   3   7 772.558 132.960   9
   7   3   7 910.984 179.730  19
   7   3   8 18255.7 548.897   9
   7   3   8 20409.2 802.091  19
   7   3   9 4571.96 334.075  19
   7   3  10 197.953 58.9182  19
  -7  -4   4 373.796 52.9509  22
   7   4  -3 704.807 85.7578  24
  -7  -4   3 799.912 99.4307   4
  -7  -4   3 792.877 93.0430  22
   7   4  -2 1058.96 126.637  24
  -7  -4   2 1054.19 117.775  22
   7   4  -1 3728.06 257.422  24
   7   4   0 444.525 100.988  24
   7   4   1 2322.79 258.532   5
   7   4   1 2567.01 228.126  24
   7   4   2 223.377 85.0842  11
   7   4   2 174.023 79.5415   5
   7   4   2 125.411 51.5450  24
   7   4   3 14705.3 639.069   5
   7   4   3 15299.0 521.940  24
   7   4   3 14439.9 755.098  19
   7   4   4 5096.54 275.191  24
   7   4   4 4378.05 349.870   5
   7   4   4 4760.89 429.219  19
   7   4   5 752.634 180.109  19
   7   4   6 6145.34 411.735  11
   7   4   6 6086.00 395.339   9
   7   4   6 6403.17 489.346  19
   7   4   7 3162.40 269.867  11
   7   4   7 2995.46 268.853   9
   7   4   7 2683.07 307.265  19
   7   4   8 77.6377 31.4891  11
   7   4   8 67.3327 37.6509   9
   7   4   8-20.3178 50.7731  19
   7   4   9 6698.52 305.916   9
   7   4   9 7048.34 412.529  19
   7   4  10 424.556 73.3855  19
   7   5  -3 18.5704 29.6974  24
  -7  -5   3 45.7597 30.9166  22
   7   5  -2 75.5526 42.1415  24
  -7  -5   2-1.72457 28.1667  22
   7   5  -1 32.0732 34.9592  24
  -7  -5   1-8.37163 27.4589  22
   7   5   0 1144.93 152.792  24
  -7  -5   0 1215.47 120.847  22
   7   5   1 540.149 150.464   5
   7   5   1 591.069 105.712  24
  -7  -5  -1 454.815 71.5972  22
   7   5   2 11634.5 527.536  11
   7   5   2 11550.0 604.909   5
   7   5   2 11355.2 462.343  24
   7   5   3 13409.7 593.689  11
   7   5   3 12906.6 630.855   5
   7   5   3 13207.6 476.608  24
   7   5   4 609.173 131.706  11
   7   5   4 673.269 103.520  24
   7   5   4 518.473 126.562   5
   7   5   4 501.897 132.173  19
   7   5   5 70.1171 68.5094  11
   7   5   5-111.465 70.6526  19
   7   5   5-3.33497 35.3847  17
   7   5   6 1236.94 184.189  11
   7   5   6 1111.91 186.397   9
   7   5   6 1282.99 222.569  19
   7   5   6 1262.67 132.664  17
   7   5   7 8121.26 434.228  11
   7   5   7 7188.49 423.434   9
   7   5   7 7152.14 493.878  19
   7   5   8 5572.27 336.688   9
   7   5   8 5369.68 388.995  19
   7   5   9 5597.06 297.958   9
   7   5   9 5567.67 333.018  19
   7   5  10 40.5454 24.6101   9
   7   6  -3 20.4878 16.6918  24
   7   6  -2 169.272 52.0655  24
  -7  -6   2 216.506 54.5496  22
   7   6  -1 474.801 89.9727  24
  -7  -6   1 395.103 64.4379  22
   7   6   0 116.487 78.8158   5
   7   6   0 47.9236 51.3741  24
  -7  -6   0 55.7037 35.9670  22
   7   6   1 11271.4 616.358   5
   7   6   1 12095.5 468.944  24
   7   6   2 3832.85 362.223   5
   7   6   2 3986.50 259.201  24
   7   6   3 1341.01 187.092  11
   7   6   3 1196.12 133.893  24
   7   6   3 1096.67 188.124   5
   7   6   4 6612.31 422.753  11
   7   6   4 6525.07 295.479  24
   7   6   4 6054.58 442.464   5
   7   6   5 1236.44 189.004  11
   7   6   6 3373.67 300.554  11
   7   6   6 2754.33 274.679   9
   7   6   6 2836.03 315.323  19
   7   6   6 3377.71 224.555  17
   7   6   7 3417.82 290.660   9
   7   6   7 3169.51 310.756  19
   7   6   7 3933.07 234.308  17
   7   6   8 537.419 105.185   9
   7   6   9 23035.3 589.573   9
   7   6   9-26.2403 23.1470  16
   7   6  10 700.180 76.4523   9
   7   7  -2 531.761 61.0101  24
  -7  -7   2 379.464 59.1254  20
   7   7  -1 396.840 113.113   5
   7   7  -1 360.608 71.4053  24
   7   7   0 3608.51 316.054   5
   7   7   0 4384.93 247.188  24
   7   7   1 120.133 81.4173   5
   7   7   1 46.9798 40.5552  24
   7   7   2 2342.06 265.805   5
   7   7   2 2337.00 189.376  24
   7   7   3 4600.12 256.743  24
   7   7   3 4835.19 390.958   5
   7   7   4 1658.00 139.840  24
   7   7   4 1579.46 214.834   5
   7   7   5-7.56320 43.8262   9
   7   7   5-15.2373 38.5202  17
   7   7   6 1058.84 164.482   9
   7   7   6 1212.97 137.684  17
   7   7   7 5088.82 330.196   9
   7   7   7 5892.95 284.379  17
   7   7   8 3039.15 189.241  10
   7   7   8 3890.13 269.964   9
   7   7   9 117.090 51.9888   9
   7   7  10 1187.03 89.1708   9
   7   8  -1 424.878 58.3520  24
   7   8   0 477.223 75.6604  24
   7   8   0 319.245 89.0440   5
   7   8   1 899.722 109.504  24
   7   8   1 841.258 143.408   5
   7   8   2 233.548 57.1733  24
   7   8   2 251.395 98.8308   5
   7   8   3 102.398 38.9791  24
   7   8   3 16.8739 59.0576   5
   7   8   4 1309.31 113.622  24
   7   8   4 1182.14 177.299   5
   7   8   5 780.725 122.015   9
   7   8   5 1120.43 131.407  17
   7   8   6 48.4411 47.9252   9
   7   8   6-47.7210 45.6091  17
   7   8   7-27.5239 53.7323   9
   7   8   7 98.3871 57.3257  17
   7   8   8 100.683 42.5947  10
   7   8   8 113.655 44.2794   9
   7   8   9 19415.6 412.091   9
   7   9   0 546.738 54.4264  24
   7   9   1 69.4232 27.9035  24
   7   9   2 308.811 57.3691  24
   7   9   2 165.831 55.0223   5
   7   9   3 1360.01 106.672  24
   7   9   3 1089.44 138.088   5
   7   9   4 606.190 93.2507  17
   7   9   5 1217.82 120.299  17
   7   9   6 314.251 68.8985  17
   7   9   8 176.701 39.0493  10
   7  10   3 77.8191 24.7115  17
   7  10   4 274.773 45.6728  17
   7  10   5 1210.71 89.8163  17
   7  10   6 1554.78 107.976  10
   8  -3   0 1936.93 104.216  24
   8  -3   1 20.6267 18.7071  24
   8  -3   2 476.058 52.4604  24
  -8   2   2 5422.90 157.781   7
   8  -2  -1 3018.33 157.235  24
  -8   2   1 2751.71 125.751   7
   8  -2   0-11.6255 31.5347  24
  -8   2   0 29.6712 25.7094   7
   8  -2   1 1931.87 129.313  21
  -8   2  -1 1882.56 102.515   7
   8  -2   2 42.9961 43.4014  21
   8  -2   3 29.2221 32.4896  21
   8  -2   4 260.823 68.1246  21
   8  -2   5 3.82198 25.5521  21
  -8   1   3 256.979 36.0694   7
   8  -1  -2 1225.51 94.8300  24
  -8   1   2 1335.83 95.5114   7
   8  -1  -1 309.031 65.3280  24
  -8   1   1 262.378 51.8353   7
   8  -1   0 3540.39 224.867  24
  -8   1   0 3222.73 170.177   7
   8  -1   1 94.6438 46.5620  21
  -8   1  -1 63.3024 37.1883   7
   8  -1   2 1867.11 179.152  21
   8  -1   2 1779.10 129.005   6
   8  -1   3 1332.38 165.677  21
   8  -1   4 62.6002 60.9126  21
   8  -1   5 2463.55 200.242  21
   8  -1   6 168.463 49.0821  21
  -8   0   3 127.562 31.0947   7
   8   0  -2 527.683 76.4529  24
  -8   0   2 644.000 79.6051   4
  -8   0   2 589.812 72.3948   7
   8   0  -1 360.592 79.9196  24
  -8   0   1 341.235 61.8574   4
  -8   0   1 305.095 59.3549   7
   8   0   0 82.8995 56.9682  24
  -8   0   0 97.4433 46.6690   7
   8   0   1 4548.48 275.223  21
  -8   0  -1 4357.55 203.051   7
   8   0   2 2255.47 214.719  21
   8   0   3 827.803 144.325  21
   8   0   4 72.1239 64.2443  21
   8   0   5 3205.23 263.003  21
   8   0   5 3155.36 244.567  19
   8   0   5 3109.49 276.099  18
   8   0   6 18934.7 561.898  21
   8   0   6 16782.5 551.374  19
   8   0   6 17935.2 617.234  18
   8   0   7 415.992 79.9149  19
   8   0   7 454.337 86.0306  18
  -8  -1   4 615.630 46.7862  22
  -8  -1   3 614.472 72.0186   4
   8   1  -2 1446.66 127.350  24
  -8  -1   2 1611.83 129.003   4
  -8  -1   2 1442.82 117.117   7
   8   1  -1 2236.05 187.025  24
  -8  -1   1 2120.25 158.310   4
  -8  -1   1 2210.15 151.650   7
   8   1   0 8590.42 395.862  24
  -8  -1   0 8756.89 326.418   4
  -8  -1   0 8476.20 307.784   7
   8   1   1 114.281 62.1196  24
   8   1   1 161.531 61.8001  21
  -8  -1  -1 244.627 59.5718   4
  -8  -1  -1 149.344 43.7757   7
   8   1   2 6279.04 350.080  24
   8   1   2 6179.99 380.021  21
   8   1   3 3346.19 253.567  24
   8   1   3 3098.04 274.417  21
   8   1   4 5731.13 302.775  24
   8   1   4 5664.69 381.376  21
   8   1   4 5301.05 389.572  19
   8   1   5 7046.95 406.804  21
   8   1   5 6347.19 426.166  19
   8   1   5 6017.08 408.444  18
   8   1   6 2525.32 218.394  21
   8   1   6 2368.95 252.834  19
   8   1   6 2591.83 247.470  18
   8   1   7 3594.86 218.673  21
   8   1   7 3590.77 282.359  19
   8   1   7 3620.40 262.035  18
   8   1   8 7312.23 334.284  19
  -8  -2   4 17.9197 12.2978  22
  -8  -2   3 197.561 42.0459   4
   8   2  -2 643.273 88.0002  24
  -8  -2   2 796.746 96.1722   4
  -8  -2   2 696.889 87.8241   7
   8   2  -1 432.445 87.7891  24
  -8  -2   1 443.375 79.5191   4
  -8  -2   1 522.079 75.5402   7
   8   2   0 481.516 104.631  24
  -8  -2   0 317.295 68.8023   4
  -8  -2   0 394.047 70.6269   7
   8   2   1 1328.63 165.850  24
  -8  -2  -1 1688.49 146.167   4
  -8  -2  -1 1539.71 124.152   7
   8   2   2 6107.70 353.241  24
   8   2   2 6177.07 383.132  21
   8   2   3 1759.59 186.279  24
   8   2   3 1507.38 200.567  21
   8   2   3 1389.49 218.932  19
   8   2   4 6303.78 323.289  24
   8   2   4 5955.41 400.447  21
   8   2   4 5763.50 445.763  19
   8   2   5 7215.88 427.933  21
   8   2   5 6872.36 485.905  19
   8   2   6 244.409 86.4428  21
   8   2   6 285.557 111.658  19
   8   2   6 176.621 84.5204  18
   8   2   7 1132.48 154.426  11
   8   2   7 1234.51 197.888  19
   8   2   7 1021.74 151.809  18
   8   2   8 1822.08 207.188  19
   8   2   9 7516.94 318.679  19
  -8  -3   4 218.875 28.6018  22
  -8  -3   3 701.757 69.2981  22
  -8  -3   3 753.951 79.8918   4
   8   3  -2 518.317 79.0096  24
  -8  -3   2 611.773 84.4281   4
   8   3  -1 2973.66 218.156  24
  -8  -3   1 3021.60 203.202   4
   8   3   0 1427.73 165.638  24
  -8  -3   0 1501.99 146.197   4
  -8  -3   0 1439.47 124.745   7
   8   3   1 7.24967 39.5909  11
   8   3   1 124.945 65.4282  24
  -8  -3  -1 77.5737 52.7397   4
   8   3   2 3092.53 249.628  24
   8   3   3 1504.79 170.621  24
   8   3   4 9576.18 399.904  24
   8   3   4 8755.77 494.110  21
   8   3   4 8697.06 582.405  19
   8   3   5 8389.32 469.199  21
   8   3   5 7725.95 537.480  19
   8   3   6 977.929 156.926   9
   8   3   6 1269.04 229.611  19
   8   3   7 5562.40 337.619  11
   8   3   7 4946.64 281.562   9
   8   3   7 6068.43 445.469  19
   8   3   8 2496.79 169.648  11
   8   3   8 2926.61 281.991  19
   8   3   9 12.1350 36.1578  19
  -8  -4   3 4189.83 155.811  22
   8   4  -2 6987.75 263.702  24
  -8  -4   2 7605.43 252.750  22
   8   4  -1 544.632 93.4886  24
  -8  -4   1 508.992 74.0498  22
  -8  -4   1 573.240 90.8846   4
   8   4   0-69.9947 49.6269  24
  -8  -4   0 27.2621 30.8692   4
   8   4   1 2127.25 220.959   5
   8   4   1 2734.99 228.711  24
  -8  -4  -1 2718.48 198.123   4
   8   4   2 1188.86 179.975  11
   8   4   2 1431.95 165.937  24
   8   4   2 1425.73 180.304   5
   8   4   3 3534.98 313.359  11
   8   4   3 4027.97 270.743  24
   8   4   3 3557.94 294.541   5
   8   4   4 114.462 89.7563  11
   8   4   4 62.1665 40.5964  24
   8   4   4-57.2063 118.151  19
   8   4   5 3969.04 345.541  11
   8   4   5 4399.29 409.976  19
   8   4   6 11740.9 566.044  11
   8   4   6 10545.6 516.774   9
   8   4   6 12635.0 681.479  19
   8   4   7 145.932 68.6360  11
   8   4   7 103.973 66.7171   9
   8   4   7 32.1661 75.9222  19
   8   4   8 90.5994 48.9863  11
   8   4   8 159.849 58.9044   9
   8   4   8 166.384 82.8090  19
   8   4   9 4358.77 283.235  19
   8   5  -2 1881.67 122.197  24
  -8  -5   2 2368.49 144.855   4
  -8  -5   2 1996.77 118.599  22
   8   5  -1 192.349 75.5347   5
   8   5  -1 212.288 66.7105  24
  -8  -5   1 196.817 44.7257  22
   8   5   0 661.406 132.487   5
   8   5   0 807.368 117.048  24
  -8  -5   0 693.659 79.6562  22
   8   5   1 19.0526 37.2055  24
   8   5   1 7.13757 52.7797   5
  -8  -5  -1 27.4382 33.5461  22
   8   5   2 413.447 94.4165  11
   8   5   2 466.177 96.7561  24
   8   5   2 500.764 123.990   5
   8   5   3 15.4297 66.7816  11
   8   5   3 18.1927 35.6810  24
   8   5   3 107.879 76.2585   5
   8   5   4 6790.99 432.628  11
   8   5   4 7001.24 315.796  24
   8   5   5 2374.56 259.617  11
   8   5   6 2806.79 272.609  11
   8   5   6 2308.85 252.446   9
   8   5   6 2539.55 306.694  19
   8   5   7 7070.25 382.345  11
   8   5   7 5918.76 356.975   9
   8   5   7 5959.22 436.147  19
   8   5   8 942.218 134.344   9
   8   5   8 962.444 162.743  19
   8   5   9 1175.69 108.125   9
   8   5   9 1120.41 130.609  19
   8   6  -2 1751.02 95.3751  24
   8   6  -1 429.608 68.7070  24
   8   6  -1 365.549 88.0502   5
  -8  -6   1 411.814 52.4599  22
   8   6   0 5.06298 39.7987  24
   8   6   0 50.9755 68.3533   5
  -8  -6   0 39.9266 29.8028  22
   8   6   1 388.924 84.0484  24
   8   6   1 331.954 104.889   5
   8   6   2 2049.07 180.801  24
   8   6   2 1930.34 234.323   5
   8   6   3 8602.96 441.333  11
   8   6   3 8466.71 352.041  24
   8   6   4-5.72294 54.1183  11
   8   6   4 40.3923 44.6979  24
   8   6   4-132.407 76.0666   5
   8   6   5 435.349 112.373  11
   8   6   5 497.704 86.8964  17
   8   6   6 7066.08 414.620  11
   8   6   6 6172.65 267.181  17
   8   6   7 87.1142 76.0743   9
   8   6   8-21.3121 51.5484   9
   8   6   9 1134.24 116.340   9
   8   7  -1 62.7598 25.4485  24
   8   7   0 1121.75 110.636  24
   8   7   0 847.114 130.845   5
   8   7   1 242.697 67.9166  24
   8   7   1 124.426 81.6545   5
   8   7   2 389.448 75.3240  24
   8   7   2 256.272 91.7699   5
   8   7   3 1097.07 118.277  24
   8   7   3 943.535 160.497   5
   8   7   4 7340.37 281.346  24
   8   7   4 6604.89 417.345   5
   8   7   5 56.4328 56.2136   9
   8   7   5 124.720 51.3838  17
   8   7   6 564.271 126.240   9
   8   7   6 781.398 102.411  17
   8   7   7 769.699 131.380   9
   8   7   7 930.129 101.350  17
   8   7   8 238.742 66.1992   9
   8   7   9 1911.46 134.225   9
   8   8   0 420.368 51.0618  24
   8   8   1 273.093 53.5678  24
   8   8   2 536.845 75.6414  24
   8   8   2 515.236 112.613   5
   8   8   3 353.563 62.5185  24
   8   8   3 233.464 74.7409   5
   8   8   4 1352.80 134.029   9
   8   8   5 96.9677 57.0076   9
   8   8   5 210.878 58.4530  17
   8   8   6 2531.28 195.427   9
   8   8   6 3728.82 198.123  17
   8   8   7 671.427 93.9560   9
   8   8   7 925.738 93.8236  17
   8   8   8-7.39447 28.6666   9
   8   9   2 268.702 37.7454  24
   8   9   3 792.240 62.4681  24
   8   9   3 908.811 88.5569  17
   8   9   4 10544.3 306.209  17
   8   9   5 3300.82 168.300  17
   8   9   6 549.650 68.4786  17
   8   9   7 155.377 39.9287  10
   9  -1   0 407.767 48.2215  24
   9  -1   1 34.5686 24.8400  24
   9  -1   2 821.839 76.9444  24
   9   0  -1 27.5843 18.8686  24
   9   0   0 137.217 47.4206  24
  -9   0   0 65.3614 24.2711   7
   9   0   1 1518.76 127.432  24
   9   0   2 6558.45 269.036  24
   9   0   3 3240.52 179.269  24
   9   0   4-59.0751 20.9426  24
   9   0   4 41.8963 40.0500  21
   9   1  -1 29.8684 30.3301  24
   9   1   0 163.414 48.6726  24
  -9  -1   0 212.144 39.5494   7
   9   1   1 784.447 106.353  24
   9   1   2 925.977 110.893  24
   9   1   3 72.6142 48.0447  24
   9   1   4 9121.85 302.673  24
   9   1   4 9068.29 398.580  21
   9   1   6 62.7194 44.9643  11
  -9  -2   2 472.744 45.1663  22
   9   2  -1 966.060 90.7936  24
   9   2   0 1127.02 118.923  24
   9   2   1 241.475 63.8010  24
   9   2   2 7945.98 348.212  24
   9   2   3 355.145 80.0736  24
   9   2   4 1523.49 135.897  24
   9   2   6 19.7385 46.3704  11
   9   2   6-34.1070 58.0058  19
   9   2   7 628.719 81.9074  11
   9   2   7 922.947 121.963  19
  -9  -3   2 22.3991 13.0533  22
   9   3  -1 204.990 43.0314  24
  -9  -3   1 161.030 33.3205  22
   9   3   0 41.1525 34.7400  24
  -9  -3   0 45.8966 29.4854   4
   9   3   1 1718.35 159.889  24
   9   3   2 241.030 76.6522  11
   9   3   2 232.826 65.2996  24
   9   3   3 794.009 139.179  11
   9   3   3 1002.33 121.912  24
   9   3   4 12579.9 397.367  24
   9   3   5 2415.44 242.991  11
   9   3   5 1821.87 185.323   9
   9   3   6 831.244 137.369  11
   9   3   6 507.763 87.2787   9
   9   3   6 763.454 137.350  19
   9   3   7 156.827 56.2364  11
   9   3   7 69.8879 55.7743  19
   9   4  -1 1152.62 93.4308  24
  -9  -4   1 1114.97 75.9791  22
   9   4   0 71.1462 45.3050  24
  -9  -4   0 69.2572 29.3347  22
  -9  -4   0 85.2544 32.8144   4
   9   4   1 171.396 67.0801  24
  -9  -4  -1 150.793 37.7800  22
   9   4   2 715.091 108.707  11
   9   4   2 828.394 113.317  24
   9   4   3 1708.28 189.701  11
   9   4   3 1796.75 158.514  24
   9   4   4 435.110 100.212  11
   9   4   4 548.268 82.9287  24
   9   4   5 3692.43 298.375  11
   9   4   6 30.8652 49.1728  11
   9   4   6 9.65679 36.6327   9
   9   4   7 7380.23 337.807  11
   9   4   7 5302.04 251.485   9
   9   5  -1 407.639 51.3247  24
  -9  -5   1 369.333 38.8937  22
   9   5   0 82.5485 41.3494  24
  -9  -5   0 49.4099 24.3644  22
   9   5   1 539.817 80.5786  24
   9   5   2 4267.11 243.921  24
   9   5   3-30.8535 57.5982  11
   9   5   3-23.4168 28.3031  24
   9   5   4 1664.31 186.941  11
   9   5   4 1638.05 132.379  24
   9   5   5 4221.53 305.502  11
   9   5   6 1100.46 148.308  11
   9   5   6 801.539 133.467   9
   9   5   7 194.664 73.2232  11
   9   5   7 195.614 63.0031   9
   9   5   8-13.3804 25.0075   9
   9   6   0 138.307 37.3192  24
   9   6   1 552.120 80.0483  24
   9   6   2 3241.18 192.225  24
   9   6   2 2364.36 202.041   5
   9   6   3 2489.67 164.333  24
   9   6   4 77.0868 29.5068  24
   9   6   5 2191.29 210.445  11
   9   6   5 1520.43 184.714   9
   9   6   6 423.803 101.042   9
   9   6   7 2178.70 179.205   9
   9   6   8 386.787 66.1845   9
   9   7   1 819.645 79.5425  24
   9   7   2 571.419 73.0499  24
   9   7   3 413.117 62.7192  24
   9   7   4 533.664 105.970   9
   9   7   4 737.304 81.5815  17
   9   7   5 1220.66 158.735   9
   9   7   5 249.555 56.0446  17
   9   7   6 1580.43 162.323   9
   9   7   7 168.155 56.1248   9
   9   7   8 1943.75 126.848   9
   9   8   2 516.484 50.2391  24
   9   8   2 467.974 53.3094  17
   9   8   3 623.781 54.0681  24
   9   8   3 598.627 63.8163  17
   9   8   4 15.5455 28.9034  17
   9   8   5 18.9898 28.5151   9
   9   8   5 40.7811 29.3484  17
   9   8   6 118.886 39.3057   9
  10   2   2 323.082 46.6900  24
  10   2   4 1882.67 131.384  11
  10   3   1 1732.70 102.198  24
  10   3   2 0.04075 19.8810  24
  10   3   3 302.394 55.0990  11
  10   3   3 368.177 50.8989  24
  10   3   4 2372.49 160.497  11
  10   3   5 183.952 55.3147  11
  10   4   1 269.408 42.9329  24
  10   4   2 16.2140 22.1449  24
  10   4   3 553.888 65.9417  11
  10   4   3 774.130 72.6998  24
  10   4   4 5111.37 237.053  11
  10   4   4 4103.43 210.708   9
  10   4   5 90.9704 43.1156  11
  10   4   5 109.152 33.6789   9
  10   4   6 783.047 88.1131  11
  10   5   2 134.526 31.9518  24
  10   5   3 21.9597 19.8446  24
  10   5   4 39.7440 37.9724   9
  10   5   5 1622.25 137.276   9
  10   5   6 1594.53 114.425   9
  10   6   3 72.6560 34.8721   9
  10   6   4 680.220 94.2622   9
  10   6   5 492.019 76.0035   9
  10   6   6 444.770 62.3937   9
   0   0   0    0.00    0.00   0
TITL Cu-CA-iz-116 in P-1
REM P-1 (#2 in standard setting)
CELL 1.54184   8.263548   8.747289   9.179120  70.3324  71.5699  67.3189
ZERR    3.00   0.001022   0.000836   0.000696   0.0080   0.0091   0.0103
LATT  1
SFAC C H N O
UNIT 33.00 30.00 3.00 3.00
TREF
HKLF 4
END
;
loop_
_symmetry_equiv_pos_as_xyz
'x, y, z'
'-x, -y, -z'
loop_
_atom_site_label
_atom_site_fract_x
_atom_site_fract_y
_atom_site_fract_z
_atom_site_U_iso_or_equiv
_atom_site_adp_type
_atom_site_calc_flag
_atom_site_refinement_flags
_atom_site_occupancy
_atom_site_type_symbol
Cu1 0.5 0 0.5 0.03247(19) Uani d S 1 Cu
Cl1 0.16567(10) 0.47097(9) 0.12145(8) 0.0433(2) Uani d . 1 Cl
Cl2 0.32633(9) 0.48967(8) 0.74431(8) 0.0400(2) Uani d . 1 Cl
O1 0.4449(2) 0.1887(2) 0.6020(2) 0.0329(4) Uani d . 1 O
O2 0.3797(3) 0.1841(2) 0.3424(2) 0.0344(4) Uani d . 1 O
O3 0.0184(3) 0.7562(2) 0.2784(2) 0.0386(4) Uani d . 1 O
O4 0.1037(3) 0.7716(2) 0.5292(3) 0.0429(5) Uani d . 1 O
O5 0.2204(3) -0.0502(3) 0.6560(2) 0.0380(4) Uani d D 1 O
C1 0.3464(3) 0.3312(3) 0.5310(3) 0.0280(5) Uani d . 1 C
C2 0.3091(3) 0.3275(3) 0.3801(3) 0.0297(5) Uani d . 1 C
C3 0.2044(3) 0.4728(3) 0.2957(3) 0.0309(5) Uani d . 1 C
C4 0.1221(3) 0.6266(3) 0.3450(3) 0.0300(5) Uani d . 1 C
C5 0.1670(3) 0.6337(3) 0.4943(3) 0.0307(5) Uani d . 1 C
C6 0.2785(3) 0.4809(3) 0.5775(3) 0.0306(5) Uani d . 1 C
H5A 0.194(5) -0.129(4) 0.629(5) 0.064(12) Uiso d D 1 H
H5B 0.123(4) 0.047(3) 0.651(4) 0.044(9) Uiso d D 1 H
N1 0.6329(3) 0.1044(3) 0.8469(3) 0.0398(5) Uani d . 1 N
H1 0.5709 0.1533 0.7747 0.048 Uiso calc R 1 H
N2 0.7261(4) 0.0518(3) 1.0559(3) 0.0427(5) Uani d . 1 N
H2 0.7349 0.0605 1.1435 0.051 Uiso calc R 1 H
C7 0.6062(4) 0.1592(4) 0.9720(4) 0.0435(6) Uani d . 1 C
H7 0.5177 0.2572 0.997 0.052 Uiso calc R 1 H
C8 0.8341(4) -0.0755(4) 0.9817(4) 0.0437(6) Uani d . 1 C
H8 0.93 -0.1672 1.0154 0.052 Uiso calc R 1 H
C9 0.7748(4) -0.0425(4) 0.8499(4) 0.0417(6) Uani d . 1 C
H9 0.8216 -0.1074 0.7753 0.05 Uiso calc R 1 H
loop_
_atom_site_aniso_label
_atom_site_aniso_U_11
_atom_site_aniso_U_22
_atom_site_aniso_U_33
_atom_site_aniso_U_12
_atom_site_aniso_U_13
_atom_site_aniso_U_23
Cu1 0.0423(3) 0.0289(3) 0.0270(3) 0.0015(2) -0.0205(2) -0.0103(2)
Cl1 0.0567(4) 0.0427(4) 0.0311(4) 0.0025(3) -0.0275(3) -0.0140(3)
Cl2 0.0518(4) 0.0429(4) 0.0305(3) -0.0049(3) -0.0216(3) -0.0150(3)
O1 0.0409(9) 0.0308(8) 0.0277(9) -0.0008(7) -0.0190(7) -0.0094(7)
O2 0.0440(9) 0.0309(9) 0.0284(9) 0.0015(7) -0.0204(7) -0.0112(7)
O3 0.0468(10) 0.0309(9) 0.0382(10) 0.0015(8) -0.0244(8) -0.0101(8)
O4 0.0569(12) 0.0327(9) 0.0442(11) -0.0017(8) -0.0253(9) -0.0164(8)
O5 0.0402(10) 0.0392(10) 0.0393(10) -0.0028(8) -0.0183(8) -0.0173(8)
C1 0.0296(10) 0.0315(11) 0.0234(11) -0.0045(9) -0.0123(8) -0.0070(9)
C2 0.0327(11) 0.0332(12) 0.0257(11) -0.0063(9) -0.0115(9) -0.0100(9)
C3 0.0389(12) 0.0323(12) 0.0231(11) -0.0047(9) -0.0153(9) -0.0083(9)
C4 0.0337(11) 0.0317(11) 0.0265(11) -0.0074(9) -0.0134(9) -0.0063(9)
C5 0.0352(11) 0.0304(12) 0.0278(12) -0.0058(9) -0.0111(9) -0.0100(9)
C6 0.0366(11) 0.0351(12) 0.0223(11) -0.0071(9) -0.0122(9) -0.0089(9)
N1 0.0421(12) 0.0444(12) 0.0356(12) -0.0098(10) -0.0206(10) -0.0062(10)
N2 0.0518(13) 0.0549(14) 0.0275(11) -0.0161(11) -0.0180(10) -0.0096(10)
C7 0.0416(14) 0.0495(16) 0.0380(15) -0.0078(12) -0.0131(11) -0.0121(12)
C8 0.0467(15) 0.0452(15) 0.0426(16) -0.0100(12) -0.0243(12) -0.0065(12)
C9 0.0471(15) 0.0425(14) 0.0397(15) -0.0105(12) -0.0176(12) -0.0115(11)
loop_
_atom_type_symbol
_atom_type_description
_atom_type_scat_dispersion_real
_atom_type_scat_dispersion_imag
_atom_type_scat_source
C C 0.018 0.009 'International Tables Vol C Tables 4.2.6.8 and 6.1.1.4'
H H 0 0 'International Tables Vol C Tables 4.2.6.8 and 6.1.1.4'
N N 0.031 0.018 'International Tables Vol C Tables 4.2.6.8 and 6.1.1.4'
O O 0.049 0.032 'International Tables Vol C Tables 4.2.6.8 and 6.1.1.4'
Cl Cl 0.364 0.702 'International Tables Vol C Tables 4.2.6.8 and 6.1.1.4'
Cu Cu -1.965 0.589 'International Tables Vol C Tables 4.2.6.8 and 6.1.1.4'
loop_
_geom_angle_atom_site_label_1
_geom_angle_atom_site_label_2
_geom_angle_atom_site_label_3
_geom_angle
_geom_angle_site_symmetry_1
_geom_angle_site_symmetry_3
O2 Cu1 O2 180.00(9) 2_656 .
O2 Cu1 O1 96.78(7) 2_656 .
O2 Cu1 O1 83.22(7) . .
O2 Cu1 O1 83.22(7) 2_656 2_656
O2 Cu1 O1 96.78(7) . 2_656
O1 Cu1 O1 180.0000(10) . 2_656
O2 Cu1 O5 91.84(8) 2_656 2_656
O2 Cu1 O5 88.16(8) . 2_656
O1 Cu1 O5 90.49(7) . 2_656
O1 Cu1 O5 89.51(7) 2_656 2_656
O2 Cu1 O5 88.16(8) 2_656 .
O2 Cu1 O5 91.84(8) . .
O1 Cu1 O5 89.51(7) . .
O1 Cu1 O5 90.49(7) 2_656 .
O5 Cu1 O5 180 2_656 .
C1 O1 Cu1 112.08(15) . .
C2 O2 Cu1 113.51(15) . .
Cu1 O5 H5A 113(3) . .
Cu1 O5 H5B 113(2) . .
H5A O5 H5B 107(3) . .
O1 C1 C6 125.9(2) . .
O1 C1 C2 114.8(2) . .
C6 C1 C2 119.3(2) . .
O2 C2 C3 124.6(2) . .
O2 C2 C1 115.8(2) . .
C3 C2 C1 119.5(2) . .
C2 C3 C4 122.9(2) . .
C2 C3 Cl1 119.79(19) . .
C4 C3 Cl1 117.26(18) . .
O3 C4 C3 125.0(2) . .
O3 C4 C5 117.4(2) . .
C3 C4 C5 117.6(2) . .
O4 C5 C6 125.8(2) . .
O4 C5 C4 116.7(2) . .
C6 C5 C4 117.6(2) . .
C1 C6 C5 122.8(2) . .
C1 C6 Cl2 119.98(19) . .
C5 C6 Cl2 117.22(19) . .
C7 N1 C9 109.1(2) . .
C7 N1 H1 125.5 . .
C9 N1 H1 125.5 . .
C7 N2 C8 109.1(2) . .
C7 N2 H2 125.5 . .
C8 N2 H2 125.5 . .
N1 C7 N2 108.4(3) . .
N1 C7 H7 125.8 . .
N2 C7 H7 125.8 . .
C9 C8 N2 106.6(3) . .
C9 C8 H8 126.7 . .
N2 C8 H8 126.7 . .
C8 C9 N1 106.8(3) . .
C8 C9 H9 126.6 . .
N1 C9 H9 126.6 . .
loop_
_geom_bond_atom_site_label_1
_geom_bond_atom_site_label_2
_geom_bond_site_symmetry_2
_geom_bond_distance
Cu1 O2 2_656 1.9442(17)
Cu1 O2 . 1.9442(17)
Cu1 O1 . 1.9999(17)
Cu1 O1 2_656 1.9999(17)
Cu1 O5 2_656 2.418(2)
Cu1 O5 . 2.418(2)
Cl1 C3 . 1.733(2)
Cl2 C6 . 1.730(2)
O1 C1 . 1.283(3)
O2 C2 . 1.278(3)
O3 C4 . 1.228(3)
O4 C5 . 1.225(3)
O5 H5A . 0.924(19)
O5 H5B . 0.915(18)
C1 C6 . 1.367(3)
C1 C2 . 1.524(3)
C2 C3 . 1.371(4)
C3 C4 . 1.410(3)
C4 C5 . 1.554(3)
C5 C6 . 1.423(4)
N1 C7 . 1.314(4)
N1 C9 . 1.364(4)
N1 H1 . 0.86
N2 C7 . 1.317(4)
N2 C8 . 1.364(4)
N2 H2 . 0.86
C7 H7 . 0.93
C8 C9 . 1.348(4)
C8 H8 . 0.93
C9 H9 . 0.93
loop_
_geom_torsion_atom_site_label_1
_geom_torsion_atom_site_label_2
_geom_torsion_atom_site_label_3
_geom_torsion_atom_site_label_4
_geom_torsion
_geom_torsion_site_symmetry_1
O2 Cu1 O1 C1 -173.66(17) 2_656
O2 Cu1 O1 C1 6.34(17) .
O1 Cu1 O1 C1 -7E1(10) 2_656
O5 Cu1 O1 C1 94.43(18) 2_656
O5 Cu1 O1 C1 -85.57(18) .
O2 Cu1 O2 C2 15E1(10) 2_656
O1 Cu1 O2 C2 -6.37(18) .
O1 Cu1 O2 C2 173.63(18) 2_656
O5 Cu1 O2 C2 -97.09(18) 2_656
O5 Cu1 O2 C2 82.91(18) .
Cu1 O1 C1 C6 176.2(2) .
Cu1 O1 C1 C2 -5.2(3) .
Cu1 O2 C2 C3 -174.2(2) .
Cu1 O2 C2 C1 5.3(3) .
O1 C1 C2 O2 0.0(3) .
C6 C1 C2 O2 178.7(2) .
O1 C1 C2 C3 179.6(2) .
C6 C1 C2 C3 -1.7(4) .
O2 C2 C3 C4 177.0(2) .
C1 C2 C3 C4 -2.5(4) .
O2 C2 C3 Cl1 -1.9(4) .
C1 C2 C3 Cl1 178.50(18) .
C2 C3 C4 O3 -175.2(3) .
Cl1 C3 C4 O3 3.8(4) .
C2 C3 C4 C5 5.3(4) .
Cl1 C3 C4 C5 -175.67(18) .
O3 C4 C5 O4 -4.2(4) .
C3 C4 C5 O4 175.3(2) .
O3 C4 C5 C6 176.3(2) .
C3 C4 C5 C6 -4.2(4) .
O1 C1 C6 C5 -178.8(2) .
C2 C1 C6 C5 2.7(4) .
O1 C1 C6 Cl2 1.0(4) .
C2 C1 C6 Cl2 -177.58(18) .
O4 C5 C6 C1 -179.3(3) .
C4 C5 C6 C1 0.2(4) .
O4 C5 C6 Cl2 1.0(4) .
C4 C5 C6 Cl2 -179.55(17) .
C9 N1 C7 N2 -0.2(4) .
C8 N2 C7 N1 0.4(4) .
C7 N2 C8 C9 -0.5(4) .
N2 C8 C9 N1 0.3(4) .
C7 N1 C9 C8 0.0(4) .
