#------------------------------------------------------------------------------
#$Date: 2016-08-05 09:33:30 +0300 (Fri, 05 Aug 2016) $
#$Revision: 185013 $
#$URL: file:///home/coder/svn-repositories/cod/cif/7/22/61/7226139.cif $
#------------------------------------------------------------------------------
#
# This file is available in the Crystallography Open Database (COD),
# http://www.crystallography.net/
#
# All data on this site have been placed in the public domain by the
# contributors.
#
data_7226139
loop_
_publ_author_name
'Basireddy, Venkata Subba Reddy'
'Anjum, Rehana S.'
'Balasubramanian, Sridhar'
_publ_section_title
;
 A novel self-terminated Prins strategy for the synthesis of
 tetrahydropyran-4-one derivatives and their behavior in Fisher indole
 synthesis
;
_journal_name_full               'RSC Adv.'
_journal_paper_doi               10.1039/C6RA11218H
_journal_year                    2016
_chemical_formula_moiety         'C17 H17 Cl N2 O'
_chemical_formula_sum            'C17 H17 Cl N2 O'
_chemical_formula_weight         300.77
_space_group_crystal_system      triclinic
_space_group_IT_number           2
_space_group_name_Hall           '-P 1'
_space_group_name_H-M_alt        'P -1'
_symmetry_space_group_name_Hall  '-P 1'
_symmetry_space_group_name_H-M   'P -1'
_atom_sites_solution_hydrogens   geom
_audit_creation_method           SHELXL-2014/7
_audit_update_record
;
2015-12-03 deposited with the CCDC.
2016-08-01 downloaded from the CCDC.
;
_cell_angle_alpha                78.658(8)
_cell_angle_beta                 86.196(8)
_cell_angle_gamma                79.757(8)
_cell_formula_units_Z            2
_cell_length_a                   5.479(3)
_cell_length_b                   7.926(4)
_cell_length_c                   18.296(9)
_cell_measurement_reflns_used    837
_cell_measurement_temperature    294(2)
_cell_measurement_theta_max      19.51
_cell_measurement_theta_min      2.27
_cell_volume                     766.2(7)
_computing_cell_refinement       'SAINT (Bruker, 2001)'
_computing_data_collection       'SMART (Bruker, 2001)'
_computing_data_reduction        'SAINT (Bruker, 2001)'
_computing_molecular_graphics    'SHELXL2014 (Sheldrick, 2015)'
_computing_publication_material  'SHELXL2014 (Sheldrick, 2015)'
_computing_structure_refinement  'SHELXL-2014/7 (Sheldrick, 2015)'
_computing_structure_solution    'SHELXL-2014/7 (Sheldrick, 2015)'
_diffrn_ambient_temperature      294(2)
_diffrn_measured_fraction_theta_full 0.997
_diffrn_measured_fraction_theta_max 0.997
_diffrn_measurement_device_type  'Bruker SMART APEX CCD area-detector'
_diffrn_measurement_method       \w
_diffrn_radiation_type           MoK\a
_diffrn_radiation_wavelength     0.71073
_diffrn_reflns_av_R_equivalents  0.0775
_diffrn_reflns_av_unetI/netI     0.1016
_diffrn_reflns_Laue_measured_fraction_full 0.997
_diffrn_reflns_Laue_measured_fraction_max 0.997
_diffrn_reflns_limit_h_max       6
_diffrn_reflns_limit_h_min       -6
_diffrn_reflns_limit_k_max       9
_diffrn_reflns_limit_k_min       -9
_diffrn_reflns_limit_l_max       21
_diffrn_reflns_limit_l_min       -21
_diffrn_reflns_number            6693
_diffrn_reflns_point_group_measured_fraction_full 0.997
_diffrn_reflns_point_group_measured_fraction_max 0.997
_diffrn_reflns_theta_full        24.400
_diffrn_reflns_theta_max         24.400
_diffrn_reflns_theta_min         2.272
_exptl_absorpt_coefficient_mu    0.249
_exptl_absorpt_correction_T_max  0.98
_exptl_absorpt_correction_T_min  0.92
_exptl_absorpt_correction_type   multi-scan
_exptl_absorpt_process_details   'SADABS; Bruker,2001'
_exptl_crystal_colour            colorless
_exptl_crystal_density_diffrn    1.304
_exptl_crystal_description       needle
_exptl_crystal_F_000             316
_exptl_crystal_size_max          0.120
_exptl_crystal_size_mid          0.070
_exptl_crystal_size_min          0.050
_refine_diff_density_max         0.195
_refine_diff_density_min         -0.186
_refine_diff_density_rms         0.045
_refine_ls_extinction_method     none
_refine_ls_goodness_of_fit_ref   1.091
_refine_ls_hydrogen_treatment    constr
_refine_ls_matrix_type           full
_refine_ls_number_parameters     191
_refine_ls_number_reflns         2532
_refine_ls_number_restraints     0
_refine_ls_restrained_S_all      1.091
_refine_ls_R_factor_all          0.1735
_refine_ls_R_factor_gt           0.0879
_refine_ls_shift/su_max          0.000
_refine_ls_shift/su_mean         0.000
_refine_ls_structure_factor_coef Fsqd
_refine_ls_weighting_details
'w=1/[\s^2^(Fo^2^)+(0.0655P)^2^] where P=(Fo^2^+2Fc^2^)/3'
_refine_ls_weighting_scheme      calc
_refine_ls_wR_factor_gt          0.1520
_refine_ls_wR_factor_ref         0.1815
_reflns_Friedel_coverage         0.000
_reflns_number_gt                1313
_reflns_number_total             2532
_reflns_threshold_expression     'I > 2\s(I)'
_cod_data_source_file            c6ra11218h2.cif
_cod_data_source_block           AX87m
_cod_original_cell_volume        766.2(6)
_cod_database_code               7226139
_shelx_shelxl_version_number     2014/7
_shelx_space_group_comment
;
The symmetry employed for this shelxl refinement is uniquely defined
by the following loop, which should always be used as a source of
symmetry information in preference to the above space-group names.
They are only intended as comments.
;
_shelx_estimated_absorpt_t_min   0.971
_shelx_estimated_absorpt_t_max   0.988
_shelx_res_file
;

    AX87m.res created by SHELXL-2014/7

TITL AX87m in P-1
CELL 0.71073   5.4789   7.9263  18.2960  78.658  86.196  79.757
ZERR    2.00   0.0026   0.0038   0.0087   0.008   0.008   0.008
LATT 1
SFAC C  H  N  O  Cl
UNIT 34 34 4 2 2
OMIT 0 0 1
L.S. 25
ACTA
BOND  $H
FMAP 2
PLAN 5
HTAB O1 N2_$1
SHEL 50 0.86
SIZE 0.12 0.07 0.05
EQIV $1  -x+1, -y+2, -z+1
CONF
TEMP 21
WGHT    0.065500
FVAR       0.97736
MOLE 1
C1    1    0.463079    0.922489    0.758934    11.00000    0.03837    0.04840 =
         0.05973   -0.01591   -0.00061   -0.01117
AFIX  13
H1    2    0.336271    1.027875    0.753431    11.00000   -1.20000
AFIX   0
C2    1    0.380159    0.787331    0.720615    11.00000    0.05118    0.04598 =
         0.06576   -0.01586   -0.00846   -0.01464
AFIX  23
H2A   2    0.405316    0.672306    0.752071    11.00000   -1.20000
H2B   2    0.206804    0.820167    0.707974    11.00000   -1.20000
AFIX   0
C3    1    0.544603    0.792038    0.652361    11.00000    0.04796    0.04241 =
         0.06904   -0.01984   -0.00875   -0.00527
C4    1    0.790047    1.111830    0.710186    11.00000    0.04590    0.03616 =
         0.05284   -0.00769   -0.01428   -0.00653
C5    1    0.950919    1.167273    0.651574    11.00000    0.06671    0.05143 =
         0.04969    0.00046   -0.00767   -0.01592
AFIX  43
H5    2    0.983403    1.108510    0.611797    11.00000   -1.20000
AFIX   0
C6    1    1.061539    1.310041    0.653066    11.00000    0.08272    0.05627 =
         0.07987    0.00377   -0.00302   -0.03314
AFIX  43
H6    2    1.167151    1.347079    0.613560    11.00000   -1.20000
AFIX   0
C7    1    1.020597    1.397614    0.710410    11.00000    0.08074    0.05250 =
         0.09579   -0.00393   -0.01620   -0.03050
AFIX  43
H7    2    1.100490    1.491400    0.711155    11.00000   -1.20000
AFIX   0
C8    1    0.859050    1.345310    0.767355    11.00000    0.08380    0.04806 =
         0.06972   -0.02059   -0.01350   -0.01207
AFIX  43
H8    2    0.827709    1.406019    0.806536    11.00000   -1.20000
AFIX   0
C9    1    0.741197    1.203919    0.767907    11.00000    0.06240    0.04346 =
         0.06808   -0.01432   -0.00600   -0.01728
AFIX  43
H9    2    0.630442    1.171332    0.806687    11.00000   -1.20000
AFIX   0
C10   1    0.515889    0.857209    0.840136    11.00000    0.04109    0.03410 =
         0.05796   -0.01735    0.00377   -0.01354
C11   1    0.737787    0.757413    0.862790    11.00000    0.04585    0.05362 =
         0.05974   -0.01399    0.01024    0.00046
AFIX  43
H11   2    0.861081    0.732538    0.827160    11.00000   -1.20000
AFIX   0
C12   1    0.783408    0.692329    0.937729    11.00000    0.05972    0.05630 =
         0.07153   -0.00878   -0.01114    0.00170
AFIX  43
H12   2    0.936111    0.626340    0.952444    11.00000   -1.20000
AFIX   0
C13   1    0.597769    0.727641    0.989666    11.00000    0.07283    0.04832 =
         0.05416   -0.01419    0.00851   -0.01149
C14   1    0.376262    0.828555    0.968675    11.00000    0.06285    0.08468 =
         0.06909   -0.03230    0.01895   -0.00520
AFIX  43
H14   2    0.253212    0.854208    1.004263    11.00000   -1.20000
AFIX   0
C15   1    0.337086    0.892275    0.893681    11.00000    0.04642    0.06418 =
         0.07372   -0.01916    0.00193   -0.00069
AFIX  43
H15   2    0.185661    0.960630    0.879199    11.00000   -1.20000
AFIX   0
C16   1    0.529518    0.690460    0.592255    11.00000    0.06142    0.06322 =
         0.09662   -0.02920   -0.00792   -0.01183
AFIX  23
H16A  2    0.668981    0.703491    0.557294    11.00000   -1.20000
H16B  2    0.542917    0.567665    0.614474    11.00000   -1.20000
AFIX   0
C17   1    0.293291    0.747680    0.550586    11.00000    0.09783    0.05134 =
         0.07584   -0.00303   -0.02011   -0.00996
AFIX  23
H17A  2    0.299324    0.684645    0.509935    11.00000   -1.20000
H17B  2    0.154275    0.720499    0.583781    11.00000   -1.20000
AFIX   0
N1    3    0.687043    0.960507    0.713223    11.00000    0.05600    0.04225 =
         0.05370   -0.01923    0.00394   -0.02009
N2    3    0.710373    0.889995    0.648257    11.00000    0.05422    0.05681 =
         0.06245   -0.02306    0.00081   -0.01425
O1    4    0.258842    0.926887    0.522176    11.00000    0.21017    0.09309 =
         0.07402   -0.01000   -0.01549   -0.02888
AFIX 147
H1O   2    0.286486    0.943389    0.476956    11.00000   -1.50000
AFIX   0
CL1   5    0.655166    0.648150    1.083452    11.00000    0.12787    0.08605 =
         0.05546   -0.01289   -0.00104    0.00251
hklf 4

REM  AX87m in P-1
REM R1 =  0.0879 for    1313 Fo > 4sig(Fo)  and  0.1735 for all    2532 data
REM    191 parameters refined using      0 restraints

END

WGHT      0.0655      0.0000

REM Highest difference peak  0.195,  deepest hole -0.186,  1-sigma level  0.045
Q1    1   0.2479  0.6647  0.5020  11.00000  0.05    0.19
Q2    1   0.8747  0.6674  1.0583  11.00000  0.05    0.19
Q3    1   0.6419  0.6609  1.0283  11.00000  0.05    0.18
Q4    1   0.7211  0.7872  0.5019  11.00000  0.05    0.18
Q5    1   0.3563  0.6084  0.5038  11.00000  0.05    0.17
;
_shelx_res_checksum              13604
_shelx_hkl_file
;
  -1   0   0 2981.64   26.18
   1   0   0 2887.84   22.64
  -1   0   0 2888.98   24.33
   1   0   0 2917.96   39.25
   2   0   0  448.97   21.92
  -2   0   0  433.60   10.66
   2   0   0  422.44   12.17
  -2   0   0  420.61   14.30
   3   0   0  238.26   11.70
   3   0   0  243.56   23.92
  -3   0   0  248.56   14.21
  -4   0   0   37.87    9.77
   4   0   0   41.93    8.59
   4   0   0  138.39   45.24
  -5   0   0    7.74    8.20
   5   0   0    7.89    6.95
   5   0   0   34.96   42.41
   6   0   0   -7.15   46.62
  -6   0   0    8.21    8.50
   6  -1   0  -12.09    9.46
  -6   1   0   18.05   10.41
   5  -1   0    2.57    7.74
   5  -1   0   -1.68   32.51
  -5   1   0    3.66    7.88
  -4   1   0   19.78    8.78
   4  -1   0   98.56   38.20
   4  -1   0   33.42    9.52
   3  -1   0   14.93    5.97
  -3   1   0   22.63    5.90
   3  -1   0   23.32   22.38
  -3   1   0    5.12    6.08
  -2   1   0  533.31   14.60
   2  -1   0  527.67   14.80
   2  -1   0  511.93   22.21
  -2   1   0  537.21   16.16
  -1   1   0  657.96   13.23
  -1   1   0  632.02   14.05
   1  -1   0  637.66   13.17
   0  -1   0 1606.02   17.12
   0   1   0 1580.35   14.97
   0   1   0 1627.98   18.47
   1   1   0  884.51   23.57
  -1  -1   0  848.70   14.52
   1   1   0  827.04   11.62
  -1  -1   0  833.33   11.42
  -2  -1   0   50.06    5.72
   2   1   0   67.77   24.53
  -2  -1   0   46.59    7.02
  -3  -1   0    2.49    5.15
   3   1   0  -10.95   25.92
  -3  -1   0    6.94    4.66
   4   1   0   64.33   34.97
  -4  -1   0   46.08   10.50
   4   1   0   32.94    7.86
   5   1   0   77.93   42.56
   5   1   0   88.03   12.29
  -5  -1   0   67.48   13.43
   6   1   0    9.87   46.87
  -6  -1   0   26.84    9.55
   7   1   0  -33.76   51.79
   6  -2   0   12.42   12.42
  -6   2   0    8.66   10.62
  -5   2   0    6.10    8.66
   5  -2   0    1.21   10.27
  -4   2   0    5.27    7.92
   4  -2   0   13.38    9.37
   3  -2   0   29.89    8.59
  -3   2   0   36.64    8.29
  -3   2   0   35.97    9.20
   2  -2   0  195.57   11.45
  -2   2   0  193.97   11.03
  -2   2   0  190.57   11.27
   1  -2   0  691.86   17.05
  -1   2   0  691.29   18.57
  -1   2   0  688.40   14.69
   0  -2   0 3941.01   38.58
   0   2   0 4037.28   40.73
  -1  -2   0 4042.71   32.08
   1   2   0 4038.88   37.57
   1   2   0 4039.86   56.37
  -1  -2   0 4056.81   37.29
   2   2   0  237.38   19.24
   2   2   0  225.00    8.59
  -2  -2   0  234.25   11.65
  -2  -2   0  231.52    8.85
  -3  -2   0   69.45    9.94
  -3  -2   0   76.45    7.80
   3   2   0  114.57   35.52
   4   2   0   -0.28   30.05
  -4  -2   0  -11.36    6.04
  -4  -2   0    3.73    5.96
   5   2   0    6.15    5.61
  -5  -2   0    6.19    8.73
   5   2   0    2.72   31.14
   6   2   0  109.32   48.88
  -6  -2   0   85.93   15.74
   7   2   0    1.37   53.32
   6  -3   0  -14.61   11.84
  -6   3   0    9.10   11.21
   5  -3   0   12.97   11.57
  -5   3   0   -4.08    9.43
  -4   3   0    3.12    8.49
  -4   3   0   29.84   10.77
   4  -3   0   10.68    9.82
   3  -3   0   -7.37    7.74
  -3   3   0   -1.47    7.58
  -3   3   0    6.25    7.76
  -2   3   0  133.19   10.51
   2  -3   0  120.91   12.78
  -2   3   0  129.62   11.01
  -1   3   0    0.15    5.84
  -1   3   0    3.31    4.86
   1  -3   0    4.77    7.02
   0  -3   0  185.15   13.72
   0   3   0  183.51   11.72
   0  -3   0  172.03    8.90
  -1  -3   0   94.59    8.00
   1   3   0   90.69   11.54
  -1  -3   0   85.24    8.09
   1   3   0   82.86    8.55
   2   3   0   22.87   20.32
  -2  -3   0   -0.33    4.90
   2   3   0    5.52    4.77
  -2  -3   0    9.02    4.20
   3   3   0   57.08   26.35
  -3  -3   0   46.53    6.87
  -3  -3   0   36.27    8.51
  -4  -3   0  236.55   13.24
  -4  -3   0  239.13   17.03
   5   3   0    9.33   31.99
  -5  -3   0    4.90    8.95
   6   3   0   38.20   41.49
  -6  -3   0   16.97    9.29
   6  -4   0    1.59   17.30
  -6   4   0   -0.97   13.26
  -5   4   0    0.71   10.50
   5  -4   0   -3.76   12.19
  -4   4   0   31.73   12.62
  -4   4   0   27.03   11.17
   4  -4   0    8.92   11.49
   3  -4   0    1.83   11.14
  -3   4   0   -1.94    7.79
  -3   4   0    1.51    8.80
  -2   4   0   88.85   11.86
   2  -4   0   78.47   13.76
  -2   4   0   95.48   14.17
  -1   4   0  154.62   12.90
  -1   4   0  155.31   11.04
   1  -4   0  176.68   17.50
   0   4   0  339.68   17.54
   0  -4   0  358.93   19.36
   0  -4   0  354.50   14.19
  -1  -4   0  417.49   16.11
   1   4   0  418.34   17.93
   1   4   0  395.05   21.89
  -1  -4   0  412.82   15.72
   2   4   0   21.69    7.58
  -2  -4   0   24.77    7.13
  -2  -4   0   24.54    6.33
   2   4   0   59.49   25.54
  -3  -4   0    5.45    4.97
   3   4   0   -2.04   23.30
  -3  -4   0    7.31    7.23
   3   4   0   10.15    6.59
   4   4   0   66.34   38.75
  -4  -4   0  103.70   14.50
  -4  -4   0   95.25   10.87
  -5  -4   0    8.96    9.15
   5   4   0   22.55   33.34
   6   4   0   35.62   41.60
  -6  -4   0   34.76   11.83
  -5   5   0    6.85   12.28
   5  -5   0   -9.93   13.54
   4  -5   0  -17.21   11.19
  -4   5   0   23.39   12.51
  -4   5   0    5.04   10.70
  -3   5   0   39.35   12.86
   3  -5   0    2.38   12.16
  -3   5   0   15.97   10.29
  -2   5   0   64.99   12.97
   2  -5   0   67.95   17.56
  -2   5   0   86.72   16.02
   1  -5   0   27.26   15.98
  -1   5   0    6.00    9.13
  -1   5   0   -1.94    7.45
   0  -5   0   72.15   15.84
   0  -5   0   83.52   10.85
   0   5   0   92.21   15.28
  -1  -5   0   12.82    8.57
  -1  -5   0    9.29    7.12
   1   5   0   21.78   10.02
   2   5   0    9.70   21.26
   2   5   0   -1.49    7.29
  -2  -5   0    4.20    6.59
  -2  -5   0   -3.92    6.12
   3   5   0   55.72   10.74
  -3  -5   0   43.80   10.00
  -3  -5   0   46.07    8.50
   3   5   0   59.91   29.98
   4   5   0   36.98   35.42
  -4  -5   0    5.18    5.67
  -4  -5   0   14.86    8.42
   5   5   0   19.71   37.87
  -5  -5   0   20.83   10.17
  -6  -5   0    0.78    9.47
   6   5   0   -5.59   36.84
  -4   6   0   23.22   14.07
   4  -6   0  -13.38   13.56
  -3   6   0    6.09   11.12
   3  -6   0   -7.29   14.25
  -2   6   0   10.03   11.20
  -2   6   0   -4.36    8.51
   2  -6   0   -5.02   15.59
  -1   6   0    4.79   10.76
   1  -6   0    4.24   18.46
   0   6   0    3.92    9.29
   0  -6   0   -6.17   13.72
   0  -6   0   -5.79    8.46
  -1  -6   0    4.12    9.23
  -1  -6   0   18.72    9.85
   1   6   0   14.42   10.48
   2   6   0   42.25   22.85
  -2  -6   0   47.53   10.53
  -2  -6   0   47.64   11.46
   2   6   0   65.88   12.94
  -3  -6   0   -2.74    6.59
  -3  -6   0   -1.93    5.65
   3   6   0   28.27   21.99
   3   6   0    1.39    8.31
   4   6   0   52.92   36.22
  -4  -6   0   28.05   10.35
   5   6   0   24.68   38.93
  -5  -6   0    2.29    8.30
  -6  -6   0    3.04    9.61
   6   6   0  -49.48   39.09
   4  -7   0  -26.35   18.07
  -4   7   0   55.52   17.16
  -3   7   0   20.49   14.82
   3  -7   0   17.65   19.72
  -2   7   0   17.59   12.79
   2  -7   0   -6.14   17.84
  -1   7   0   26.39   13.13
   1  -7   0   26.16   17.70
   0  -7   0   43.34   14.94
   0   7   0   29.47   13.65
  -1  -7   0    0.03    9.32
   1   7   0    9.80   10.20
  -1  -7   0    7.53    8.95
  -2  -7   0   36.45   10.04
  -2  -7   0   37.24    9.83
   2   7   0   53.13   12.99
   3   7   0   24.79   21.60
  -3  -7   0    2.54    7.02
  -3  -7   0    5.82    6.51
  -4  -7   0   19.40    9.95
  -5  -7   0   13.18    9.25
   5   7   0    7.02   29.37
  -6  -7   0    6.65   11.23
  -3   8   0   16.15   16.07
   3  -8   0   13.45   22.59
  -2   8   0   23.88   13.63
   2  -8   0   11.32   19.26
   1  -8   0    8.55   16.13
  -1   8   0   29.74   13.16
   0  -8   0    7.94   11.57
   0   8   0   12.96   11.44
  -1  -8   0   13.18    9.76
   1   8   0   41.83   14.52
   2   8   0    9.81   10.66
  -2  -8   0   16.17    8.20
   4   8   0   26.00   26.84
   5   8   0   -9.02   23.52
   1  -9   0   18.07   15.48
  -1   9   0   12.48   13.99
   0   9   0   53.16   18.10
   0  -9   0    7.40   11.31
  -1  -9   0   13.76    9.51
   1   9   0   41.23   15.67
  -2  -9   0   17.54    7.46
   2   9   0    1.08   11.27
   0 -10   0   44.82   15.52
  -1 -10   0   18.19   11.02
   1  10   0   -5.38   14.45
   2  10   0   17.80   13.52
   2  10  -1   -5.01   13.60
  -1 -10   1   21.63    9.34
   0 -10   1    9.36   12.33
   2   9  -1   19.82   13.93
  -1  -9   1   30.77   10.48
   1   9  -1   46.50   15.76
   0   9  -1   34.87   14.66
   0  -9   1    6.55   11.45
  -1   9  -1   20.80   15.77
   1  -9   1   34.67   17.93
   5   8  -1   -4.07   24.06
  -5  -8   1   18.68    9.94
   4   8  -1   -2.81   25.79
  -2  -8   1   13.88    8.20
   2   8  -1   34.63   12.13
  -1  -8   1    2.65    8.87
   1   8  -1   17.61   12.06
   0   8  -1   17.69   13.51
   0  -8   1   23.82   13.47
   1  -8   1   12.43   16.86
  -1   8  -1   29.35   13.82
   2  -8   1   11.44   20.61
  -2   8  -1   36.31   15.11
  -3   8  -1   35.09   17.58
   3  -8   1   -4.67   21.68
   5   7  -1  -20.20   24.05
  -5  -7   1   13.66    9.73
  -4  -7   1    4.36    7.64
   4   7  -1    8.88   27.17
   3   7  -1    3.79   22.18
   3   7  -1    3.47    8.47
  -3  -7   1   -1.97    6.95
   2   7  -1   29.77   11.47
  -2  -7   1   18.58    8.61
  -2  -7   1   24.99    9.68
  -1  -7   1   -2.04    7.94
   1   7  -1   11.80   10.90
  -1  -7   1    2.55    9.09
   0  -7   1    7.43   12.60
   0   7  -1   -7.52   10.29
   0  -7   1   -3.28    8.97
   1  -7   1    6.91   16.30
  -1   7  -1   19.41   12.58
   2  -7   1   47.49   21.25
  -2   7  -1   39.40   15.41
   3  -7   1   15.85   20.07
  -3   7  -1   37.29   16.39
  -4   7  -1   35.35   15.76
   4  -7   1   -7.04   18.30
  -6  -6   1    2.65    9.17
  -5  -6   1   17.28   10.23
   5   6  -1   21.23   31.24
  -4  -6   1   44.82   11.49
   4   6  -1   55.77   36.10
   3   6  -1   34.25   26.71
   3   6  -1   42.86   10.54
  -3  -6   1   29.10    7.92
  -3  -6   1   24.33    9.10
   2   6  -1    0.39   17.17
   2   6  -1    0.51    7.66
  -2  -6   1   -5.91    7.23
  -2  -6   1   -6.94    7.64
   1   6  -1   46.18   13.32
  -1  -6   1   35.29   10.87
  -1  -6   1   37.18   11.88
   0  -6   1   17.19   10.58
   0   6  -1   25.00   11.35
   0  -6   1   46.00   17.15
  -1   6  -1   10.42   10.10
   1  -6   1  -12.00   17.61
  -2   6  -1   41.09   11.53
   2  -6   1   39.73   17.75
  -2   6  -1   52.12   15.61
  -3   6  -1    7.37   10.89
   3  -6   1   -7.38   14.24
  -3   6  -1   40.10   14.22
  -4   6  -1   41.86   15.74
   4  -6   1    8.32   15.05
  -6  -5   1   15.99   10.05
   6   5  -1  -19.04   42.92
  -5  -5   1    9.89    9.36
   5   5  -1   38.12   35.85
  -4  -5   1    6.31    7.95
   4   5  -1   25.22   38.14
   3   5  -1   77.87   34.59
  -3  -5   1   76.61   12.52
  -3  -5   1   88.29   10.26
   3   5  -1  122.92   13.99
   2   5  -1   50.80   21.99
   2   5  -1   53.93   10.75
  -2  -5   1   43.67    8.94
  -2  -5   1   44.50   10.52
  -1  -5   1    8.76    7.16
   1   5  -1    4.27    8.60
  -1  -5   1    4.83    8.10
   0  -5   1  297.47   21.23
   0   5  -1  307.22   19.41
   0  -5   1  292.48   16.17
   1  -5   1   20.49   15.94
  -1   5  -1   20.39   10.40
  -1   5  -1   14.15    9.54
   2  -5   1   22.60   14.79
  -2   5  -1   19.58   11.52
  -2   5  -1    9.51    9.91
  -3   5  -1   22.93   11.42
  -3   5  -1   -7.87    9.26
   3  -5   1  -10.71   10.24
  -4   5  -1   20.31   12.68
  -4   5  -1   -0.74   10.67
   4  -5   1   -9.21   11.14
   5  -5   1  -11.54   13.97
  -5   5  -1   -6.11   11.38
  -6  -4   1   15.27    9.94
   6   4  -1  -22.28   43.11
   5   4  -1  -13.86   37.12
  -5  -4   1    2.11    8.16
  -4  -4   1  227.02   12.65
   4   4  -1  111.49   43.46
  -4  -4   1  203.79   16.68
  -3  -4   1    4.82    7.37
   3   4  -1   36.42   30.19
  -3  -4   1   10.68    5.02
   3   4  -1   19.21    7.52
  -2  -4   1   45.46    8.72
   2   4  -1   33.22    8.40
  -2  -4   1   42.07    6.95
   2   4  -1   36.97   21.80
  -1  -4   1    3.83    6.39
   1   4  -1    1.79    7.09
  -1  -4   1   -1.69    5.84
   0  -4   1   13.71   10.72
   0   4  -1    8.11    8.40
   0  -4   1   16.77    6.46
  -1   4  -1  370.17   15.65
  -1   4  -1  392.73   19.27
   1  -4   1  350.87   19.43
  -2   4  -1    5.45    7.98
   2  -4   1    2.91    9.37
  -2   4  -1    8.60    8.21
  -3   4  -1    9.44    9.56
  -3   4  -1   27.39   10.53
   3  -4   1   12.25   11.32
  -4   4  -1    1.38    9.14
   4  -4   1   -0.72   10.66
  -4   4  -1   11.93   10.25
   5  -4   1  -15.44   11.84
  -5   4  -1   -4.85   10.49
  -6   4  -1   -0.21   13.35
   6  -4   1  -11.67   15.49
   6   3  -1    4.52   41.78
  -6  -3   1   12.94    8.69
   5   3  -1   49.71   39.62
  -5  -3   1  128.55   17.76
  -4  -3   1    4.83    5.63
  -4  -3   1   -1.87    7.26
   4   3  -1    4.48   31.23
  -3  -3   1   -0.82    3.34
  -3  -3   1   -0.94    5.97
   3   3  -1    4.10    5.62
   2   3  -1  137.61   16.36
  -2  -3   1  140.94    7.89
   2   3  -1  136.43    9.37
  -2  -3   1  126.20   10.17
  -1  -3   1   34.59    6.66
   1   3  -1   37.91   16.16
   1   3  -1   39.78    8.32
  -1  -3   1   32.85    6.72
   0   3  -1   16.47    7.59
   0  -3   1    1.73    4.42
   0  -3   1    7.04    8.06
   1  -3   1   78.38   10.14
  -1   3  -1   90.13    9.46
  -1   3  -1   71.84   10.87
   2  -3   1   15.36    7.41
  -2   3  -1   11.78    7.72
  -2   3  -1   13.73    6.70
   3  -3   1   53.50   11.26
  -3   3  -1   71.13   12.21
  -3   3  -1   41.45   10.85
   4  -3   1   15.60   10.43
  -4   3  -1    2.96    8.73
  -5   3  -1   12.63   10.35
   5  -3   1  -10.98    9.71
  -6   3  -1    7.87   12.31
   6  -3   1    0.30   13.11
   7   2  -1  -32.80   53.65
  -6  -2   1   45.17   13.85
   6   2  -1   32.92   44.53
   5   2  -1  278.48   34.21
  -5  -2   1  260.80   19.15
  -4  -2   1   83.71   13.26
  -4  -2   1   86.92   10.49
   4   2  -1   44.42   30.83
  -3  -2   1   10.55    6.34
  -3  -2   1   18.52    5.31
   3   2  -1    7.18   27.96
  -2  -2   1  132.93    9.64
   2   2  -1  144.36   16.95
  -2  -2   1  128.13    6.55
   2   2  -1  111.70    7.36
   1   2  -1  102.79    7.45
   1   2  -1   96.61   11.72
  -1  -2   1  107.05    8.23
  -1  -2   1  115.62    6.75
   0   2  -1 1095.97   21.69
   0  -2   1 1077.78   20.50
  -1   2  -1  951.11   18.73
  -1   2  -1  951.37   21.69
   1  -2   1  979.87   19.78
  -2   2  -1 1970.33   32.71
  -2   2  -1 1966.30   32.87
   2  -2   1 1913.86   31.86
  -3   2  -1    1.37    6.65
   3  -2   1    6.08    7.01
  -3   2  -1    8.66    6.06
  -4   2  -1   71.26   12.91
   4  -2   1  101.85   14.22
   5  -2   1   10.65    9.97
  -5   2  -1    3.13    8.24
  -6   2  -1   11.01   11.88
   6  -2   1  -23.44   10.28
   7   1  -1  -11.33   47.39
  -6  -1   1   -0.92    8.54
   6   1  -1   -1.12   45.35
  -5  -1   1    8.99    7.40
   5   1  -1    8.04    6.60
   5   1  -1   -0.20   39.12
   4   1  -1   81.68   38.81
  -4  -1   1   61.50   11.03
   4   1  -1   77.05    9.84
   3   1  -1   91.03   31.63
  -3  -1   1  105.64   11.55
   2   1  -1  401.97   23.81
  -2  -1   1  408.26   10.72
   2   1  -1  400.55   11.02
  -2  -1   1  407.35   14.30
  -1  -1   1 4443.39   36.08
  -1  -1   1 4399.12   27.22
   1   1  -1 4335.59   33.43
   0   1  -1  145.57    6.44
   0  -1   1  145.97    5.24
   0   1  -1  145.61    5.46
  -1   1  -1 1617.11   21.33
   1  -1   1 1575.96   20.73
  -1   1  -1 1607.10   21.71
   2  -1   1  247.40   10.65
  -2   1  -1  243.83   10.38
  -2   1  -1  239.50   11.65
  -3   1  -1  110.32   11.88
   3  -1   1  171.26   30.36
   3  -1   1  115.36   10.87
  -3   1  -1  110.28    7.92
   4  -1   1   27.77   29.38
  -4   1  -1    9.09    7.68
   4  -1   1   -3.64    6.56
   5  -1   1   31.15   10.83
   5  -1   1   21.04   32.11
  -5   1  -1   19.76    9.90
   6  -1   1   20.94   11.96
  -6   1  -1    9.93   10.09
   6   0  -1  -18.26   37.54
  -6   0   1   13.89    9.63
  -5   0   1   79.27   13.76
   5   0  -1   74.37   12.08
   5   0  -1  125.45   48.27
  -4   0   1  103.76   13.66
   4   0  -1  104.31   11.31
   4   0  -1  139.64   47.41
  -3   0   1  100.54    9.88
   3   0  -1  181.95   38.50
  -3   0   1  105.45    7.15
   3   0  -1   87.34    7.66
  -2   0   1   28.82    5.37
  -2   0   1   21.87    5.92
   2   0  -1   67.27   24.11
   2   0  -1   25.01    4.32
  -1   0   1    0.50    2.84
   1   0  -1    3.32   10.72
   1   0  -1   -1.53    1.53
  -1   0   1   -0.24    2.61
   0   0  -1    0.45    1.06
  -1   0  -1 2672.16   24.79
  -1   0  -1 2571.10   21.45
   1   0   1 2349.57   34.68
   2   0   1  583.77   14.45
   2   0   1  542.82   25.40
  -2   0  -1  594.81   16.63
   3   0   1  475.68   16.67
   3   0   1  512.30   29.10
  -3   0  -1  474.61   18.54
   4   0   1  119.65   42.38
   4   0   1   32.09    8.73
  -4   0  -1   31.60    9.49
   5   0   1  -15.01   35.09
   5   0   1    2.95    7.27
  -5   0  -1   12.90    8.99
   6   0   1   12.67    9.74
  -6   0  -1    8.51    8.84
   6   0   1  -52.55   47.38
  -6   1   1   -8.26    9.41
  -5   1   1   17.93    8.85
   5  -1  -1   10.68    8.49
   5  -1  -1   29.48   31.60
   4  -1  -1   22.12    8.44
  -4   1   1   14.40    8.19
   4  -1  -1   26.81   31.92
   3  -1  -1  101.44    8.79
  -3   1   1  124.07    8.41
  -3   1   1  101.64    9.78
   3  -1  -1  211.96   35.17
   2  -1  -1   37.05   17.80
  -2   1   1   16.32    5.51
   2  -1  -1   12.84    4.71
  -2   1   1    6.26    4.58
   1  -1  -1 9894.93   54.13
   1  -1  -1 9669.43   77.25
  -1   1   1 9999.97   55.14
  -1   1   1 9798.60   60.10
   0  -1  -1 1252.57   18.72
   0  -1  -1 1227.62   14.52
   1   1   1   -3.20   10.03
  -1  -1  -1   -1.71    2.10
  -1  -1  -1   -2.13    2.64
  -2  -1  -1  506.20   12.95
  -2  -1  -1  510.84   15.63
   2   1   1  523.42   25.18
   3   1   1  156.07   21.67
  -3  -1  -1  159.15    9.90
  -3  -1  -1  151.40   11.21
   4   1   1   89.58   39.79
   4   1   1  117.54   11.69
  -4  -1  -1  102.63   13.50
   5   1   1   26.34   38.89
   5   1   1    4.33    6.25
  -5  -1  -1  -10.79    5.68
   6   1   1   14.44    9.46
   6   1   1   -6.33   45.13
  -6  -1  -1    5.29    8.78
   6  -2  -1   -4.21   11.72
  -6   2   1   22.21   11.16
   5  -2  -1    0.27   10.12
  -5   2   1    2.78    9.18
   4  -2  -1   30.12   10.46
   4  -2  -1   18.77   27.22
  -4   2   1   17.12    8.80
   3  -2  -1   58.05   10.06
  -3   2   1   67.08   10.47
  -3   2   1   51.76    9.82
   2  -2  -1  474.95   16.10
  -2   2   1  485.71   17.23
  -2   2   1  475.75   15.95
   1  -2  -1   18.97    6.70
  -1   2   1    8.69    3.91
  -1   2   1   11.68    6.18
   0  -2  -1 4605.99   32.21
   0  -2  -1 4676.57   41.54
   0   2   1 4674.22   43.25
  -1  -2  -1 2830.34   28.29
   1   2   1 2857.92   47.34
   1   2   1 2779.42   29.26
  -1  -2  -1 2799.91   27.18
  -2  -2  -1   84.86    6.27
  -2  -2  -1   80.75    7.61
   2   2   1  133.26   28.51
   3   2   1  178.60   21.24
  -3  -2  -1  161.89   11.70
  -3  -2  -1  162.15    9.62
   4   2   1   -3.45   28.78
  -4  -2  -1    2.42    6.44
  -4  -2  -1    5.71    6.37
   5   2   1   16.52    6.60
   5   2   1   -2.91   30.30
  -5  -2  -1    3.89    7.56
  -6  -2  -1   11.00    9.14
   6   2   1   46.50   40.84
   7   2   1  -17.25   52.82
   6  -3  -1  -20.35   11.52
  -6   3   1   17.12   12.54
   5  -3  -1   -9.12   10.23
  -5   3   1   -6.43    8.88
  -4   3   1   32.61   10.83
   4  -3  -1   22.01   10.62
  -4   3   1   24.04   11.99
  -3   3   1   28.68    9.54
  -3   3   1   45.61   10.31
   3  -3  -1   32.51   10.33
   2  -3  -1   14.78    8.38
  -2   3   1    0.03    5.20
  -2   3   1   10.00    6.87
   1  -3  -1   21.27    8.58
  -1   3   1   19.83    5.44
  -1   3   1   30.23    8.58
   0  -3  -1  198.82    8.57
   0   3   1  207.74   12.19
   0  -3  -1  204.40   13.72
  -1  -3  -1 1002.28   19.04
   1   3   1 1018.18   22.54
  -1  -3  -1 1019.30   19.84
   1   3   1 1001.13   31.41
  -2  -3  -1   99.00    7.61
  -2  -3  -1  121.57    9.24
   2   3   1  111.20    8.03
   2   3   1  133.19   16.83
  -3  -3  -1    1.92    5.22
   3   3   1    7.16   21.26
  -3  -3  -1    1.30    4.08
   4   3   1    9.95   24.25
  -4  -3  -1   13.00    6.32
  -4  -3  -1   10.27    7.59
  -5  -3  -1  229.13   14.83
   5   3   1   94.66   38.79
  -5  -3  -1  190.36   17.37
   6   3   1   14.48   38.14
  -6  -3  -1   14.07    9.89
  -6   4   1    2.91   12.75
   6  -4  -1  -27.56   16.09
   5  -4  -1   -3.80   12.73
  -5   4   1    2.91   10.58
   4  -4  -1   -2.56   11.06
  -4   4   1   10.82   10.42
  -4   4   1    0.81    8.36
  -3   4   1   64.47   13.05
  -3   4   1   34.40   10.58
   3  -4  -1   45.51   13.85
  -2   4   1  135.84   13.00
  -2   4   1  118.43   11.56
   2  -4  -1  128.76   16.40
  -1   4   1  441.07   20.29
  -1   4   1  423.80   15.01
   1  -4  -1  419.86   22.42
   0   4   1  187.32   13.61
   0  -4  -1  195.91   15.62
   0  -4  -1  211.97   10.76
   1   4   1   11.41   13.75
  -1  -4  -1   -3.05    5.73
  -1  -4  -1    6.86    5.38
   1   4   1   -1.99    6.89
  -2  -4  -1  386.19   14.62
   2   4   1  360.42   15.56
  -2  -4  -1  388.40   15.70
   2   4   1  360.29   25.16
  -3  -4  -1   15.95    7.20
  -3  -4  -1   14.42    5.49
   3   4   1   23.68    6.69
   3   4   1    9.41   25.80
  -4  -4  -1    7.83    8.27
   4   4   1   15.05   30.51
  -4  -4  -1    5.79    5.78
   5   4   1   47.07   35.11
  -5  -4  -1   22.32   11.54
  -6  -4  -1   13.62   10.20
   6   4   1  -12.79   38.14
   5  -5  -1   -2.40   14.86
  -4   5   1   -1.72    9.14
  -4   5   1   25.71   12.73
   4  -5  -1   -7.28   12.71
  -3   5   1    8.77   10.99
   3  -5  -1    7.61   12.44
  -3   5   1   19.36    9.59
   2  -5  -1  -13.81   13.74
  -2   5   1   12.85   10.04
  -2   5   1   14.76    9.56
  -1   5   1   -8.67    7.72
   1  -5  -1  -10.77   15.48
  -1   5   1   -3.06    6.70
   0  -5  -1  280.97   14.27
   0  -5  -1  272.36   19.22
   0   5   1  265.58   17.77
   1   5   1   16.75   14.45
  -1  -5  -1    7.54    8.03
  -1  -5  -1    7.22    6.56
   1   5   1    9.42    8.98
   2   5   1    9.16    7.76
   2   5   1    6.39   19.70
  -2  -5  -1    4.50    6.39
  -2  -5  -1   -4.56    5.70
   3   5   1   14.32    7.66
  -3  -5  -1   14.21    7.95
  -3  -5  -1   14.90    7.07
   3   5   1   47.44   29.10
  -4  -5  -1    3.17    7.33
  -4  -5  -1   -0.78    4.58
   4   5   1    5.56   28.20
  -5  -5  -1   23.83   10.10
   5   5   1   13.29   35.53
  -6  -5  -1   12.50    8.99
   6   5   1   -9.63   34.93
   4  -6  -1    9.99   16.56
  -4   6   1   36.87   14.79
   3  -6  -1    3.24   15.92
  -3   6   1   21.79   14.06
  -2   6   1   32.29   13.52
   2  -6  -1   54.92   19.77
  -1   6   1    6.61    9.86
   1  -6  -1   -3.30   17.98
   0  -6  -1   51.51   11.27
   0  -6  -1   42.89   15.60
   0   6   1   69.67   14.99
  -1  -6  -1   29.91    9.35
   1   6   1   20.77   11.21
  -1  -6  -1   14.88   10.26
  -2  -6  -1   31.66    9.40
   2   6   1   47.59   12.45
  -2  -6  -1   25.36    9.08
   2   6   1   72.66   24.08
  -3  -6  -1    6.46    6.94
   3   6   1   24.11   25.22
  -3  -6  -1   10.64    6.81
  -4  -6  -1   -0.82    4.77
   4   6   1    9.00   25.74
  -4  -6  -1   -4.28    6.72
   5   6   1   87.23   40.24
  -6  -6  -1    8.15   10.42
   6   6   1  -20.44   39.68
  -4   7   1   59.90   18.44
   4  -7  -1   -9.93   19.81
  -3   7   1   35.63   14.86
   3  -7  -1   20.93   19.36
   2  -7  -1   25.40   19.78
  -2   7   1    5.31   11.80
  -1   7   1   -4.56   11.02
   1  -7  -1   28.68   18.10
   0  -7  -1   16.31   13.34
   0   7   1   20.34   12.50
   1   7   1   -2.44    9.58
  -1  -7  -1    7.03    9.94
   2   7   1   -1.59   19.02
   2   7   1   10.75    9.63
  -2  -7  -1    9.77    7.95
  -3  -7  -1   12.38    6.66
  -3  -7  -1   10.72    6.96
   3   7   1   21.66   19.14
  -4  -7  -1   -3.75    7.19
   4   7   1   11.37   24.66
   5   7   1   21.37   34.91
  -5  -7  -1    5.62    7.85
  -6  -7  -1    2.80   11.23
  -3   8   1   -5.57   14.48
   3  -8  -1    2.41   20.48
   2  -8  -1   19.38   19.96
  -2   8   1   48.45   15.89
  -1   8   1    6.00   11.59
   1  -8  -1    5.22   15.57
   0   8   1    8.34   11.53
   0  -8  -1    1.32   11.20
   1   8   1   12.02   11.29
  -1  -8  -1    0.53    9.33
   2   8   1   53.72   14.72
  -2  -8  -1   34.90   10.72
  -3  -8  -1   16.88    7.67
   4   8   1    0.34   20.20
   5   8   1    1.25   26.52
   2  -9  -1   28.43   19.85
  -1   9   1    5.42   15.86
   1  -9  -1   10.26   15.00
   0  -9  -1   -2.27   10.60
   0   9   1   -4.96   13.84
   1   9   1   33.44   14.44
  -1  -9  -1   23.08   10.37
   2   9   1   24.40   13.18
  -2  -9  -1   14.07    8.40
   0 -10  -1   23.80   13.23
  -1 -10  -1   30.49   11.98
   1  10   1   34.11   16.64
   2  10   1   13.02   13.47
  -2 -10  -1   12.28    8.50
   2  10  -2   34.06   15.99
   0 -10   2   14.93   12.89
   2   9  -2   10.77   12.42
  -1  -9   2   14.20   10.79
   1   9  -2    2.48   12.49
   0   9  -2   14.74   14.03
   0  -9   2   18.40   12.57
  -1   9  -2   -2.18   14.21
   1  -9   2   -6.95   15.48
  -5  -8   2   27.24   11.22
   5   8  -2  -27.27   24.15
  -4  -8   2   29.35    9.57
  -3  -8   2   13.24    8.37
   2   8  -2   13.75   11.51
   1   8  -2    3.31   11.20
  -1  -8   2   15.90   10.17
   0   8  -2   44.80   15.89
   0  -8   2   47.86   15.64
   1  -8   2   19.27   18.06
  -1   8  -2   46.91   16.16
   2  -8   2   16.98   20.89
  -2   8  -2   22.85   15.55
  -3   8  -2   35.06   18.49
  -5  -7   2   17.27    9.29
   5   7  -2  -13.25   23.57
   4   7  -2   40.72   25.81
  -4  -7   2   15.74    9.19
  -3  -7   2    3.74    7.34
   3   7  -2   11.68    9.18
   3   7  -2    5.62   25.29
   2   7  -2    6.62    9.73
  -2  -7   2   16.14    7.89
  -2  -7   2    7.88    8.49
  -1  -7   2    3.87    9.11
   1   7  -2    6.66   10.73
  -1  -7   2   -2.60    8.45
   0  -7   2   -1.05    9.99
   0   7  -2    7.40   10.94
   0  -7   2   -5.20   12.54
   1  -7   2   -4.27    7.96
  -1   7  -2    3.21   11.33
   1  -7   2    1.69   17.85
   2  -7   2   33.23   20.52
  -2   7  -2   24.43   14.15
  -3   7  -2   44.47   15.98
   3  -7   2   -1.76   18.12
  -6  -6   2   13.13   11.08
  -5  -6   2    7.10    9.00
   5   6  -2    6.36   33.22
  -4  -6   2   -2.02    7.83
   4   6  -2    1.90   29.13
   3   6  -2   13.41    8.21
   3   6  -2    9.68   23.26
  -3  -6   2    6.05    7.70
  -2  -6   2   30.19    9.57
   2   6  -2   28.04   20.87
  -2  -6   2   32.74   10.34
   2   6  -2   44.08   11.52
   1   6  -2   -4.50    8.40
  -1  -6   2   -1.86   10.02
  -1  -6   2    3.07    8.76
   0  -6   2   81.75   14.34
   0  -6   2   63.12   18.71
   0   6  -2  115.21   18.59
  -1   6  -2   27.98   12.16
   1  -6   2   50.84   20.69
  -2   6  -2   18.31   11.80
  -2   6  -2   11.06   10.36
   2  -6   2    9.94   15.06
  -3   6  -2   -0.57   10.73
   3  -6   2   10.62   14.50
  -3   6  -2   12.72   11.71
   4  -6   2   15.96   15.26
  -4   6  -2   23.95   15.43
   6   5  -2  -28.69   47.23
  -6  -5   2   18.46   10.54
   5   5  -2    8.46   38.34
  -5  -5   2   11.03    8.35
   4   5  -2  -38.49   30.12
  -4  -5   2    7.58    8.00
  -3  -5   2  152.50   14.08
   3   5  -2  151.37   13.07
  -3  -5   2  147.85   10.79
   3   5  -2  101.79   36.32
  -2  -5   2   45.77   10.82
  -2  -5   2   42.33    8.92
   2   5  -2   48.23   22.38
   2   5  -2   46.19   10.74
   1   5  -2  164.82   18.14
  -1  -5   2  167.01   14.98
  -1  -5   2  154.88   15.02
   0  -5   2   98.96   17.87
   0   5  -2   92.43   15.68
   0  -5   2   95.54   12.79
   1  -5   2  142.54   19.99
  -1   5  -2  135.32   14.54
  -1   5  -2  161.38   16.58
   2  -5   2    3.68   12.32
  -2   5  -2    6.84   10.08
  -2   5  -2   22.90   11.02
  -3   5  -2   48.04   13.86
   3  -5   2   17.16   12.36
  -3   5  -2   25.21   11.77
   4  -5   2   11.09   12.94
  -4   5  -2   12.21   10.68
   5  -5   2   -6.07   12.87
  -5   5  -2   19.37   13.61
   6   4  -2   16.87   47.51
  -6  -4   2    8.63    8.53
  -5  -4   2    7.78    9.26
   5   4  -2    3.75   40.46
   4   4  -2  131.33   42.43
  -4  -4   2  218.60   17.59
   3   4  -2  403.76   16.58
  -3  -4   2  405.01   20.34
   3   4  -2  290.91   29.87
  -3  -4   2  404.02   14.02
   2   4  -2   10.38   19.33
   2   4  -2   14.40    7.65
  -2  -4   2    7.42    7.24
  -2  -4   2    5.81    4.90
  -1  -4   2 1100.72   23.58
  -1  -4   2 1131.03   26.83
   1   4  -2 1099.40   29.88
   0  -4   2    4.12   10.40
   0   4  -2    1.93    7.57
   0  -4   2    4.92    5.98
   1  -4   2  153.87   15.82
  -1   4  -2  125.19   12.37
  -1   4  -2  121.83   11.09
  -2   4  -2  108.48   13.82
  -2   4  -2  117.70   15.20
   2  -4   2   76.39   13.56
  -3   4  -2   -6.53    8.28
  -3   4  -2   14.49    9.71
   3  -4   2    9.84   10.90
   4  -4   2    8.46   10.70
  -4   4  -2   30.71   12.32
  -5   4  -2   -3.83   10.40
   5  -4   2    4.20   12.01
  -6   4  -2    1.42   12.67
  -6  -3   2   25.64   10.07
   6   3  -2   49.85   49.82
  -5  -3   2   16.86   10.49
   5   3  -2   38.47   40.25
  -4  -3   2   77.60   13.17
   4   3  -2   49.11   38.44
   3   3  -2   48.91   30.91
  -3  -3   2   38.96    5.96
   3   3  -2   63.59   10.10
  -3  -3   2   29.05    8.83
   2   3  -2  232.50   11.88
   2   3  -2  184.61   19.71
  -2  -3   2  229.70   13.07
  -2  -3   2  241.96    9.38
  -1  -3   2   24.59    5.80
   1   3  -2   22.62   12.76
  -1  -3   2   15.85    6.05
   1   3  -2   14.71    7.13
   0  -3   2  239.28   11.65
   0   3  -2  230.90   13.41
   0  -3   2  229.91   14.12
  -1   3  -2  406.76   17.78
   1  -3   2  414.60   16.70
  -1   3  -2  442.91   15.74
  -2   3  -2    8.23    6.50
   2  -3   2    9.30    6.82
  -2   3  -2    0.30    6.25
  -3   3  -2   28.26    9.50
   3  -3   2   16.76    9.39
  -3   3  -2   29.69   10.08
   4  -3   2   -6.24    8.11
  -4   3  -2   -0.85    8.06
  -5   3  -2   -2.11    8.78
   5  -3   2    3.05   11.20
  -6   3  -2   17.69   12.82
   6  -3   2    2.98   13.36
  -6  -2   2    6.67    9.66
   6   2  -2   26.52   47.73
   5   2  -2   72.01   41.73
  -4  -2   2   11.24    8.38
   4   2  -2   23.55   33.93
   3   2  -2   37.46    7.84
  -3  -2   2   29.35    5.70
  -3  -2   2   27.84    8.13
   3   2  -2   34.03   27.55
   2   2  -2   43.71   22.81
  -2  -2   2   68.53    4.96
   2   2  -2   82.07    8.56
  -2  -2   2   69.75    8.59
  -1  -2   2   10.10    4.17
   1   2  -2    0.58   13.71
   1   2  -2   13.57    5.78
  -1  -2   2   15.51    5.72
   0  -2   2   70.20    7.78
   0   2  -2   82.75    9.64
   0  -2   2   73.59    7.83
   1  -2   2   91.77    8.66
  -1   2  -2   86.71    8.62
  -1   2  -2   98.14   10.60
  -2   2  -2  287.16   13.80
   2  -2   2  295.90   13.58
  -2   2  -2  308.23   13.91
  -3   2  -2   89.89   12.29
   3  -2   2   83.82   11.22
  -3   2  -2   88.08    8.65
   4  -2   2   21.22    9.39
  -4   2  -2    8.88    8.69
  -5   2  -2    4.28    9.15
   5  -2   2    7.35   10.28
  -6   2  -2    7.33   10.56
   6  -2   2    2.31   11.99
   7   1  -2  -17.75   44.97
   6   1  -2   44.82   46.34
  -5  -1   2    1.19    7.69
   5   1  -2   16.22   41.66
   4   1  -2   20.43    6.36
  -4  -1   2   13.35    8.28
   4   1  -2    5.76   33.96
   3   1  -2   16.68    4.57
  -3  -1   2   24.28    5.55
  -3  -1   2   13.74    7.10
   3   1  -2   32.39   31.83
  -2  -1   2   40.03    7.09
   2   1  -2   74.23   25.73
  -2  -1   2   46.11    4.82
   2   1  -2   44.53    7.05
   1   1  -2  795.25   15.22
  -1  -1   2  790.09   16.87
   1   1  -2  811.33   24.29
   0   1  -2  671.08   13.79
   0   1  -2  693.77   12.80
   0  -1   2  687.69   10.41
  -1   1  -2 9045.34   56.35
   1  -1   2 8918.18   53.46
  -1   1  -2 9183.80   58.95
  -2   1  -2  177.90    8.91
  -2   1  -2  159.57   10.12
   2  -1   2  171.20    9.31
  -3   1  -2   -1.45    5.63
  -3   1  -2   15.22    5.41
   3  -1   2    6.66    5.10
   4  -1   2   -3.69   24.06
   4  -1   2    3.27    6.72
  -4   1  -2    8.12    7.70
  -5   1  -2   10.79    9.44
   5  -1   2   14.92   10.05
   6  -1   2   -1.98    8.81
  -6   1  -2   21.76   11.80
   6   0  -2  -30.30   33.67
  -6   0   2   17.84    9.50
   5   0  -2   45.82   10.52
  -5   0   2   33.04   10.18
   5   0  -2   39.71   39.83
   4   0  -2  116.85   10.22
   4   0  -2  204.06   47.83
  -4   0   2  117.57   13.91
   3   0  -2   19.65   28.37
  -3   0   2   -2.29    5.36
  -3   0   2    9.82    4.84
   3   0  -2    2.17    3.78
   2   0  -2  359.64    9.87
  -2   0   2  347.92   11.67
   2   0  -2  355.97   22.22
  -2   0   2  354.32   13.56
  -1   0   2 1477.00   19.45
   1   0  -2 1467.42   30.11
  -1   0   2 1473.54   20.37
   1   0  -2 1478.37   13.78
   0   0  -2  378.25    5.31
   0   0  -2  360.33    7.69
   0   0  -2  380.45    9.71
   1   0   2   14.80   10.79
  -1   0  -2   15.99    3.50
  -1   0  -2   16.13    3.94
  -2   0  -2 2031.60   30.53
   2   0   2 2015.17   41.99
   2   0   2 2020.95   28.32
  -3   0  -2  201.57   12.86
   3   0   2  211.47   11.93
   3   0   2  278.22   25.82
   4   0   2  -10.42   28.63
   4   0   2   11.23    6.61
  -4   0  -2    4.63    7.23
   5   0   2    6.15    7.88
   5   0   2    4.08   35.74
  -5   0  -2    2.13    6.93
  -6   0  -2   19.19   10.00
   6   0   2    1.16    8.77
  -6   1   2   11.02    9.58
   5  -1  -2    1.26    8.50
  -5   1   2    4.05    7.57
   5  -1  -2   -1.74   30.90
   4  -1  -2  201.38   28.55
   4  -1  -2  196.45   13.72
  -4   1   2  185.23   14.53
   3  -1  -2  117.93   30.24
  -3   1   2   45.34    8.92
  -3   1   2   77.38   10.21
   3  -1  -2   62.42    8.66
   2  -1  -2  145.87   25.08
   2  -1  -2  113.32    7.86
  -2   1   2   98.31    7.81
  -2   1   2   95.23    7.93
   1  -1  -2   50.27   17.96
  -1   1   2   33.96    4.76
   1  -1  -2   40.44    6.58
  -1   1   2   30.58    6.22
   0  -1  -2  343.06    7.77
   0  -1  -2  342.08   11.65
   0   1   2  347.04    9.05
   1   1   2  261.06   13.85
  -1  -1  -2  244.12    7.84
  -1  -1  -2  258.61    7.85
  -2  -1  -2   53.06    6.04
  -2  -1  -2   55.37    7.01
   2   1   2   58.48   23.16
   3   1   2  -17.03   21.55
  -3  -1  -2    9.70    5.51
  -3  -1  -2   11.54    5.89
   4   1   2    6.18    6.07
   4   1   2   38.60   37.48
  -4  -1  -2   23.80    8.15
   5   1   2    0.55    5.74
   5   1   2  -14.23   36.39
  -5  -1  -2   -2.89    6.87
   6   1   2   41.51   44.42
   6   1   2   20.86    9.25
  -6  -1  -2   -4.08    8.41
  -6   2   2   13.92   11.47
   5  -2  -2    0.44    9.62
  -5   2   2   17.71    9.14
  -4   2   2   18.82    8.64
   4  -2  -2   14.26    9.22
  -4   2   2    8.69    7.63
   4  -2  -2   10.52   27.74
   3  -2  -2    8.36    7.36
   3  -2  -2   13.16   21.70
  -3   2   2   -0.56    6.42
  -3   2   2    0.37    5.91
   2  -2  -2   12.85   16.15
  -2   2   2   13.16    5.93
   2  -2  -2    8.76    6.56
  -2   2   2   14.51    5.46
  -1   2   2   77.11    8.72
  -1   2   2   73.70    5.53
   1  -2  -2   86.80    9.72
   0  -2  -2 1877.52   30.35
   0  -2  -2 1895.97   16.91
   0   2   2 1848.81   26.37
   0  -2  -2 1872.14   24.88
  -1  -2  -2 7396.91   46.28
   1   2   2 7418.72   77.84
   1   2   2 7413.10   50.41
  -1  -2  -2 7309.68   48.08
   2   2   2  287.15   20.61
  -2  -2  -2  286.58   10.71
  -2  -2  -2  286.47   12.04
   3   2   2  190.61   21.81
  -3  -2  -2  182.73   11.90
  -3  -2  -2  176.73   10.43
  -4  -2  -2   90.66   11.34
   4   2   2  120.25   35.20
  -4  -2  -2   96.59   13.18
   5   2   2   29.49    7.73
   5   2   2    0.94   31.88
  -5  -2  -2    3.06    7.72
  -6  -2  -2   33.62   11.20
   6   2   2   42.46   10.69
   6   2   2   53.67   41.28
   7   2   2  -33.85   50.05
   6  -3  -2  -18.83   14.15
  -6   3   2   -8.23   11.73
   5  -3  -2   -5.93   10.35
  -5   3   2    6.37    9.41
   4  -3  -2   -7.21    9.16
  -4   3   2   19.20   10.10
  -4   3   2   -4.61    7.48
   3  -3  -2   16.91   10.52
  -3   3   2   42.94   10.91
  -3   3   2   26.50    9.15
  -2   3   2   14.42    6.26
  -2   3   2   28.15    9.03
   2  -3  -2   13.66    8.90
   1  -3  -2  235.14   15.90
  -1   3   2  239.32    9.81
  -1   3   2  230.13   13.55
   0  -3  -2  357.07   15.30
   0   3   2  352.78   14.88
   0  -3  -2  361.31    9.88
  -1  -3  -2   34.88    6.49
   1   3   2   53.53    8.26
   1   3   2   61.99   17.43
  -1  -3  -2   32.53    5.26
  -2  -3  -2 2414.78   32.09
   2   3   2 2456.05   56.69
  -2  -3  -2 2399.37   34.69
   2   3   2 2346.49   29.74
  -3  -3  -2   -2.88    4.93
   3   3   2   -4.10   20.51
  -3  -3  -2    2.49    4.16
  -4  -3  -2   54.35   11.25
   4   3   2   66.63   29.09
  -4  -3  -2   34.48    7.88
  -5  -3  -2   26.25    8.47
   5   3   2   22.21   29.30
  -5  -3  -2   18.82   10.22
  -6  -3  -2   11.75    8.65
   6   3   2   14.65   36.37
   6  -4  -2  -32.74   15.84
  -5   4   2    5.51   10.78
   5  -4  -2  -11.12   12.35
  -4   4   2   26.92   12.23
  -4   4   2   14.40    9.35
   4  -4  -2   15.41   12.36
  -3   4   2    7.54    9.40
  -3   4   2   10.20    9.06
   3  -4  -2    3.31   11.58
  -2   4   2   24.97    8.37
   2  -4  -2   28.92   13.08
  -2   4   2   40.37   11.06
  -1   4   2  333.50   17.90
   1  -4  -2  342.77   21.53
  -1   4   2  355.14   12.73
   0   4   2  131.77   11.78
   0  -4  -2  145.94   13.56
   0  -4  -2  141.94    8.68
   1   4   2  244.31   18.66
  -1  -4  -2  250.48   12.96
   1   4   2  236.80   14.18
  -1  -4  -2  265.29   11.25
   2   4   2  205.37   11.99
   2   4   2  238.70   20.41
  -2  -4  -2  219.67   11.95
  -2  -4  -2  215.00   11.68
  -3  -4  -2   33.57    7.26
   3   4   2   25.96   27.80
  -3  -4  -2   35.68    8.63
   3   4   2   34.51    7.00
  -4  -4  -2   42.40    8.40
   4   4   2   52.02   30.11
  -4  -4  -2   54.55   11.50
   5   4   2   49.11   33.62
  -5  -4  -2    0.13    5.39
  -5  -4  -2    2.58    6.58
  -6  -4  -2   -0.06    8.33
   6   4   2   15.10   33.72
   5  -5  -2    0.06   15.51
  -4   5   2    4.29   11.32
   4  -5  -2  -15.66   13.04
  -3   5   2   15.71   12.85
  -3   5   2   13.50    9.53
   3  -5  -2   17.52   14.57
   2  -5  -2    3.99   15.99
  -2   5   2    1.67    9.44
  -2   5   2   -1.16    8.56
   1  -5  -2   13.64   16.93
  -1   5   2    5.16    6.61
  -1   5   2   16.28   10.28
   0   5   2  113.19   15.57
   0  -5  -2   98.44    9.83
   0  -5  -2  109.61   15.47
   1   5   2  149.78   16.28
   1   5   2  146.21   13.51
  -1  -5  -2  152.93   14.27
  -1  -5  -2  134.97   10.64
  -2  -5  -2  271.96   14.18
  -2  -5  -2  253.71   14.02
   2   5   2  272.02   22.94
   2   5   2  281.70   15.90
  -3  -5  -2   64.78   10.96
   3   5   2   92.08   32.30
  -3  -5  -2   79.46   10.79
   4   5   2    4.73   29.52
  -4  -5  -2   22.11    9.12
  -4  -5  -2   18.22    7.26
   5   5   2   56.74   37.21
   6   5   2  -14.20   36.29
  -6  -5  -2    7.70    8.85
  -4   6   2   22.47   14.62
   4  -6  -2  -15.10   15.49
   3  -6  -2   -3.54   16.96
  -3   6   2   21.31   12.98
  -2   6   2   14.15   11.60
   2  -6  -2   12.09   17.81
  -1   6   2  124.46   18.92
   1  -6  -2   75.88   21.66
   0  -6  -2  130.41   12.47
   0  -6  -2  133.41   18.31
   0   6   2  138.69   18.12
  -1  -6  -2    7.08    7.66
   1   6   2   17.15    9.62
  -1  -6  -2   -0.40    8.93
  -2  -6  -2   -4.37    6.39
  -2  -6  -2   -1.47    6.98
   2   6   2    6.20    8.93
   2   6   2    2.72   17.65
   3   6   2   -5.34   21.10
  -3  -6  -2    1.95    6.98
  -3  -6  -2   -3.80    5.11
   4   6   2   -7.84   27.08
  -4  -6  -2    7.00    7.34
  -4  -6  -2    9.21    5.69
   5   6   2   26.28   34.57
  -5  -6  -2   16.32    9.47
   6   6   2  -18.88   42.51
  -6  -6  -2    5.22    8.83
   4  -7  -2  -25.08   19.07
  -4   7   2   19.83   16.05
   3  -7  -2   14.58   19.08
  -3   7   2    7.66   13.71
   2  -7  -2   24.06   19.27
  -2   7   2   28.94   13.08
   1  -7  -2   14.07   15.81
  -1   7   2   16.11   11.55
   0  -7  -2   54.50   15.14
   0   7   2   37.20   14.35
  -1  -7  -2   80.79   14.08
   1   7   2   95.06   17.07
   2   7   2   13.94    9.22
   2   7   2   13.08   18.83
  -2  -7  -2    1.91    6.98
   3   7   2   26.07   23.54
  -3  -7  -2   26.80    8.74
  -4  -7  -2   -0.80    5.26
   4   7   2   25.09   25.49
  -4  -7  -2    8.46    7.99
  -5  -7  -2    8.05    8.61
   5   7   2    9.43   29.98
  -6  -7  -2   -5.91    9.00
   3  -8  -2   13.55   19.96
  -3   8   2   33.12   17.36
   2  -8  -2   -4.01   17.72
  -2   8   2   39.35   14.15
  -1   8   2   41.87   15.14
   1  -8  -2   29.33   16.80
   0   8   2   28.34   13.52
   0  -8  -2   24.82   13.12
  -1  -8  -2   31.02   11.68
   1   8   2   38.94   14.48
   2   8   2   21.45   10.86
  -2  -8  -2   13.21    8.41
   3   8   2   22.79   22.10
  -3  -8  -2   10.31    7.10
   4   8   2    3.49   20.18
   2  -9  -2   -1.86   18.11
  -1   9   2   13.04   16.73
   1  -9  -2    9.92   14.82
   0  -9  -2   12.83   11.85
   0   9   2    8.51   12.06
  -1  -9  -2   28.36   12.04
   1   9   2   55.88   17.63
   2   9   2   26.12   13.60
  -2  -9  -2   17.69    8.30
  -3  -9  -2   16.42    8.28
   0 -10  -2   20.15   13.20
  -1 -10  -2   11.54    9.56
   1  10   2    7.06   15.23
  -2 -10  -2   39.48   11.03
   2  10   2   24.53   14.44
   2   9  -3   31.91   13.22
   1   9  -3   22.65   15.06
   0  -9   3   29.59   13.73
   0   9  -3   13.68   15.80
   1  -9   3   22.10   17.80
  -1   9  -3   24.78   16.61
  -5  -8   3   17.42   10.96
   5   8  -3   -7.00   26.35
  -4  -8   3   12.91    9.03
  -3  -8   3    7.26    7.66
   2   8  -3   18.82   11.69
  -2  -8   3   -0.13    8.18
  -1  -8   3    7.39    9.79
  -1  -8   3    3.68    9.79
   1   8  -3   30.23   12.44
   0  -8   3   -9.25   10.56
   0   8  -3    6.29   12.90
   1  -8   3   13.81   17.50
  -1   8  -3   27.02   14.27
  -2   8  -3  -14.16   13.00
   2  -8   3   14.21   21.07
  -3   8  -3    8.67   16.58
   5   7  -3   -5.90   26.25
  -5  -7   3   15.90    8.74
   4   7  -3  -12.83   22.35
  -4  -7   3    9.45    7.81
  -3  -7   3    5.60    8.24
   3   7  -3   12.09    9.07
  -2  -7   3    9.65    8.80
   2   7  -3   16.27   10.71
   1   7  -3   47.35   14.07
  -1  -7   3   26.08   10.94
  -1  -7   3   35.77   11.49
   0  -7   3   -6.20    9.54
   0  -7   3    8.93   13.88
   0   7  -3    7.88   11.56
   1  -7   3  -17.76   15.65
   1  -7   3   -4.49    8.34
  -1   7  -3   12.80   13.22
  -2   7  -3  -17.55   10.44
   2  -7   3    6.47   17.43
  -2   7  -3   28.82   14.36
  -3   7  -3   20.44   16.18
   3  -7   3   10.06   18.81
  -6  -6   3   14.99   11.84
   5   6  -3    5.33   31.92
  -5  -6   3   12.28    8.50
  -4  -6   3   30.62   10.57
   4   6  -3   -7.00   27.44
  -3  -6   3   -6.95    6.60
   3   6  -3  -10.54   20.24
   3   6  -3    6.38    7.28
  -2  -6   3   -4.22    6.96
  -2  -6   3   -0.43    8.73
   2   6  -3    3.29    8.29
  -1  -6   3   61.57   13.26
   1   6  -3   63.51   14.24
  -1  -6   3   27.27   11.21
   0   6  -3   16.09   12.41
   0  -6   3    4.19   15.98
   0  -6   3   19.94   11.51
  -1   6  -3  110.18   19.04
   1  -6   3   60.79   11.97
   1  -6   3   95.48   21.62
  -2   6  -3    3.92   10.51
   2  -6   3  -14.52   12.44
  -2   6  -3   20.14   11.46
  -3   6  -3   23.28   12.90
   3  -6   3   -2.48   12.99
  -3   6  -3  -11.88   10.66
  -4   6  -3   -5.15   12.32
   4  -6   3   -4.14   13.28
  -6  -5   3   17.12   11.67
   6   5  -3  -60.87   48.49
   5   5  -3    0.10   39.92
  -5  -5   3   15.83    9.26
  -4  -5   3    1.29    7.39
   4   5  -3   13.48   32.04
   3   5  -3   36.75   10.98
   3   5  -3   17.92   26.05
  -3  -5   3   20.19    9.74
  -2  -5   3   74.13   12.46
  -2  -5   3   89.60   10.72
   2   5  -3   57.17   22.98
   2   5  -3   95.30   14.32
  -1  -5   3  110.37   14.03
   1   5  -3  138.27   17.63
  -1  -5   3   93.31   13.03
   0  -5   3   38.13   15.44
   0  -5   3   11.39    9.52
   0   5  -3   22.58   10.52
  -1   5  -3    7.87   10.18
  -1   5  -3    6.35    9.29
   1  -5   3    5.18   12.60
  -2   5  -3    8.31   10.37
   2  -5   3   22.21   13.68
  -2   5  -3   10.12   10.13
  -3   5  -3   36.67   12.75
   3  -5   3   18.86   12.48
  -3   5  -3   66.00   14.51
  -4   5  -3    3.40   10.82
   4  -5   3   -2.61   11.68
   5  -5   3  -21.48   13.30
  -5   5  -3    0.35   13.58
  -6  -4   3   25.64   11.02
   6   4  -3    0.40   50.71
   5   4  -3   33.57   45.12
  -5  -4   3   18.20    9.80
  -4  -4   3  153.43   17.45
   4   4  -3   69.32   41.80
  -3  -4   3  103.95   13.56
  -3  -4   3  112.27    8.09
   3   4  -3   38.28   29.61
   3   4  -3  126.04   13.81
   2   4  -3   25.58    9.05
  -2  -4   3   13.24    5.41
   2   4  -3   13.21   19.62
  -2  -4   3   23.38    8.84
  -1  -4   3  118.70   12.53
   1   4  -3  133.23   14.67
  -1  -4   3  135.13   11.66
   0  -4   3   49.05    9.32
   0  -4   3   64.14   12.84
   0   4  -3   67.93   12.89
  -1   4  -3    8.28    8.21
  -1   4  -3   20.24    9.34
   1  -4   3   13.62    9.57
  -2   4  -3   91.42   14.08
   2  -4   3   89.00   14.15
  -2   4  -3  104.51   14.58
   3  -4   3   34.45   11.77
  -3   4  -3   66.61   13.76
  -3   4  -3   58.93   12.94
   4  -4   3   12.60   10.67
  -4   4  -3    5.53    9.94
   5  -4   3   -3.03   10.29
  -5   4  -3    6.61   12.28
  -6  -3   3   11.29   11.17
   6   3  -3   18.35   50.97
  -5  -3   3   42.34   12.69
   5   3  -3   75.47   44.61
  -4  -3   3  119.24   15.56
   4   3  -3   85.99   44.22
   3   3  -3   25.18   27.59
  -3  -3   3    6.82    3.91
   3   3  -3    1.82    6.94
  -3  -3   3    4.51    7.20
   2   3  -3  138.46   10.67
   2   3  -3  154.55   17.19
  -2  -3   3  141.15   11.87
  -2  -3   3  142.76    7.40
   1   3  -3   89.29   11.12
  -1  -3   3   98.84   10.45
  -1  -3   3  108.82    9.10
   1   3  -3  102.21   11.74
   0  -3   3  144.31   11.52
   0   3  -3  144.33   11.43
   0  -3   3  133.92   10.14
   1  -3   3  763.88   21.32
  -1   3  -3  763.58   24.01
  -1   3  -3  755.65   21.77
  -2   3  -3   17.45    7.72
  -2   3  -3   12.09    7.61
   2  -3   3   10.37    7.55
   3  -3   3    5.74    8.24
  -3   3  -3   16.68    8.44
  -3   3  -3   -7.82    7.05
   4  -3   3   52.99   13.00
  -4   3  -3   56.69   13.35
   5  -3   3   29.26   12.43
  -5   3  -3    7.68   11.35
  -6   3  -3    5.79   12.46
   6  -3   3   -7.48   11.96
  -6  -2   3   15.46   10.28
   6   2  -3   -4.38   46.08
   5   2  -3  -21.84   39.32
  -5  -2   3    0.41    7.73
   4   2  -3   -0.84   34.40
  -4  -2   3    4.01    7.73
   3   2  -3  615.75   19.56
  -3  -2   3  641.09   23.18
  -3  -2   3  623.23   15.29
   3   2  -3  589.52   35.26
  -2  -2   3  420.97    9.75
  -2  -2   3  422.70   16.37
   2   2  -3  421.93   15.06
   2   2  -3  420.43   25.21
   1   2  -3  145.35    9.57
  -1  -2   3  151.56    9.91
  -1  -2   3  153.63    7.29
   1   2  -3  136.83   13.56
   0  -2   3    3.73    4.99
   0  -2   3    1.72    4.66
   0   2  -3    1.01    5.20
  -1   2  -3   78.25    8.42
  -1   2  -3   79.61    8.97
   1  -2   3   85.64    8.41
  -2   2  -3 1454.74   28.94
   2  -2   3 1485.89   28.94
  -2   2  -3 1483.35   29.46
  -3   2  -3   35.76    9.97
   3  -2   3   23.20    8.15
  -3   2  -3   32.13    8.14
  -4   2  -3    5.63    8.50
   4  -2   3   -5.60    6.95
  -5   2  -3   33.16   11.52
   5  -2   3   19.24   10.34
   6  -2   3   19.89   12.07
  -6   2  -3  -16.09    9.43
  -6  -1   3   15.75    9.86
   6   1  -3   39.64   45.44
  -5  -1   3  -10.31    7.25
   5   1  -3  -48.93   39.46
   4   1  -3   57.07   41.03
  -4  -1   3    8.31    7.69
   4   1  -3   14.32    6.35
   3   1  -3    4.14    3.55
  -3  -1   3   12.61    4.98
  -3  -1   3    4.87    6.19
   3   1  -3   -6.35   29.21
  -2  -1   3  451.61   15.86
   2   1  -3  471.22   25.21
   2   1  -3  476.77   14.77
  -2  -1   3  458.08    9.26
   1   1  -3  235.98   16.72
   1   1  -3  206.83    9.81
  -1  -1   3  214.15   10.51
   0   1  -3  997.44   18.63
   0  -1   3  988.82   13.11
   1  -1   3  573.61   13.45
  -1   1  -3  583.47   14.84
  -1   1  -3  586.52   14.93
   2  -1   3  524.32   15.95
  -2   1  -3  506.23   16.88
  -2   1  -3  513.90   14.37
  -3   1  -3  104.62   12.10
  -3   1  -3  100.75    7.43
   3  -1   3  101.98   10.98
  -4   1  -3   56.70   11.92
   4  -1   3   46.11   10.50
   5  -1   3    7.95    8.38
  -5   1  -3    4.01    8.82
  -6   1  -3   10.43   10.38
   6  -1   3    0.51    9.62
   7  -1   3   -2.46   14.14
  -6   0   3   15.68   10.08
   6   0  -3   31.95   38.54
  -5   0   3  148.71   17.94
   5   0  -3  132.60   45.84
   4   0  -3  245.49   49.31
   4   0  -3  159.72   11.35
  -4   0   3  155.59   13.91
  -3   0   3  325.19   13.77
  -3   0   3  330.94   16.37
   3   0  -3  335.52   27.58
   3   0  -3  313.45   11.87
  -2   0   3  577.24   17.20
   2   0  -3  595.28   12.09
   2   0  -3  572.19   27.58
  -2   0   3  584.20   16.22
   1   0  -3 1080.98   11.87
   1   0  -3 1040.97   29.27
   1   0  -3 1096.84   19.03
   0   0  -3 1569.47   19.39
   0   0  -3 1571.69   13.82
   0   0  -3 1560.07   23.56
  -1   0  -3 2759.06   27.76
  -1   0  -3 2745.42   24.61
  -1   0  -3 2761.60   26.17
  -2   0  -3   50.52    7.14
   2   0   3   59.72   20.11
  -3   0  -3    0.74    5.14
   3   0   3   -3.14    3.65
   3   0   3  -13.56   19.06
   4   0   3   81.71   37.71
   4   0   3   57.80   10.55
  -4   0  -3   39.67    9.96
   5   0   3   19.75    8.52
   5   0   3   36.77   36.89
  -5   0  -3   22.11    9.19
  -6   0  -3   10.75    9.86
   6   0   3    7.17    8.63
   7   0   3   -8.72   10.58
   6  -1  -3   46.77   40.06
  -6   1   3   14.20   11.02
   5  -1  -3    0.89    8.23
   5  -1  -3   36.25   34.98
  -5   1   3   22.29    9.40
   4  -1  -3  105.24   12.62
   4  -1  -3  170.09   40.89
  -4   1   3  105.87   12.46
  -4   1   3   86.90   13.01
  -3   1   3  401.76   16.50
   3  -1  -3  377.16   14.89
   3  -1  -3  362.88   27.15
  -3   1   3  414.53   17.71
   2  -1  -3   47.13   20.43
  -2   1   3   36.56    7.40
  -2   1   3   14.50    5.26
   2  -1  -3   21.31    5.52
  -1   1   3   -0.06    3.23
  -1   1   3   -0.28    4.54
   1  -1  -3    9.62    6.54
   1  -1  -3   15.43   17.07
   0   1   3 1182.33   17.99
   0  -1  -3 1202.33   23.55
   0  -1  -3 1188.67   14.64
  -1  -1  -3  311.74    8.78
  -1  -1  -3  319.10    9.47
   1   1   3  308.97   14.96
   2   1   3  138.65   14.49
  -2  -1  -3  121.55    7.63
  -2  -1  -3  126.41    8.26
  -3  -1  -3   27.50    6.99
  -3  -1  -3   18.86    6.51
   3   1   3   59.98   27.31
  -4  -1  -3   86.76   12.60
   4   1   3   99.00   12.02
   4   1   3   74.56   36.82
   5   1   3    4.47    5.93
   5   1   3   16.71   33.04
  -5  -1  -3   -4.22    7.83
   6   1   3   20.08    9.86
  -6  -1  -3   21.52   10.44
   6   1   3  -13.38   41.99
  -6   2   3   35.27   12.51
   5  -2  -3   14.46   10.11
   5  -2  -3   30.74   33.90
  -5   2   3   11.71    9.92
   4  -2  -3  217.41   43.23
  -4   2   3  143.35   12.36
   4  -2  -3  133.79   15.13
  -4   2   3  122.59   14.59
  -3   2   3  273.58   15.02
  -3   2   3  242.59   14.17
   3  -2  -3  267.29   14.61
   3  -2  -3  263.11   23.63
  -2   2   3   -3.67    5.50
   2  -2  -3   -3.56   15.37
   2  -2  -3    7.45    7.00
  -2   2   3    4.45    4.14
  -1   2   3  312.18   13.74
  -1   2   3  331.83    9.29
   1  -2  -3  329.25   18.07
   1  -2  -3  332.12   15.28
   0   2   3  743.92   17.68
   0  -2  -3  728.95   22.31
   0  -2  -3  742.30   16.17
  -1  -2  -3  693.37   14.99
   1   2   3  697.94   24.35
   1   2   3  691.52   14.11
  -1  -2  -3  709.51   12.77
  -2  -2  -3  258.87   11.08
  -2  -2  -3  256.77   10.70
   2   2   3  259.12   19.49
  -3  -2  -3   -3.21    4.54
  -3  -2  -3   -1.11    4.29
   3   2   3   -1.71   22.75
   4   2   3   15.38   23.41
  -4  -2  -3   12.88    7.55
  -4  -2  -3   11.26    7.09
  -5  -2  -3   11.53    8.45
   5   2   3   -0.12   29.62
  -6  -2  -3   20.75   10.81
   6   2   3   20.06   33.95
   6   2   3   42.27    9.98
   7   2   3    4.35   48.21
  -6   3   3   19.00   11.98
   5  -3  -3   -7.72   11.61
  -5   3   3    2.19    8.84
  -4   3   3   55.87   12.82
  -4   3   3   23.02   10.17
   4  -3  -3   25.67   12.13
   3  -3  -3  248.39   38.64
   3  -3  -3  147.94   16.34
  -3   3   3  127.49   13.73
  -3   3   3  149.87   12.62
  -2   3   3   14.07    5.82
  -2   3   3   28.15    8.57
   2  -3  -3   26.67   10.15
   1  -3  -3  168.16   15.71
  -1   3   3  156.60   11.42
  -1   3   3  161.36    7.55
   0   3   3   37.48    8.14
   0  -3  -3   45.97   14.55
   0  -3  -3   33.80    4.05
   0  -3  -3   32.49    7.59
  -1  -3  -3  422.33   10.86
  -1  -3  -3  439.35   14.12
   1   3   3  417.14   21.72
   1   3   3  420.11   14.47
  -2  -3  -3    3.37    4.21
  -2  -3  -3    3.02    4.19
   2   3   3    1.96   15.52
   2   3   3    0.55    4.60
  -3  -3  -3   90.09    9.62
  -3  -3  -3  103.29   11.06
   3   3   3  132.86   33.03
  -4  -3  -3   17.05    6.94
   4   3   3   69.62   28.03
  -4  -3  -3   20.79    9.00
   5   3   3   10.31   30.15
  -5  -3  -3   72.27   11.74
  -5  -3  -3   66.82   13.52
   6   3   3   27.69    6.09
  -6  -3  -3    8.61    9.07
   6   3   3   31.29   35.08
   7   3   3  -19.26   41.97
  -5   4   3   16.49   11.13
   5  -4  -3   -2.55   13.64
  -4   4   3    1.48   11.02
   4  -4  -3    0.60   12.03
  -4   4   3   -2.40    7.69
  -3   4   3   27.84    9.92
  -3   4   3   28.03   12.75
   3  -4  -3   22.52   13.94
   2  -4  -3   -5.06   13.31
  -2   4   3   -0.79    5.86
  -2   4   3   12.05    9.07
  -1   4   3   75.07    7.95
  -1   4   3  107.03   13.57
   1  -4  -3   89.80   16.31
   0  -4  -3   -1.08    7.90
   0  -4  -3   15.04    4.81
   0   4   3   13.90    7.81
   1   4   3 2760.57   42.83
  -1  -4  -3 2855.79   31.79
   1   4   3 2831.49   58.46
  -1  -4  -3 2781.56   38.56
  -2  -4  -3  461.61   16.14
   2   4   3  477.10   16.86
   2   4   3  488.64   28.21
  -2  -4  -3  479.16   16.83
  -3  -4  -3   28.58    7.21
  -3  -4  -3   29.92    8.11
   3   4   3   71.58   26.94
   4   4   3   14.63   27.87
  -4  -4  -3   16.05    7.08
  -4  -4  -3   34.86   10.26
   5   4   3    0.37   26.54
  -5  -4  -3    7.53    5.87
  -5  -4  -3   -0.55    6.86
   6   4   3   47.97   41.08
   5  -5  -3  -23.81   15.43
  -4   5   3   16.60   14.29
   4  -5  -3    4.12   15.04
  -3   5   3   -8.70   10.07
   3  -5  -3   25.68   15.41
  -2   5   3   49.11   10.84
  -2   5   3   63.04   14.84
   2  -5  -3   63.42   20.23
  -1   5   3    1.68    8.34
   1  -5  -3   -2.01   14.91
  -1   5   3    2.96    5.89
   0  -5  -3    2.91    9.37
   0   5   3   -4.46    8.64
   0  -5  -3   -4.03    5.20
   1   5   3   69.62   12.72
  -1  -5  -3   51.59   10.27
  -1  -5  -3   64.21    8.31
   1   5   3   83.14   22.94
   2   5   3  217.49   21.20
  -2  -5  -3  228.39   12.73
   2   5   3  217.45   14.42
  -2  -5  -3  207.03   13.93
  -3  -5  -3  118.72   12.80
   3   5   3   84.99   30.15
  -3  -5  -3   93.81   11.58
   4   5   3  -15.13   24.13
  -4  -5  -3    8.25    7.74
  -4  -5  -3   11.26    6.25
  -5  -5  -3   -1.44    5.64
  -5  -5  -3    3.58    7.55
   5   5   3   47.56   32.16
  -6  -5  -3   -2.55    8.82
   6   5   3    9.39   36.52
   5  -6  -3  -32.70   19.62
  -4   6   3   28.40   14.76
   4  -6  -3   -2.28   17.07
   3  -6  -3   26.70   18.85
  -3   6   3    9.94   12.23
   2  -6  -3    7.31   17.42
  -2   6   3   -7.83   11.17
   1  -6  -3   71.51   21.09
  -1   6   3   64.66   15.13
   0  -6  -3  173.09   19.28
   0   6   3  175.91   16.57
  -1  -6  -3    7.85    9.47
   1   6   3   18.41   15.43
   1   6   3   10.18    9.77
  -2  -6  -3  111.68   11.96
   2   6   3   98.74   14.96
  -2  -6  -3   90.52   12.59
   2   6   3  124.31   29.66
  -3  -6  -3  120.98   13.55
   3   6   3  137.62   35.56
  -3  -6  -3  108.77   12.98
   4   6   3    4.87   26.82
  -4  -6  -3    5.07    5.38
  -4  -6  -3   11.74    7.32
   5   6   3   69.91   34.88
   6   6   3    8.41   39.52
  -6  -6  -3   14.17   10.38
  -4   7   3   39.05   18.13
   4  -7  -3   -8.40   20.04
   3  -7  -3   -1.21   18.45
  -3   7   3   20.41   14.21
   2  -7  -3   28.75   18.98
  -2   7   3   34.33   14.39
  -1   7   3  100.27   19.12
   1  -7  -3   83.65   19.56
   0  -7  -3   35.35   13.67
   0   7   3   55.00   15.78
  -1  -7  -3   -6.47    8.29
   1   7   3    9.57   10.47
   2   7   3  111.55   16.36
   2   7   3   81.55   25.07
  -2  -7  -3  105.55   13.86
  -3  -7  -3  154.09   15.45
   3   7   3  113.03   34.47
   4   7   3   32.97   25.97
  -4  -7  -3    2.00    6.05
   5   7   3   21.73   29.65
   3  -8  -3   25.16   20.47
  -3   8   3   11.26   13.93
  -2   8   3   37.20   15.35
   2  -8  -3   26.65   16.84
   1  -8  -3   11.44   15.11
  -1   8   3   -7.77   11.56
   0  -8  -3   -0.34   11.14
   0   8   3    4.68   12.68
  -1  -8  -3   15.98   10.45
   1   8   3   42.85   15.33
   2   8   3   79.00   15.95
  -2  -8  -3   54.11   12.14
   3   8   3    2.44   20.74
  -3  -8  -3    2.65    6.20
   4   8   3   26.77   22.55
  -4  -8  -3    3.36    6.32
   5   8   3   -0.94   25.44
   2  -9  -3   30.46   17.77
   1  -9  -3   11.58   14.60
  -1   9   3   18.00   16.68
   0   9   3   25.14   14.80
   0  -9  -3    6.59   10.97
   1   9   3   13.85   13.22
  -1  -9  -3    9.52    9.80
   2   9   3   17.42   11.20
  -2  -9  -3   14.49    8.38
  -3  -9  -3   26.24    7.61
   4   9   3   28.78   23.31
   0 -10  -3   23.74   13.52
  -1 -10  -3   20.47   10.20
   1  10   3    3.44   14.21
  -2 -10  -3   18.04    8.83
   2  10   3   23.21   13.81
  -3 -10  -3   29.36    8.66
   2   9  -4   26.30   13.60
   1   9  -4    7.59   13.72
   0   9  -4   21.04   15.92
   0  -9   4   19.94   13.16
   1  -9   4   16.21   17.09
  -4  -8   4   15.58    9.50
  -3  -8   4    7.83    8.19
   3   8  -4   27.81   10.94
  -2  -8   4    7.80    9.76
   2   8  -4   11.94   10.74
   1   8  -4   25.14   12.23
  -1  -8   4   10.20   10.29
  -1  -8   4    2.86    9.65
   0  -8   4    7.61   12.11
   0   8  -4   29.76   14.23
   0  -8   4    2.85   12.44
   1  -8   4   42.70   19.72
  -1   8  -4   39.65   15.38
   2  -8   4   20.24   20.74
  -2   8  -4   16.62   14.36
   5   7  -4   -8.98   26.03
  -5  -7   4   -4.94    7.88
   4   7  -4   44.66   31.84
  -4  -7   4   13.24    8.59
  -3  -7   4   15.29    9.38
   3   7  -4   34.69   11.43
   2   7  -4   37.45   12.52
  -2  -7   4   18.57    9.93
  -1  -7   4   15.04    9.99
  -1  -7   4    6.76    9.87
   1   7  -4   -6.76    9.25
   0   7  -4    5.19   10.67
   0  -7   4    2.69   10.94
   0  -7   4   -4.30   12.74
   1  -7   4   -3.07   16.73
   1  -7   4    9.87   10.24
  -1   7  -4   28.35   13.31
   2  -7   4    4.08   17.87
  -2   7  -4    0.80   12.43
  -2   7  -4   -8.11   11.43
  -3   7  -4   25.43   15.22
  -3   7  -4   -0.18   13.91
   3  -7   4   -4.22   16.46
  -5  -6   4    9.13    8.78
   5   6  -4    9.43   31.80
  -4  -6   4    7.54    8.29
   4   6  -4   -5.98   28.85
   3   6  -4    6.35   22.55
  -3  -6   4    4.61    7.42
   3   6  -4    8.88    8.71
   2   6  -4   30.92   11.22
  -2  -6   4   25.18   10.70
   1   6  -4   10.92   10.44
  -1  -6   4   16.40   11.15
  -1  -6   4    0.82   10.14
   0   6  -4   25.18   12.41
   0  -6   4   18.00   11.92
   0  -6   4   18.47   16.00
  -1   6  -4   -0.27   11.39
   1  -6   4    3.91    8.06
   1  -6   4    7.53   15.51
   2  -6   4    7.89   14.38
  -2   6  -4   13.68   12.88
  -2   6  -4    2.66   11.51
   3  -6   4    4.16   13.87
  -3   6  -4   -6.76   10.44
  -3   6  -4   35.93   14.38
   4  -6   4  -39.14   12.06
  -4   6  -4   -1.65   12.33
   6   5  -4  -75.02   51.08
  -6  -5   4    6.80   10.27
  -5  -5   4   17.28    9.92
   5   5  -4  -52.18   39.10
   4   5  -4  -14.32   33.93
  -4  -5   4    0.94    7.47
   3   5  -4  134.83   15.58
  -3  -5   4   91.81   14.44
   2   5  -4   33.45   19.75
  -2  -5   4   33.39    8.43
   2   5  -4   27.89   10.36
  -2  -5   4   27.15   10.77
  -1  -5   4  186.35   15.09
  -1  -5   4  160.77   15.41
   1   5  -4  186.03   15.63
   0  -5   4  129.14   15.58
   0   5  -4  155.25   19.16
   0  -5   4  145.46   19.95
   1  -5   4   38.05   15.02
  -1   5  -4   41.62   13.06
  -1   5  -4   49.21   13.35
  -2   5  -4    3.50   10.36
   2  -5   4   -9.12   11.25
  -2   5  -4    9.69   10.80
  -3   5  -4    2.36   10.98
   3  -5   4   18.33   12.62
  -3   5  -4   30.24   12.80
   4  -5   4  -17.83    9.84
  -4   5  -4   14.02   13.14
  -5   5  -4   22.41   15.44
   5  -5   4   11.48   15.18
   6   4  -4  -29.26   47.52
  -6  -4   4   25.23   11.62
   5   4  -4   27.19   47.84
  -5  -4   4   20.33    9.91
   4   4  -4  -10.38   38.80
  -4  -4   4    4.27    8.14
   3   4  -4   92.05   35.88
  -3  -4   4  176.36   15.17
   3   4  -4  187.13   13.68
   2   4  -4   32.49   21.58
  -2  -4   4    6.42    8.49
   2   4  -4   17.29    8.28
  -2  -4   4    3.73    5.12
  -1  -4   4   38.42    9.95
   1   4  -4   61.92   12.01
  -1  -4   4   48.01    9.51
   0  -4   4    1.62    6.81
   0   4  -4   -0.98    8.26
   0  -4   4    5.06   10.21
  -1   4  -4   45.46   11.24
  -1   4  -4   52.10   12.08
   1  -4   4   54.70   11.90
  -2   4  -4    2.68    9.01
   2  -4   4   10.58   10.08
  -2   4  -4    9.61    9.09
  -3   4  -4   11.19   10.13
   3  -4   4   -6.50    8.58
  -3   4  -4    6.67   10.42
   4  -4   4   -3.67   10.01
  -4   4  -4   -6.25   10.40
  -5   4  -4   29.58   13.15
   5  -4   4    2.53   11.09
  -6  -3   4    7.43    9.16
   6   3  -4  -11.76   48.54
  -5  -3   4   83.95   15.89
   5   3  -4    9.26   44.88
   4   3  -4   -7.11   38.43
  -4  -3   4   27.51   10.99
   3   3  -4    3.82    7.45
   3   3  -4   23.16   33.63
  -3  -3   4   -3.48    7.05
   2   3  -4   13.14    7.05
   2   3  -4   16.82   21.98
  -2  -3   4   10.06    7.73
  -2  -3   4    1.65    3.06
  -1  -3   4   10.63    6.08
  -1  -3   4    9.01    7.05
   1   3  -4   16.36    7.46
   1   3  -4   -0.26   13.43
   0  -3   4   30.05    8.08
   0  -3   4   30.22    7.55
   0   3  -4   38.71    9.19
  -1   3  -4   48.65   10.67
  -1   3  -4   48.26    9.15
   1  -3   4   62.50    9.28
   2  -3   4    6.64    6.96
  -2   3  -4   15.96    7.68
  -2   3  -4   -3.56    7.13
  -3   3  -4   29.93    9.24
   3  -3   4   18.24    9.40
  -3   3  -4    9.88    8.79
  -4   3  -4   21.84   10.37
   4  -3   4   27.57   10.84
   5  -3   4   14.00   11.65
  -5   3  -4   38.94   13.45
   6  -3   4  -15.04   12.08
  -6   3  -4   -1.32   12.90
  -6  -2   4    8.88    9.49
   6   2  -4  -58.39   43.78
   5   2  -4  -22.58   38.51
  -5  -2   4   18.18    9.93
   4   2  -4   62.08   40.83
   3   2  -4  109.65   36.49
  -3  -2   4  125.43   12.28
  -3  -2   4  119.95    7.50
   3   2  -4  132.36   11.49
   2   2  -4  103.60   11.36
  -2  -2   4   84.58   10.40
  -2  -2   4   75.08    4.52
   2   2  -4  118.32   28.11
  -1  -2   4   13.61    4.37
   1   2  -4   10.33    6.73
   1   2  -4   30.66   16.87
  -1  -2   4   10.09    6.12
   0  -2   4 1174.55   19.08
   0  -2   4 1193.36   24.06
   0   2  -4 1155.08   25.34
  -1   2  -4  578.79   18.93
  -1   2  -4  619.52   18.66
   1  -2   4  596.94   16.51
  -2   2  -4  167.94   11.80
  -2   2  -4  161.42   11.64
   2  -2   4  182.00   11.63
   3  -2   4  239.06   15.19
  -3   2  -4  265.76   14.06
  -3   2  -4  230.27   15.73
   4  -2   4   29.87   10.41
  -4   2  -4   10.97    9.41
   5  -2   4   28.49   12.25
  -5   2  -4   39.64   12.66
   6  -2   4   -4.90    9.89
  -6   2  -4   22.78   13.15
   6   1  -4   -2.78   40.28
  -6  -1   4   28.55   11.54
   5   1  -4   89.88   44.86
  -5  -1   4   59.07   12.86
  -4  -1   4    2.27    7.02
   4   1  -4   20.26   38.70
   3   1  -4   95.91   36.87
  -3  -1   4   74.69    7.76
   3   1  -4   62.30    5.64
  -3  -1   4   80.40   10.91
  -2  -1   4  753.38   20.67
   2   1  -4  732.45   19.84
   2   1  -4  755.47   10.89
   2   1  -4  715.59   31.23
   1   1  -4 2234.52   31.73
  -1  -1   4 2226.64   30.04
   1   1  -4 2196.84   42.17
   0  -1   4   50.33    4.27
   0   1  -4   57.29    8.26
   0  -1   4   49.31    7.06
  -1   1  -4 6861.88   53.27
   1  -1   4 6644.12   49.23
  -1   1  -4 6783.05   54.04
  -2   1  -4    3.32    5.18
  -2   1  -4    4.75    4.82
   2  -1   4    4.52    4.20
  -3   1  -4   -6.45    6.06
   3  -1   4   -2.06    4.72
  -3   1  -4   18.96    5.47
   4  -1   4   22.29    8.82
  -4   1  -4    6.99    8.42
  -5   1  -4    1.40    8.32
   5  -1   4    0.74    8.15
   6  -1   4    5.09    9.49
  -6   1  -4   15.02   11.30
   6   0  -4   -0.90   37.38
  -6   0   4   17.95   11.11
   5   0  -4   81.05   42.20
  -5   0   4   72.68   14.34
   4   0  -4   76.74   34.79
  -4   0   4   61.24   10.15
  -4   0   4   60.15   11.35
   4   0  -4   53.53    8.79
   3   0  -4  271.73   10.80
  -3   0   4  236.78   14.53
   3   0  -4  273.67   26.79
  -3   0   4  259.30   13.26
   2   0  -4   17.39    4.14
  -2   0   4   11.27    5.72
   2   0  -4   51.17   22.60
  -2   0   4   15.66    5.73
  -1   0   4    9.23    5.06
   1   0  -4   47.41   20.66
   1   0  -4   19.56    6.40
   0   0   4   58.01    5.89
   0   0  -4   67.60    7.05
   0   0  -4   53.39    3.70
  -1   0  -4   -0.39    3.12
  -1   0  -4    5.03    4.17
  -1   0  -4    3.89    4.15
  -2   0  -4  612.10   17.73
  -2   0  -4  594.16   15.93
   2   0   4  557.17   22.35
   3   0   4  135.28   10.21
   3   0   4  140.36   17.95
  -3   0  -4  129.55   11.11
   4   0   4    6.85   35.22
   4   0   4   -0.09    5.22
  -4   0  -4   -6.16    6.67
   5   0   4    0.58    7.80
   5   0   4  -15.64   28.47
  -5   0  -4   -2.30    7.12
   6   0   4   11.37   10.17
  -6   0  -4   10.39   10.17
   7   0   4   -7.31   11.65
   6  -1  -4   74.15   40.39
   5  -1  -4   74.31   36.54
  -5   1   4   31.49   10.92
   4  -1  -4   99.56   12.41
  -4   1   4  129.07   14.38
   4  -1  -4  126.70   39.88
  -4   1   4   79.41   12.82
   3  -1  -4   25.86   26.12
   3  -1  -4   14.47    6.73
  -3   1   4   14.43    7.51
  -3   1   4   19.23    7.33
   2  -1  -4   40.22    6.92
   2  -1  -4   66.70   23.39
  -2   1   4   40.03    7.98
  -2   1   4   35.36    6.67
   1  -1  -4  871.93   17.95
  -1   1   4  898.84   20.08
   1  -1  -4  877.71   27.67
  -1   1   4  904.34   15.45
   0  -1  -4 1204.58   27.53
   0   1   4 1216.57   20.27
   0   1   4 1240.30   13.70
   0  -1  -4 1215.14   15.75
  -1  -1  -4   44.36    4.94
  -1  -1  -4   49.63    5.61
   1   1   4   43.97    4.25
   1   1   4   57.76   15.44
  -2  -1  -4   40.17    6.41
   2   1   4   60.22   19.27
  -2  -1  -4   55.88    6.85
  -3  -1  -4   -0.51    5.06
   3   1   4   -8.21   21.53
  -3  -1  -4   -2.76    4.30
   4   1   4   33.01   29.22
  -4  -1  -4    6.33    7.40
  -5  -1  -4    4.19    8.23
   5   1   4  -12.06   34.14
   5   1   4    3.03    5.53
   6   1   4    9.05    8.52
  -6  -1  -4    6.37    9.31
   6   1   4   -1.29   41.05
   7   1   4    5.47    9.82
  -6   2   4    2.07    9.81
   5  -2  -4   57.82   30.61
   5  -2  -4   23.84   12.16
  -5   2   4   25.58   10.68
  -4   2   4  255.82   17.17
   4  -2  -4  261.08   16.90
   4  -2  -4  270.94   26.14
  -4   2   4  277.29   16.07
  -3   2   4  167.60   12.06
   3  -2  -4  147.55   20.53
   3  -2  -4  180.11   13.59
  -3   2   4  176.42   13.24
  -2   2   4   -3.84    5.78
   2  -2  -4   -0.21   19.56
  -2   2   4    0.46    4.04
   2  -2  -4   15.18    7.71
   1  -2  -4  779.78   21.15
  -1   2   4  773.71   13.25
  -1   2   4  754.79   21.12
   1  -2  -4  760.58   26.11
   0  -2  -4  150.45    9.02
   0   2   4  146.96    9.30
   0  -2  -4  147.58   14.53
   1   2   4  166.91   14.84
   1   2   4  138.62    7.39
  -1  -2  -4  121.45    7.48
  -1  -2  -4  140.25    6.25
   2   2   4  131.49   15.28
  -2  -2  -4  126.65    8.42
  -2  -2  -4  119.71    8.17
   3   2   4 1098.62   42.45
  -3  -2  -4 1092.04   27.36
  -3  -2  -4 1069.45   25.21
  -4  -2  -4   11.67    7.37
  -4  -2  -4   18.60    7.62
   4   2   4   15.46   24.68
   5   2   4   21.10   32.77
  -5  -2  -4   10.93    8.78
   6   2   4   20.31   34.02
   6   2   4    9.40    6.85
  -6  -2  -4    3.64    8.65
   7   2   4   -8.24   47.66
  -6   3   4    6.23   11.73
  -5   3   4   -5.41    8.45
   5  -3  -4    0.16   12.06
   4  -3  -4   15.31   26.16
  -4   3   4   18.89    8.57
   4  -3  -4   17.76   11.54
  -4   3   4   10.91   10.61
   3  -3  -4  168.38   36.51
  -3   3   4  121.56   12.19
   3  -3  -4  117.49   15.60
  -3   3   4  124.02   11.91
   2  -3  -4   61.37   13.14
  -2   3   4   64.08    8.47
   2  -3  -4   92.23   26.52
  -2   3   4   92.79   12.05
  -1   3   4    4.52    3.69
   1  -3  -4    9.23   15.19
   1  -3  -4   10.76   10.28
  -1   3   4    1.19    5.98
   0   3   4  123.27    9.53
   0  -3  -4  135.38   13.60
   0  -3  -4  141.58   10.22
  -1  -3  -4   -1.33    3.98
  -1  -3  -4   -0.76    2.58
   1   3   4    0.93    5.24
   1   3   4   -8.35   11.06
   2   3   4  264.98   20.88
  -2  -3  -4  287.45   12.58
  -2  -3  -4  275.62   11.66
   2   3   4  274.22   10.44
  -3  -3  -4    0.57    4.40
   3   3   4   -6.38   19.52
  -3  -3  -4    4.94    4.91
  -4  -3  -4   -0.56    5.11
  -4  -3  -4    1.47    6.48
   4   3   4    8.32   22.32
  -5  -3  -4   33.82    9.45
   5   3   4   23.94   28.70
  -5  -3  -4   32.30   10.15
   6   3   4  -25.20   33.58
  -6  -3  -4    7.78    8.36
   7   3   4   21.96   42.41
   5  -4  -4   17.85   14.94
   4  -4  -4   14.41   13.65
  -4   4   4    0.77    8.44
  -4   4   4   20.55   12.31
  -3   4   4   95.97   13.10
   3  -4  -4  110.59   19.41
  -3   4   4  119.36   18.45
   2  -4  -4  239.42   21.71
  -2   4   4  221.03   16.38
  -2   4   4  224.52   12.66
  -1   4   4  171.24    8.85
  -1   4   4  158.91   13.19
  -1   4   4  160.59   13.19
   1  -4  -4  197.53   19.61
   0  -4  -4  387.79   17.02
   0  -4  -4  392.18   22.13
   0   4   4  398.85   18.59
   0  -4  -4  402.72   10.45
  -1  -4  -4  933.68   22.94
  -1  -4  -4  925.51   16.85
   1   4   4  991.70   35.87
   1   4   4  962.01   25.47
   2   4   4  453.58   16.20
   2   4   4  435.62   27.52
  -2  -4  -4  438.86   16.39
  -2  -4  -4  455.58   15.18
  -3  -4  -4   69.34    9.92
  -3  -4  -4   68.52    9.71
   3   4   4   63.38   27.16
  -4  -4  -4   49.41    9.43
   4   4   4   25.51   28.57
  -4  -4  -4   51.12   10.11
  -5  -4  -4   12.02    6.41
  -5  -4  -4    5.34    7.68
   5   4   4   -0.13   24.30
  -6  -4  -4   -7.07    6.26
   6   4   4   39.23   35.10
  -6  -4  -4   10.02    8.82
   5  -5  -4    8.51   18.29
  -4   5   4  -11.62   12.52
   4  -5  -4    9.64   16.85
   3  -5  -4   57.42   18.54
  -3   5   4   97.68   18.04
  -2   5   4   99.78   16.92
   2  -5  -4   91.92   22.24
   1  -5  -4    8.64   14.58
  -1   5   4   20.38   10.55
   0  -5  -4    8.37    5.60
   0   5   4    5.41    8.88
   0  -5  -4   -2.49    9.38
  -1  -5  -4  147.36    9.06
   1   5   4  132.14   12.57
  -1  -5  -4  159.48   14.43
   1   5   4  144.77   16.85
   2   5   4   64.18   25.07
   2   5   4   54.09   10.57
  -2  -5  -4   23.50    8.35
  -2  -5  -4   47.97    7.72
  -3  -5  -4    9.55    6.13
  -3  -5  -4   11.84    6.77
   3   5   4   19.84   22.74
   4   5   4   10.10   29.92
  -4  -5  -4   -0.20    6.42
  -4  -5  -4    0.11    5.70
  -5  -5  -4    9.37    8.23
   5   5   4   31.33   27.55
  -5  -5  -4    8.97    6.51
  -6  -5  -4    7.26    9.38
   6   5   4   41.24   40.30
   6   5   4   41.28   40.30
   5  -6  -4  -26.23   20.21
   4  -6  -4    9.74   18.56
  -4   6   4   22.70   14.88
   3  -6  -4    8.51   18.69
  -3   6   4   -5.63   11.11
  -2   6   4   -9.66   10.13
   2  -6  -4   19.30   18.15
  -1   6   4   15.98   11.74
   1  -6  -4   12.69   16.53
   0   6   4  111.49   17.44
   0  -6  -4   96.00   16.12
   1   6   4  297.24   25.28
   1   6   4  275.80   18.67
  -1  -6  -4  279.40   17.64
   2   6   4  338.10   27.08
   2   6   4  349.45   19.87
  -2  -6  -4  388.03   18.82
   3   6   4   73.17   28.48
  -3  -6  -4   68.40   10.04
  -3  -6  -4   67.00   11.27
   4   6   4   55.68   35.17
  -4  -6  -4   55.34   11.28
  -4  -6  -4   47.37    9.84
  -5  -6  -4    3.49    6.07
   5   6   4   26.53   30.93
  -5  -6  -4   -6.11    6.74
  -6  -6  -4   11.73    9.98
   6   6   4   11.48   41.33
   4  -7  -4    2.53   21.48
  -4   7   4   22.35   17.23
   3  -7  -4   13.12   18.38
  -3   7   4   21.96   13.19
   2  -7  -4   21.49   17.69
  -2   7   4   22.93   13.04
   1  -7  -4   27.58   14.93
  -1   7   4   28.04   12.96
   0   7   4   76.66   17.19
   0  -7  -4   48.27   14.92
   1   7   4   50.33   14.43
  -1  -7  -4   39.08   11.88
   1   7   4   64.06   22.05
  -2  -7  -4   41.21   10.55
   2   7   4   34.19   12.48
   2   7   4   50.76   20.99
  -3  -7  -4   54.26   11.01
   3   7   4   34.37   26.95
  -4  -7  -4   35.45    9.84
   4   7   4   34.37   29.17
   5   7   4   37.78   33.57
  -3   8   4   20.87   15.81
   3  -8  -4   11.03   19.86
   2  -8  -4    5.57   15.86
  -2   8   4   38.14   15.90
   1  -8  -4   68.26   17.61
  -1   8   4   83.09   19.12
   0   8   4   18.60   12.56
   0  -8  -4   28.09   13.14
   1   8   4   17.63   12.49
  -1  -8  -4   21.42   11.11
  -2  -8  -4  102.15   14.79
   2   8   4  111.01   17.76
  -3  -8  -4    7.03    6.89
   3   8   4   -2.05   19.74
  -4  -8  -4   10.83    6.67
   4   8   4   -0.97   20.85
   5   8   4   29.04   27.63
   2  -9  -4   21.91   17.13
   1  -9  -4   15.69   14.16
  -1   9   4    3.80   15.13
   0  -9  -4    3.96   11.78
   0   9   4   23.40   13.77
   1   9   4   16.06   12.80
  -1  -9  -4    6.55    9.64
  -2  -9  -4    7.44    7.63
   2   9   4    8.90   12.08
  -3  -9  -4   26.07    9.21
   4   9   4    6.65   19.11
   0 -10  -4   21.26   14.04
  -1 -10  -4    7.97    9.52
   1  10   4    9.93   13.83
   2  10   4   15.65   13.59
  -2 -10  -4   18.84    7.98
  -3 -10  -4   21.81    7.85
   2   9  -5   12.37   13.47
   1   9  -5   19.11   15.61
   0   9  -5   29.55   15.83
   1  -9   5   24.53   18.38
  -4  -8   5   29.23   11.00
  -3  -8   5   13.33   10.03
   3   8  -5   17.99   12.66
  -2  -8   5    2.79    9.74
   2   8  -5   26.27   12.89
  -1  -8   5   -5.91    9.44
   1   8  -5   28.80   13.38
   0  -8   5   12.34   13.96
   0  -8   5   -2.90   11.75
   0   8  -5   26.30   15.76
  -1   8  -5   34.35   13.82
   1  -8   5   -4.87   15.84
   1  -8   5   -9.81   11.06
  -2   8  -5   51.42   16.68
   2  -8   5   -0.14   20.75
   5   7  -5  -17.97   23.90
  -5  -7   5   25.71   11.11
   4   7  -5    2.76   25.60
  -4  -7   5   26.30    9.93
  -3  -7   5   17.52    9.62
   3   7  -5   32.48   13.15
   2   7  -5   33.04   12.82
  -2  -7   5   22.68   11.35
  -1  -7   5   19.20   11.68
  -1  -7   5   38.95   11.93
   1   7  -5   28.14   12.23
   0  -7   5   39.70   13.97
   0  -7   5   80.48   18.64
   0   7  -5   72.22   16.91
   1  -7   5   33.33   11.99
   1  -7   5   53.59   20.12
  -1   7  -5   70.14   17.26
  -2   7  -5   18.27   13.97
   2  -7   5   13.66   18.00
  -3   7  -5   29.51   15.66
  -3   7  -5    6.45   14.76
   3  -7   5  -23.87   14.90
   5   6  -5   11.98   31.65
  -5  -6   5   10.71    8.72
   4   6  -5   21.98   29.58
  -4  -6   5    4.25    8.70
   3   6  -5   21.04    8.84
   3   6  -5  -11.20   21.00
  -3  -6   5   12.85    8.88
  -2  -6   5   10.51   10.07
   2   6  -5   17.16    9.68
   1   6  -5  113.74   18.41
  -1  -6   5   70.96   14.55
  -1  -6   5  101.65   14.89
   0   6  -5   16.53   11.24
   0  -6   5   -7.98    9.40
   0  -6   5   16.21   16.01
  -1   6  -5   83.94   18.35
   1  -6   5   62.33   18.91
   1  -6   5   40.91   10.72
  -2   6  -5   -2.30   11.06
   2  -6   5   -3.39   12.73
  -2   6  -5   23.92   12.44
   3  -6   5   -0.85   13.04
  -3   6  -5    6.85   12.08
  -3   6  -5   25.71   13.54
  -4   6  -5   29.52   15.72
   4  -6   5    0.50   15.21
  -6  -5   5    8.73   11.34
   5   5  -5   36.11   43.93
  -5  -5   5    6.61    7.85
   4   5  -5  -11.13   30.38
  -4  -5   5    3.12    8.04
  -3  -5   5  130.21   16.04
   3   5  -5   56.68   30.12
   3   5  -5  139.91   13.17
  -2  -5   5   79.19   14.17
   2   5  -5   55.32   23.73
   2   5  -5   81.67   13.64
  -1  -5   5  124.85   14.72
  -1  -5   5   88.56   14.67
   1   5  -5  129.53   16.94
   0  -5   5   48.18   15.66
   0  -5   5   38.26   11.84
   0   5  -5   53.96   13.68
  -1   5  -5    4.54   10.90
   1  -5   5   18.87   13.12
  -1   5  -5   -1.64    9.55
  -2   5  -5  124.88   17.82
   2  -5   5  117.49   17.30
  -2   5  -5   98.87   15.49
   3  -5   5   13.43   11.98
  -3   5  -5   25.52   12.85
  -3   5  -5    0.38   10.67
  -4   5  -5    7.89   11.53
   4  -5   5   -6.65   11.61
  -5   5  -5   -7.33   13.21
   5  -5   5   -1.13   15.00
   6   4  -5  -63.55   48.59
  -6  -4   5   14.45   10.51
  -5  -4   5    1.08    7.75
   5   4  -5  -11.77   46.31
   4   4  -5   73.19   46.21
  -4  -4   5   91.75   14.77
   3   4  -5    3.79    9.31
  -3  -4   5    1.58    7.76
   3   4  -5   21.57   29.76
  -2  -4   5   41.93    7.00
   2   4  -5   40.80   23.23
  -2  -4   5   48.59   11.52
   2   4  -5   47.30   11.48
  -1  -4   5   30.45    9.37
   1   4  -5   20.87   10.26
  -1  -4   5   11.61    8.74
   0  -4   5  349.25   19.09
   0  -4   5  317.79   18.13
   0   4  -5  337.19   19.29
  -1   4  -5   68.71   13.16
  -1   4  -5   77.90   13.98
   1  -4   5   65.59   12.80
   2  -4   5   14.55    9.75
  -2   4  -5   10.88   10.12
  -2   4  -5   22.60   10.65
  -3   4  -5   20.49   10.74
  -3   4  -5   22.28   11.41
   3  -4   5   15.37   10.16
  -4   4  -5    1.67   10.60
   4  -4   5   -8.65    8.92
  -5   4  -5   10.30   13.31
   5  -4   5    2.12   11.74
   6   3  -5   41.29   51.15
  -6  -3   5   32.42   12.38
   5   3  -5  -39.50   40.11
  -5  -3   5   17.13    8.89
  -4  -3   5   17.00   10.04
   4   3  -5   58.95   44.20
   3   3  -5    6.37    8.24
   3   3  -5   29.46   33.73
  -3  -3   5    4.11    7.51
  -2  -3   5   23.90    8.60
   2   3  -5   41.50   23.00
  -2  -3   5   17.86    3.76
   2   3  -5   32.40    8.61
  -1  -3   5   53.81    8.54
   1   3  -5   50.52   10.23
  -1  -3   5   65.59   10.68
   0   3  -5  238.69   14.57
   0  -3   5  266.46   14.60
   0  -3   5  267.59   13.15
  -1   3  -5    7.50    7.10
  -1   3  -5    0.35    6.70
   1  -3   5    2.95    5.67
  -2   3  -5   99.59   13.58
  -2   3  -5  115.01   14.28
   2  -3   5  110.18   13.12
  -3   3  -5  457.48   21.02
   3  -3   5  435.73   22.02
  -3   3  -5  453.69   22.56
   4  -3   5    9.39    8.99
  -4   3  -5   -9.31    8.18
   5  -3   5   -8.12    8.41
  -5   3  -5   17.05   10.87
  -6   3  -5   15.07   14.10
   6  -3   5   10.87   13.90
   6   2  -5  -11.14   37.71
  -6  -2   5   13.24    9.19
  -5  -2   5   37.84   11.81
   5   2  -5    0.37   41.40
  -4  -2   5   29.24   10.63
   4   2  -5   47.73   42.80
   3   2  -5   72.46   11.67
  -3  -2   5   40.61    9.99
   3   2  -5   82.99   35.99
   2   2  -5    3.48    6.93
   2   2  -5   18.14   24.23
  -2  -2   5    1.92    6.34
  -1  -2   5  149.11   11.01
  -1  -2   5  127.21    7.33
   1   2  -5  113.96    9.74
   0  -2   5  140.15    7.95
   0   2  -5  141.89   10.80
   0  -2   5  160.83   10.76
  -1   2  -5  416.46   16.37
  -1   2  -5  410.87   16.68
   1  -2   5  398.16   14.02
  -2   2  -5  109.36   11.71
  -2   2  -5   95.70    9.43
   2  -2   5  106.11   10.95
  -3   2  -5   27.34    8.36
  -3   2  -5    6.77    8.46
   3  -2   5   -0.37    5.84
  -4   2  -5   36.32   11.58
   4  -2   5   33.86   10.45
   5  -2   5   -6.75    8.07
  -5   2  -5   -5.67    9.50
  -6   2  -5    8.65   12.70
   6  -2   5   -9.86    9.33
   6   1  -5  -19.05   34.84
  -6  -1   5   11.29   10.26
  -5  -1   5  -15.09    6.35
   5   1  -5  -21.69   30.28
  -4  -1   5   12.05    6.58
  -4  -1   5    0.47    7.80
   4   1  -5   14.35   31.73
  -3  -1   5    0.34    6.54
   3   1  -5    5.83    3.27
   3   1  -5  -11.35   27.91
  -3  -1   5   -1.09    5.55
   2   1  -5  396.10   16.19
   2   1  -5  397.72   25.98
  -2  -1   5  406.99   16.26
   1   1  -5  121.18   15.81
   1   1  -5  127.83   10.07
  -1  -1   5  128.92   10.65
   0   1  -5   70.01    8.57
   0  -1   5   51.06    7.55
   0  -1   5   55.49    4.41
  -1   1  -5  229.17   11.28
   1  -1   5  231.26    9.60
  -1   1  -5  233.63   11.60
  -2   1  -5  325.21   12.53
  -2   1  -5  297.30   13.95
   2  -1   5  319.29   13.68
  -3   1  -5  204.73   10.45
   3  -1   5  190.81   13.01
  -3   1  -5  206.37   14.74
  -4   1  -5   78.92   13.60
   4  -1   5   92.43   13.26
  -5   1  -5   44.36   12.71
   5  -1   5   35.82   11.77
   6  -1   5    2.62    9.75
  -6   1  -5   -8.79    9.78
  -6   0   5    2.00    8.69
   6   0  -5  -28.81   36.66
   5   0  -5  -18.43   32.13
  -5   0   5    2.65    7.98
   4   0  -5    6.99   31.44
  -4   0   5    9.93    7.25
  -4   0   5   -1.97    7.08
   3   0  -5  523.48   33.17
  -3   0   5  503.35   19.15
   3   0  -5  484.51   13.90
  -3   0   5  479.07   20.18
   2   0  -5 2533.73   55.38
  -2   0   5 2500.24   36.34
  -2   0   5 2518.75   39.47
   2   0  -5 2477.97   23.18
   1   0  -5  638.32   26.32
   1   0  -5  621.66   17.48
  -1   0   5  634.17   15.74
   0   0  -5 1570.72   24.70
   0   0  -5 1617.91   31.51
   0   0   5 1615.49   22.21
   0   0  -5 1625.41   16.87
  -1   0  -5  406.58   12.39
  -1   0  -5  375.52   11.22
  -1   0  -5  430.14   12.05
  -2   0  -5   28.33    4.82
   2   0   5    9.22   13.52
  -2   0  -5   20.93    5.83
  -2   0  -5   16.19    5.97
  -3   0  -5  142.86   11.78
   3   0   5  154.32   18.70
   3   0   5  155.68   11.15
   4   0   5   11.88   26.99
  -4   0  -5    7.65    8.11
   4   0   5    8.33    6.93
   5   0   5   16.07    8.40
  -5   0  -5   -9.14    6.45
  -6   0  -5   18.67   10.57
   6   0   5   19.24   10.72
   7   0   5   -5.76   11.44
  -6   1   5    7.48    9.41
   6  -1  -5   25.69   35.80
  -5   1   5   35.75   11.24
   5  -1  -5   38.69   36.49
   4  -1  -5   -7.98    7.50
   4  -1  -5   18.12   30.43
  -4   1   5   -8.66    6.32
  -4   1   5   16.83    8.91
  -3   1   5    8.67    6.16
  -3   1   5   -1.33    5.85
   3  -1  -5   15.18   25.72
   3  -1  -5   -1.69    6.33
   2  -1  -5   28.21   22.53
  -2   1   5   11.18    6.27
  -2   1   5   15.84    5.88
   2  -1  -5   -1.64    6.26
   1  -1  -5  702.51   15.01
   1  -1  -5  722.77   27.00
  -1   1   5  700.70   14.31
  -1   1   5  710.66   19.26
   0  -1  -5  108.90   14.72
   0   1   5  102.45    6.46
   0   1   5  115.15    7.91
   0  -1  -5  107.47    6.37
  -1  -1  -5  103.78    6.82
  -1  -1  -5  102.98    6.24
   1   1   5  100.52    6.31
  -2  -1  -5   78.07    7.01
  -2  -1  -5   82.75    7.71
   2   1   5   94.82   12.20
  -3  -1  -5   13.08    5.99
   3   1   5   23.80   20.67
  -3  -1  -5    2.64    5.45
   4   1   5   38.58   29.80
  -4  -1  -5   62.35   11.64
   5   1   5    0.54    5.33
  -5  -1  -5   -3.21    6.63
   5   1   5   14.58   34.59
   6   1   5   20.03   39.78
   6   1   5   13.39    9.27
  -6  -1  -5    5.83    8.60
   7   1   5   10.69   10.87
  -6   2   5   14.72   10.90
  -5   2   5   15.25    9.44
   5  -2  -5   48.30   32.68
   4  -2  -5  114.72   15.08
   4  -2  -5  162.55   39.54
  -4   2   5   85.99   12.54
  -4   2   5  119.99   15.47
  -3   2   5   32.57    8.73
  -3   2   5   37.41   10.45
   3  -2  -5   65.07   30.21
   3  -2  -5   30.82   11.04
   2  -2  -5  230.30   15.14
   2  -2  -5  237.31   21.24
  -2   2   5  234.80   11.35
  -2   2   5  227.04   14.07
  -1   2   5  777.35   22.15
   1  -2  -5  778.14   27.98
  -1   2   5  805.12   14.11
   1  -2  -5  795.48   20.86
   0  -2  -5  442.13   12.97
   0  -2  -5  448.27   21.08
   0   2   5  450.90   15.18
  -1  -2  -5 1076.65   20.12
   1   2   5 1103.38   20.07
  -1  -2  -5 1101.95   15.46
  -2  -2  -5   71.86    6.59
  -2  -2  -5   81.52    8.39
   2   2   5  110.65   23.86
   3   2   5   50.38   22.88
  -3  -2  -5   53.67    8.63
  -3  -2  -5   49.84    8.18
   4   2   5   22.74   24.65
  -4  -2  -5    6.77    7.19
  -4  -2  -5    7.00    7.02
   5   2   5  -12.03   27.16
  -5  -2  -5    6.84    8.18
  -5  -2  -5    8.98    7.21
   6   2   5   -6.18   32.48
  -6  -2  -5   18.57    9.73
   6   2   5   56.31   12.22
   7   2   5    6.47    9.74
  -5   3   5   19.20   10.01
  -4   3   5   14.83   10.78
   4  -3  -5   23.76   12.47
  -4   3   5   23.55    9.10
   4  -3  -5   40.49   28.36
  -3   3   5   30.31    8.73
   3  -3  -5   40.40   14.21
   3  -3  -5   36.02   29.31
  -3   3   5   27.69   10.40
   2  -3  -5  193.00   20.70
  -2   3   5  193.30   14.44
   2  -3  -5  211.24   19.44
  -2   3   5  203.52   10.96
   1  -3  -5  352.11   22.19
  -1   3   5  374.85    9.78
   1  -3  -5  387.48   19.20
  -1   3   5  351.73   16.94
   0   3   5   22.96    7.66
   0  -3  -5   23.87   16.18
   0  -3  -5   27.24    7.09
  -1  -3  -5   63.32    4.52
  -1  -3  -5   67.21    7.99
   1   3   5   77.44    8.52
   1   3   5  112.23   24.36
   2   3   5   92.49    7.32
  -2  -3  -5   89.56    8.34
  -2  -3  -5   94.16    7.56
   2   3   5  120.53   25.70
  -3  -3  -5    1.17    4.72
   3   3   5    9.62   20.07
  -3  -3  -5   11.23    5.72
  -4  -3  -5   11.09    6.95
   4   3   5   26.17   25.49
  -4  -3  -5   11.01    6.70
  -5  -3  -5    6.65    7.58
   5   3   5   14.09   23.81
  -5  -3  -5    4.38    6.65
   6   3   5   15.49   31.34
  -6  -3  -5    4.09    8.84
   7   3   5  -52.96   35.87
   5  -4  -5  -19.19   14.61
  -4   4   5   69.42   17.24
   4  -4  -5   51.20   16.78
   3  -4  -5  127.05   21.20
  -3   4   5  144.53   19.05
  -3   4   5  130.54   12.84
  -2   4   5   73.08   13.48
  -2   4   5   56.92    8.91
   2  -4  -5   81.68   19.14
  -1   4   5   22.37    4.99
   1  -4  -5   32.66   13.48
  -1   4   5   24.58    9.02
   1  -4  -5   35.45   18.59
   0  -4  -5    8.75   15.49
   0   4   5    4.16    6.67
   0  -4  -5   -5.61    6.98
  -1  -4  -5    5.08    2.91
  -1  -4  -5    6.70    6.21
   1   4   5    7.63    6.74
   1   4   5    8.76   15.97
   2   4   5    7.09   16.63
   2   4   5    2.16    5.69
  -2  -4  -5   -1.24    4.72
  -2  -4  -5   -0.13    3.59
  -3  -4  -5  130.70   10.33
   3   4   5  132.39   18.23
  -3  -4  -5  137.74   11.03
   4   4   5   62.45   27.15
  -4  -4  -5   74.40   11.08
  -4  -4  -5   57.23   10.65
  -5  -4  -5    3.50    6.81
  -5  -4  -5   -5.63    6.42
   5   4   5   23.85   24.11
  -6  -4  -5    5.78    7.19
  -6  -4  -5    0.97    7.10
   6   4   5   22.77   34.79
   5  -5  -5  -25.07   17.18
   4  -5  -5    2.25   17.72
  -4   5   5   26.27   14.11
   3  -5  -5    3.61   16.52
  -3   5   5   14.20   12.06
  -2   5   5  158.19   20.46
   2  -5  -5  100.01   22.91
  -1   5   5  192.64   16.71
   1  -5  -5  249.31   21.32
   0  -5  -5  146.51   19.84
   0  -5  -5  165.38   16.21
   0   5   5  143.92   13.97
   1   5   5   97.54   24.40
  -1  -5  -5   66.63    6.02
   1   5   5  124.27   15.12
  -1  -5  -5   79.78   11.45
   2   5   5   36.89   22.19
   2   5   5   16.23    8.26
  -2  -5  -5   13.26    7.58
  -2  -5  -5   16.87    5.37
  -3  -5  -5    6.88    6.39
  -3  -5  -5    8.75    6.11
   3   5   5   34.09   23.28
  -4  -5  -5   -4.75    5.20
  -4  -5  -5    7.93    6.11
   4   5   5   10.03   24.80
  -5  -5  -5   24.48    9.39
   5   5   5   17.41   26.36
  -5  -5  -5   21.66    8.56
   6   5   5  -18.24   30.90
  -6  -5  -5    2.83    8.10
  -6  -5  -5   13.62    8.53
   5  -6  -5  -13.06   21.31
   4  -6  -5   26.50   19.71
  -4   6   5    4.82   15.00
  -3   6   5   28.60   13.72
   3  -6  -5   23.95   19.71
  -2   6   5   27.40   13.77
   2  -6  -5   46.80   19.16
   1  -6  -5   19.34   15.57
  -1   6   5    7.18   10.90
   0   6   5   81.23   23.01
   0   6   5   46.34   12.87
   0  -6  -5   33.86   13.10
  -1  -6  -5   78.74   13.12
   1   6   5   73.49   14.11
   1   6   5  122.17   27.81
   2   6   5   56.04   12.70
  -2  -6  -5   37.24   10.10
   2   6   5   42.55   24.56
  -3  -6  -5   -0.45    5.70
   3   6   5   15.11   21.03
   4   6   5   16.85   29.12
  -4  -6  -5   12.33    7.29
  -4  -6  -5    8.22    7.75
   5   6   5   34.69   30.63
  -6  -6  -5   -1.45    8.75
   6   6   5   37.81   39.89
   4  -7  -5    2.70   20.67
  -4   7   5   19.00   16.89
  -3   7   5   16.74   14.68
   3  -7  -5    9.35   17.83
  -2   7   5   28.58   13.78
   2  -7  -5   20.50   17.26
  -1   7   5  105.44   19.08
   1  -7  -5  102.65   18.53
   0  -7  -5   -5.04   10.29
   0   7   5   -5.16   10.26
   1   7   5   23.00   19.29
  -1  -7  -5   28.78   11.18
   1   7   5   23.28   12.43
   2   7   5   19.24   10.17
   2   7   5   29.15   20.05
  -2  -7  -5   14.70    8.44
   3   7   5   50.65   25.91
  -3  -7  -5   23.38    8.61
   4   7   5   49.75   30.83
   5   7   5   21.14   28.65
  -5  -7  -5    5.12    6.65
  -3   8   5   12.87   14.11
   3  -8  -5   29.96   20.80
  -2   8   5   19.75   13.45
   2  -8  -5   19.44   15.90
  -1   8   5   15.91   13.75
   1  -8  -5   -2.95   11.70
   0  -8  -5   67.70   15.91
   0   8   5   83.89   18.06
  -1  -8  -5   30.83   11.53
   1   8   5   14.96   12.51
  -2  -8  -5   13.02    8.53
   2   8   5   14.45   17.73
   2   8   5   11.16   10.80
   3   8   5    7.46   18.84
  -3  -8  -5   25.17    9.50
   4   8   5   18.39   24.99
  -4  -8  -5   25.78    9.28
   5   8   5   -5.47   28.54
   2  -9  -5   40.04   17.75
  -1   9   5    4.00   15.11
   1  -9  -5    4.56   13.50
   0  -9  -5   21.65   12.96
   0   9   5   10.54   13.50
  -1  -9  -5   31.51   11.50
   1   9   5   30.62   14.92
   2   9   5    0.00   11.51
  -2  -9  -5   17.91    9.00
  -3  -9  -5   17.82    8.02
  -4  -9  -5    8.64    7.60
   4   9   5   33.05   24.53
   0 -10  -5   11.83   12.72
   1  10   5   28.19   15.48
  -1 -10  -5   38.66   12.47
  -2 -10  -5   16.00    8.94
  -3 -10  -5   14.17    8.13
  -3  -9   6   11.54   10.60
   2   9  -6   36.38   14.88
  -2  -9   6   13.24   11.47
   1   9  -6   14.66   15.23
   1  -9   6   27.15   19.98
  -4  -8   6   25.71   10.50
  -3  -8   6   19.51    9.65
   3   8  -6   32.53   12.55
  -2  -8   6    7.66   10.08
   2   8  -6   18.86   12.85
   1   8  -6   21.10   12.31
  -1  -8   6    6.87   11.12
   1   8  -6   21.07   12.31
   0  -8   6   11.46   12.56
   0  -8   6   -1.98   13.03
   0   8  -6   25.28   14.89
  -1   8  -6   21.64   14.87
   1  -8   6   -3.47   11.94
   1  -8   6  -12.45   16.15
  -2   8  -6    6.05   14.21
   2  -8   6   -7.54   19.10
  -5  -7   6    2.58    9.69
   5   7  -6  -11.43   25.76
  -4  -7   6   22.61    9.50
  -3  -7   6    5.11    8.55
   3   7  -6   27.70   11.61
   2   7  -6   16.79   11.19
  -2  -7   6    5.21   10.25
   1   7  -6   13.41   11.19
  -1  -7   6   15.14   12.09
   0  -7   6   19.72   15.20
   0   7  -6   14.36   11.90
   0  -7   6   -3.58   11.91
   1  -7   6   38.11   18.61
  -1   7  -6   47.34   16.23
   1  -7   6   14.13   11.27
   2  -7   6   12.15   17.22
  -2   7  -6   17.94   13.38
  -3   7  -6    4.59   15.35
   3  -7   6  -15.34   16.09
  -3   7  -6   44.97   15.49
   5   6  -6  -17.46   27.91
  -5  -6   6   26.19    9.41
   4   6  -6    4.53   26.50
  -4  -6   6   13.04    9.07
   3   6  -6  -20.86   21.11
   3   6  -6   22.92    9.05
  -3  -6   6   -2.36    8.47
   2   6  -6  160.35   15.62
  -1  -6   6   46.74   12.10
  -1  -6   6   19.72   11.68
   1   6  -6   43.28   14.08
   0  -6   6   65.27   17.79
   0   6  -6   57.50   15.47
   0  -6   6   43.31   14.17
  -1   6  -6    9.15   13.18
   1  -6   6   -8.63   13.37
   1  -6   6   -1.83    7.97
  -2   6  -6   64.59   16.62
   2  -6   6   88.91   18.15
  -2   6  -6  105.59   18.76
   3  -6   6    3.40   12.79
  -3   6  -6    3.59   11.64
  -3   6  -6   30.58   13.96
  -4   6  -6  -12.70   13.29
   4  -6   6   -1.55   15.51
   5   5  -6   -8.12   39.17
  -5  -5   6   20.37    9.57
   4   5  -6   -6.27   33.69
  -4  -5   6    7.78    8.03
   3   5  -6   35.01   25.74
  -3  -5   6   68.46   13.54
   3   5  -6   83.94   13.68
   2   5  -6  374.34   21.38
   1   5  -6   42.93   13.32
  -1  -5   6   41.87   12.09
  -1  -5   6   19.30   11.59
   0  -5   6   34.86   12.79
   0  -5   6   37.99   15.95
   0   5  -6   40.46   12.90
   1  -5   6   32.47   13.76
  -1   5  -6   37.91   13.00
  -2   5  -6    5.67   10.82
  -2   5  -6   16.32   10.85
   2  -5   6   -5.93    9.84
   3  -5   6   21.33   12.74
  -3   5  -6   28.85   13.23
  -3   5  -6   42.28   13.82
   4  -5   6    0.65   12.51
  -4   5  -6   -1.39   13.28
  -5   5  -6   -9.80   15.75
  -6  -4   6    9.21   10.14
   6   4  -6  -58.34   46.88
  -5  -4   6   19.97    9.00
   5   4  -6  -19.15   45.69
  -4  -4   6   80.89   14.29
   4   4  -6   49.71   40.95
  -3  -4   6   39.64   11.71
   3   4  -6    3.76   29.35
   3   4  -6   33.34   10.92
   2   4  -6   69.28   13.13
   2   4  -6   25.46   23.89
  -2  -4   6   39.62   11.69
  -1  -4   6   -6.54    8.21
  -1  -4   6    6.08    9.14
   1   4  -6   -1.13    8.76
   0  -4   6   16.61    9.61
   0   4  -6   23.50    9.83
   0  -4   6   18.55   10.42
  -1   4  -6  119.69   16.18
   1  -4   6  105.53   14.49
  -1   4  -6   99.70   15.57
   2  -4   6   12.22    9.98
  -2   4  -6   22.96   11.07
  -2   4  -6    9.40   10.91
  -3   4  -6   12.47   11.10
   3  -4   6    3.00    9.68
  -3   4  -6   17.35   11.23
  -4   4  -6    9.51   11.57
   4  -4   6    0.32   10.41
   5  -4   6  -15.69    9.55
  -5   4  -6    8.50   13.23
   6   3  -6  -31.38   47.52
  -6  -3   6   14.69    9.99
   5   3  -6  -20.95   42.76
  -5  -3   6   -0.53    7.73
   4   3  -6  -32.44   39.75
  -4  -3   6   -0.38    7.47
  -3  -3   6   -0.65    7.75
   3   3  -6   19.36    9.89
   3   3  -6   29.33   34.02
  -2  -3   6   11.48    8.49
   2   3  -6   23.49   24.00
   2   3  -6   12.88    8.60
   1   3  -6  500.07   21.02
  -1  -3   6  543.83   21.31
  -1  -3   6  495.34   15.79
   0  -3   6  272.85   15.84
   0  -3   6  265.32   12.99
   0   3  -6  251.22   15.59
  -1   3  -6   49.23   10.55
  -1   3  -6   66.21   11.84
   1  -3   6   58.56    9.35
   2  -3   6    5.84    7.33
  -2   3  -6   21.71    9.75
  -2   3  -6   17.62    9.56
   3  -3   6   16.31    8.91
  -3   3  -6   12.40    8.69
  -3   3  -6    8.32   10.06
  -4   3  -6   30.71   12.15
   4  -3   6   13.68    9.92
   5  -3   6   17.92   10.68
  -5   3  -6   -3.28   11.64
   6   2  -6   40.74   43.44
  -6  -2   6    6.00    9.31
   5   2  -6    4.88   36.73
  -5  -2   6   -3.14    7.73
  -4  -2   6   -7.77    6.67
   4   2  -6   -0.67   36.53
   3   2  -6   20.54    9.89
   3   2  -6   85.78   38.25
  -3  -2   6   17.10    8.98
   2   2  -6  135.88   14.35
   2   2  -6  140.32   32.52
  -2  -2   6   98.25   12.33
  -1  -2   6  562.62   12.54
  -1  -2   6  592.39   20.34
   1   2  -6  587.43   26.23
   1   2  -6  592.89   20.20
   0   2  -6  108.65   11.85
   0  -2   6   90.37   10.38
   0  -2   6   83.35    7.08
   1  -2   6  510.62   15.96
  -1   2  -6  489.28   18.76
  -1   2  -6  507.08   18.99
   2  -2   6 1271.06   29.16
  -2   2  -6 1219.40   28.75
  -2   2  -6 1215.81   30.20
   3  -2   6   43.16   10.16
  -3   2  -6   28.74   10.30
  -3   2  -6   43.24    9.45
  -4   2  -6    9.14    9.57
   4  -2   6   11.78    8.60
   5  -2   6    8.47    8.58
  -5   2  -6    8.95   10.69
   6  -2   6   -2.34   10.17
  -6   2  -6    2.59   13.32
   6   1  -6    3.30   40.08
  -6  -1   6   13.81   10.25
  -5  -1   6    9.15    8.19
   5   1  -6   21.61   33.49
   4   1  -6   24.71   34.50
  -4  -1   6   28.94    8.50
  -4  -1   6   14.64    9.10
   3   1  -6   74.52   33.46
  -3  -1   6   58.37   10.89
   2   1  -6   -2.80   24.28
   2   1  -6    5.78    7.05
  -2  -1   6    2.42    5.85
   1   1  -6  201.45   18.37
   1   1  -6  201.97   12.42
  -1  -1   6  186.96   11.32
   0  -1   6   94.97    5.38
   0   1  -6   82.36    8.15
   0  -1   6   86.98    8.52
  -1   1  -6   19.79    6.64
   1  -1   6   10.60    3.82
  -1   1  -6    9.89    6.35
  -2   1  -6   74.13    9.75
   2  -1   6   84.42    9.35
  -2   1  -6   69.23    7.32
  -3   1  -6   10.35    5.56
   3  -1   6   -2.12    4.50
  -3   1  -6    3.13    7.48
   4  -1   6   16.08    8.61
  -4   1  -6   10.48    9.60
   5  -1   6   16.85    9.74
  -5   1  -6    8.31    8.56
  -6   1  -6    5.40   11.56
   6  -1   6    4.73    9.34
  -6   0   6   10.26   10.92
   6   0  -6   32.55   39.17
  -5   0   6   11.07    9.08
   5   0  -6    0.70   30.77
  -4   0   6   28.10    9.36
   4   0  -6   31.79   34.01
  -4   0   6   27.90   10.49
  -3   0   6   12.19    6.62
  -3   0   6    3.91    6.71
   3   0  -6   15.30   26.56
   3   0  -6    1.89    5.53
   2   0  -6   98.76    8.58
  -2   0   6  125.75   10.26
  -2   0   6  128.42    9.97
   1   0  -6  806.54   21.40
   1   0  -6  847.70   30.90
  -1   0   6  843.74   19.03
   0   0  -6  165.97   15.24
   0   0  -6  177.09    9.93
   0   0  -6  170.51    6.59
   0   0   6  161.66    9.35
  -1   0  -6   18.62    6.01
  -1   0  -6   54.56   15.74
  -1   0  -6   33.99    6.32
  -1   0  -6   30.11    5.43
  -2   0  -6  164.44    7.93
  -2   0  -6  169.88   10.71
  -2   0  -6  158.83   10.05
   2   0   6  150.21   13.01
   3   0   6   28.90   19.93
  -3   0  -6   32.27    8.84
   3   0   6   29.44    7.74
   4   0   6    8.35    6.89
   4   0   6   25.54   25.37
  -4   0  -6   -3.32    7.68
   5   0   6    7.24    7.27
  -5   0  -6   -4.60    7.35
  -6   0  -6    4.28    9.51
   6   0   6   11.68    9.91
   6  -1  -6    3.80   37.87
  -6   1   6   12.50    9.28
   5  -1  -6  -14.11   31.36
  -5   1   6    6.97    9.00
  -4   1   6   -8.92    6.60
  -4   1   6    9.59    8.63
   4  -1  -6    1.21   32.29
   3  -1  -6   79.92   10.76
  -3   1   6   70.29   10.93
   3  -1  -6  122.96   35.16
  -3   1   6  100.45   12.68
  -2   1   6  141.43   10.03
  -2   1   6  158.64   11.18
   2  -1  -6  156.17   12.19
   2  -1  -6  161.95   20.67
   1  -1  -6    1.50   18.45
   1  -1  -6   -3.28    4.15
  -1   1   6   -2.47    4.38
  -1   1   6    1.06    3.97
   0   1   6 1670.33   28.99
   0  -1  -6 1698.50   36.49
   0   1   6 1692.76   20.94
   0  -1  -6 1671.80   20.57
  -1  -1  -6    2.31   14.05
  -1  -1  -6    1.98    3.58
  -1  -1  -6    1.59    3.83
  -2  -1  -6  279.23   12.44
  -2  -1  -6  284.71   12.11
   2   1   6  240.53   17.94
  -3  -1  -6   61.76    9.50
   3   1   6   81.14   24.55
  -3  -1  -6   49.92    9.38
  -4  -1  -6    2.82    6.67
  -4  -1  -6    2.87    7.73
   4   1   6    1.96   24.85
   5   1   6   43.95   32.79
  -5  -1  -6   27.11   10.65
   5   1   6   47.86   10.95
  -6  -1  -6   14.12    9.80
   6   1   6   32.79   10.57
   7   1   6   -1.33    9.96
  -6   2   6   18.36   10.34
   5  -2  -6   -6.54   27.06
  -5   2   6   11.42    8.68
   4  -2  -6    2.86   26.36
  -4   2   6   18.91   10.73
  -4   2   6   11.77    7.68
   4  -2  -6    6.93   11.29
  -3   2   6   27.26    8.75
   3  -2  -6    8.92   11.13
  -3   2   6    9.96    7.45
   3  -2  -6   19.55   28.06
  -2   2   6  560.30   16.43
   2  -2  -6  510.66   28.98
   2  -2  -6  509.34   20.56
  -2   2   6  512.44   20.75
   1  -2  -6  130.25   10.22
   1  -2  -6  150.31   17.36
  -1   2   6  166.40   11.23
  -1   2   6  157.06    7.14
   0  -2  -6   80.82    7.37
   0   2   6   85.27    8.13
  -1  -2  -6   15.85    4.97
   1   2   6   16.40    5.23
  -1  -2  -6   30.56   18.01
  -1  -2  -6   22.08    3.97
  -2  -2  -6   15.31    5.49
  -2  -2  -6   13.42    4.79
   2   2   6    2.16   15.52
  -3  -2  -6  164.69   11.72
  -3  -2  -6  153.98   11.44
   3   2   6  145.59   18.17
   4   2   6    2.11   23.13
  -4  -2  -6    9.99    7.47
  -4  -2  -6   13.76    7.63
   5   2   6   29.80   25.34
  -5  -2  -6    6.29    8.09
  -5  -2  -6   10.12    7.11
  -6  -2  -6   21.59    9.99
   6   2   6   35.77   35.86
   6   2   6   19.38    8.82
   7   2   6   18.95    9.52
  -5   3   6    0.47    8.31
   4  -3  -6  130.10   36.47
  -4   3   6   81.45   12.64
   4  -3  -6   78.16   15.73
  -4   3   6   98.33   15.69
  -3   3   6    7.54    9.65
   3  -3  -6    0.33   14.19
  -3   3   6   -4.28    6.38
   3  -3  -6   30.31   30.89
  -2   3   6   57.45    7.79
   2  -3  -6   70.95   15.76
   2  -3  -6  130.02   32.56
  -2   3   6   74.87   12.11
  -1   3   6    9.17    6.86
   1  -3  -6    4.21    8.86
   1  -3  -6   -4.39   17.64
   0  -3  -6 1957.04   44.20
   0   3   6 1938.94   36.05
   0  -3  -6 1944.34   30.36
   1   3   6  617.54   18.56
  -1  -3  -6  640.51   11.24
  -1  -3  -6  647.55   17.93
   2   3   6  166.36   18.38
  -2  -3  -6  164.94   10.57
   2   3   6  163.72    8.73
  -2  -3  -6  157.75    8.76
   3   3   6   -2.15   19.31
  -3  -3  -6    2.61    5.21
  -3  -3  -6    6.14    5.35
  -4  -3  -6   -2.83    5.91
  -4  -3  -6    8.38    6.49
   4   3   6   18.79   21.23
   5   3   6   30.40   24.74
  -5  -3  -6    1.71    6.23
  -5  -3  -6   -0.71    6.92
  -6  -3  -6    4.06    8.28
   6   3   6   -1.79   33.44
   7   3   6   19.43    9.37
  -4   4   6   88.75   17.61
   4  -4  -6   52.71   18.33
  -3   4   6  138.36   15.08
   3  -4  -6  170.35   40.72
   3  -4  -6  158.57   23.17
  -2   4   6   27.03    7.15
   2  -4  -6   35.68   26.70
  -2   4   6   23.07    9.18
   2  -4  -6   19.40   17.22
   1  -4  -6  188.85   17.90
   1  -4  -6  146.51   18.16
  -1   4   6  128.87   12.21
   0  -4  -6  117.90   12.64
   0  -4  -6  114.45   23.77
   0   4   6  123.03   13.38
  -1  -4  -6   77.93    9.98
   1   4   6  114.49   26.01
   1   4   6   84.15   11.13
  -2  -4  -6   40.14    6.12
   2   4   6   38.98    7.94
  -2  -4  -6   31.84    7.80
   2   4   6   35.55   21.93
   3   4   6    3.80   19.56
  -3  -4  -6   -3.95    4.65
  -3  -4  -6    2.19    5.15
   4   4   6   -4.36   17.61
  -4  -4  -6   17.92    7.73
  -4  -4  -6   20.96    8.14
  -5  -4  -6    4.67    6.80
  -5  -4  -6    4.37    6.42
   5   4   6   -2.28   22.70
  -6  -4  -6    7.07    8.33
   6   4   6   11.73   30.30
  -6  -4  -6    0.58    6.97
   5  -5  -6  -42.47   17.12
   4  -5  -6   -2.88   17.15
  -4   5   6   18.00   14.01
  -3   5   6   41.87   15.08
   3  -5  -6   24.56   17.63
   2  -5  -6   59.84   20.71
  -2   5   6   65.67   15.03
  -1   5   6   12.17    9.10
   1  -5  -6   -4.60   21.19
   1  -5  -6    3.55   12.82
   0  -5  -6  115.46   29.29
   0  -5  -6   88.79   13.69
   0   5   6  112.36   15.81
   1   5   6  161.47   19.31
  -1  -5  -6  181.11   13.95
   1   5   6  178.99   14.23
   2   5   6   12.71   20.61
  -2  -5  -6   -2.69    5.83
   2   5   6   -0.14    6.51
  -2  -5  -6   -1.15    3.56
  -3  -5  -6   51.82   10.11
  -3  -5  -6   55.33    8.44
   3   5   6   43.00   23.42
  -4  -5  -6   17.60    7.59
   4   5   6   -1.61   17.92
  -4  -5  -6   31.21    9.19
   5   5   6   15.11   28.30
  -5  -5  -6    8.20    7.61
  -5  -5  -6   24.75    8.17
  -6  -5  -6    8.57    8.12
  -6  -5  -6   12.08    8.59
   6   5   6    3.71   31.10
   5  -6  -6   21.54   23.16
  -4   6   6   26.13   17.20
   4  -6  -6  -10.55   17.91
  -3   6   6   27.41   14.53
   3  -6  -6    8.17   18.53
   2  -6  -6   48.13   18.81
  -2   6   6   37.24   14.15
  -1   6   6    6.74   10.49
   1  -6  -6   -1.92   13.71
   0   6   6    5.79    9.36
   0  -6  -6   26.16   12.56
  -1  -6  -6   17.17    9.71
   1   6   6   20.69   10.10
   1   6   6   28.69   20.85
   2   6   6   86.22   28.05
   2   6   6  128.57   13.62
  -2  -6  -6  128.41   14.76
   3   6   6    1.10   23.48
  -3  -6  -6  -11.44    5.38
  -4  -6  -6  125.96   15.10
   4   6   6   32.23   25.67
  -5  -6  -6   17.56    8.65
   5   6   6   44.52   31.60
  -6  -6  -6    0.58    7.53
   6   6   6   35.17   32.65
   4  -7  -6   -4.48   19.15
  -4   7   6   -5.82   16.07
   3  -7  -6    9.71   17.71
  -3   7   6   26.83   14.06
  -2   7   6    2.52   12.03
   2  -7  -6   35.70   18.03
   1  -7  -6   54.41   15.30
  -1   7   6   77.28   17.56
   0   7   6  163.77   21.53
   0  -7  -6  162.39   19.14
  -1  -7  -6   69.11   12.65
   1   7   6   94.06   26.83
   1   7   6   64.20   14.91
  -2  -7  -6   12.06    7.99
   2   7   6    6.67    9.33
   2   7   6   21.16   18.85
   3   7   6   11.09   21.60
  -3  -7  -6   15.31    7.65
   4   7   6   33.08   26.44
   5   7   6   29.16   33.03
  -5  -7  -6    2.04    6.14
   3  -8  -6   12.92   17.70
  -3   8   6   -5.15   13.10
  -2   8   6   29.35   15.22
   2  -8  -6   25.46   15.50
  -1   8   6   30.19   15.27
   1  -8  -6   45.66   15.35
   0   8   6    9.02   11.97
   0  -8  -6   -2.27   10.84
  -1  -8  -6   17.04    9.97
   1   8   6   23.81   13.16
  -2  -8  -6   11.34    8.61
   2   8   6   11.77   18.11
   2   8   6    8.97   10.48
   3   8   6   22.84   20.16
  -3  -8  -6   32.53   10.02
  -4  -8  -6    8.91    5.95
   4   8   6    6.78   23.06
  -5  -8  -6   -1.65    7.18
   5   8   6   29.55   30.64
   2  -9  -6    3.25   13.92
   1  -9  -6   19.27   12.61
  -1   9   6   41.92   17.68
   0  -9  -6   15.85   11.69
   0   9   6   14.95   13.32
   1   9   6   21.59   14.04
  -1  -9  -6    6.81    8.70
   2   9   6   18.96   12.56
  -2  -9  -6   -2.48    7.56
   3   9   6   16.31   21.51
  -3  -9  -6   13.95    7.54
   4   9   6    1.14   23.23
  -4  -9  -6   37.64   10.50
   1  10   6   14.08   14.33
  -1 -10  -6   13.44   10.04
  -2 -10  -6   26.36    9.52
  -3 -10  -6   -1.47    6.96
  -2  -9   7   15.13   12.71
  -1  -9   7    7.38   14.45
  -3  -8   7   22.20   10.70
   3   8  -7   19.57   12.65
   2   8  -7   40.69   13.87
  -2  -8   7   10.64   11.38
  -1  -8   7    2.28   11.11
   1   8  -7   21.37   14.50
   0   8  -7   15.70   14.12
   0  -8   7    7.23   13.00
   1  -8   7   11.91   18.14
  -1   8  -7   -0.63   12.99
   1  -8   7   11.60   13.12
   2  -8   7    3.23   20.69
   2  -8   7   -2.14   10.02
   5   7  -7  -15.11   29.83
  -4  -7   7   13.95    8.48
   3   7  -7   36.55   12.08
  -3  -7   7    1.23    8.82
   2   7  -7   15.58   11.77
  -2  -7   7   10.12   11.13
   1   7  -7   47.28   16.25
  -1  -7   7   -4.21   10.29
   0  -7   7   12.33   13.42
   0   7  -7   46.51   14.62
   0  -7   7   29.99   16.55
   1  -7   7    8.72   11.23
  -1   7  -7   24.08   12.63
   1  -7   7    7.13   16.88
   2  -7   7   14.36    9.91
  -2   7  -7   31.32   15.43
   2  -7   7    5.56   16.94
   3  -7   7  -33.02   14.88
  -3   7  -7   31.25   16.30
  -3   7  -7  -10.57   14.64
  -5  -6   7   31.83   10.86
   5   6  -7   -3.59   31.11
  -4  -6   7   13.09    8.10
   4   6  -7   -8.17   25.64
  -3  -6   7   -6.07    8.72
   3   6  -7    9.44    9.46
   2   6  -7   34.21   13.35
  -2  -6   7   17.50   11.83
   1   6  -7   75.61   15.83
  -1  -6   7   21.70   12.14
   0   6  -7   31.35   12.84
   0  -6   7   21.14   12.88
   0  -6   7   19.30   15.25
  -1   6  -7   12.58   11.81
   1  -6   7  -11.65   11.88
   1  -6   7    5.88    9.38
   2  -6   7   28.32   15.20
  -2   6  -7   17.81   14.18
  -2   6  -7   44.60   15.28
  -3   6  -7   16.57   13.87
   3  -6   7   -2.22   13.38
  -3   6  -7    8.54   14.20
  -4   6  -7   17.98   15.15
   4  -6   7  -19.67   13.69
   5   5  -7  -27.71   37.87
  -5  -5   7    7.69    8.67
  -4  -5   7    9.62    9.48
   4   5  -7    8.87   30.39
  -3  -5   7  120.15   16.59
   3   5  -7  113.53   15.49
  -2  -5   7   43.67   13.65
   2   5  -7   38.00   12.54
   2   5  -7   14.56   21.86
  -1  -5   7   11.81   11.73
   1   5  -7   37.79   12.66
   0  -5   7    2.70   11.41
   0   5  -7    0.45    9.35
   0  -5   7    2.00   13.83
   1  -5   7  207.15   19.01
  -1   5  -7  225.17   19.28
   2  -5   7   64.31   14.62
  -2   5  -7   94.83   17.58
  -2   5  -7   98.56   16.96
  -3   5  -7    8.52   11.89
   3  -5   7  -13.72    9.72
  -3   5  -7   -2.37   10.81
  -4   5  -7   13.50   13.43
   4  -5   7  -11.95   11.13
  -6  -4   7    0.52    9.87
   5   4  -7  -20.96   45.79
  -5  -4   7    8.33    8.68
   4   4  -7   -1.54   35.60
  -4  -4   7   23.82   10.62
  -3  -4   7   61.39   13.51
   3   4  -7  103.88   14.93
   3   4  -7   29.54   30.11
   2   4  -7    3.13   23.07
  -2  -4   7    2.73    9.75
   2   4  -7   11.79    8.50
  -1  -4   7   25.87   10.80
  -1  -4   7    6.74   10.34
   1   4  -7   13.78    8.93
   0   4  -7  136.25   14.21
   0  -4   7  153.23   15.77
   0  -4   7  126.51   16.06
  -1   4  -7   14.29   11.87
   1  -4   7    6.12    9.22
  -1   4  -7    9.17    9.94
  -2   4  -7  297.75   20.34
   2  -4   7  274.58   18.52
  -2   4  -7  271.10   19.48
  -3   4  -7   98.25   15.94
  -3   4  -7  101.38   16.53
   3  -4   7   83.03   14.67
   4  -4   7   12.08   10.56
  -4   4  -7    5.94   11.73
   5  -4   7    1.35   11.40
  -5   4  -7  -12.24   12.79
  -6  -3   7   -2.61    9.87
   6   3  -7    7.69   44.82
  -5  -3   7    4.23    7.25
   5   3  -7   -5.53   37.04
  -4  -3   7   17.53    9.80
   4   3  -7   20.89   39.66
  -3  -3   7   23.40   10.37
   3   3  -7   23.83   10.78
   3   3  -7    0.69   33.16
  -2  -3   7   19.08    9.65
   2   3  -7   21.95    9.82
   2   3  -7   24.51   25.97
   1   3  -7  149.31   13.32
  -1  -3   7  124.10   11.30
  -1  -3   7  154.05   14.05
   0   3  -7  159.03   13.17
   0  -3   7  145.16   13.48
   0  -3   7  152.77   11.37
   1  -3   7    1.57    5.75
  -1   3  -7    0.13    8.60
  -1   3  -7   -1.45    6.86
  -2   3  -7  131.06   15.24
  -2   3  -7   68.19   12.45
   2  -3   7   92.73   12.32
  -3   3  -7   63.56   12.73
  -3   3  -7   57.05   13.50
   3  -3   7   42.38   11.57
   4  -3   7    2.82    8.46
  -4   3  -7   -0.25    9.59
   5  -3   7    5.28    9.71
  -5   3  -7  -10.24   10.72
  -6  -2   7   27.85   11.10
   6   2  -7  -36.25   36.43
  -5  -2   7    0.97    8.52
   5   2  -7   -9.76   31.99
  -4  -2   7    7.15    8.89
   4   2  -7   27.55   36.86
   3   2  -7   34.33   33.96
  -3  -2   7   27.29   10.04
   3   2  -7   31.61   11.13
   2   2  -7   87.23   31.57
  -2  -2   7   76.17   11.67
   2   2  -7   66.56   12.40
   1   2  -7   43.55    9.86
  -1  -2   7   45.55    6.93
  -1  -2   7   48.87   10.02
   1   2  -7   30.03   21.63
   0  -2   7   -0.41    3.70
   0  -2   7    0.70    6.15
   0   2  -7   -2.34    5.76
  -1   2  -7  122.16   11.16
  -1   2  -7  149.19   11.70
   1  -2   7  131.97    9.22
  -2   2  -7   -0.87    8.01
   2  -2   7    8.89    5.63
  -2   2  -7   15.95    7.25
   3  -2   7   -6.01    5.05
  -3   2  -7    6.47    7.51
  -3   2  -7   -7.12    7.99
  -4   2  -7   48.15   12.71
   4  -2   7   54.13   12.64
  -5   2  -7   20.81   11.41
   5  -2   7   -3.99    8.14
   6  -2   7  -15.10    8.13
  -6   2  -7  -14.44   11.46
  -6  -1   7   10.55   10.44
   6   1  -7   36.10   40.00
   5   1  -7   12.87   32.07
  -5  -1   7   -4.25    7.83
  -4  -1   7   26.84    9.17
   4   1  -7   23.29   33.02
  -4  -1   7   11.90    9.56
  -3  -1   7   23.70    9.29
   3   1  -7   56.32   32.31
  -2  -1   7  521.05   19.56
   2   1  -7  558.02   31.16
   2   1  -7  530.09   20.68
  -1  -1   7   23.18    7.43
   1   1  -7   57.70   25.68
   1   1  -7   41.30    9.39
   0  -1   7  845.74   14.94
   0   1  -7  782.13   22.14
   0   1  -7  811.42   25.00
   0  -1   7  833.36   21.70
  -1   1  -7  428.76   16.62
  -1   1  -7  408.39   15.69
   1  -1   7  425.22   13.83
   2  -1   7  119.75    9.46
  -2   1  -7  118.72   10.68
  -2   1  -7  125.71    9.49
  -3   1  -7    4.94    7.30
   3  -1   7    7.57    5.60
  -3   1  -7   19.45    6.16
   4  -1   7    8.54    7.31
  -4   1  -7    1.81    8.89
  -5   1  -7    7.63    9.40
   5  -1   7   -3.56    6.41
   6  -1   7   21.90   11.05
  -6   1  -7   -1.89   10.91
   6   0  -7   25.67   39.29
  -6   0   7    9.86   10.24
   5   0  -7   44.15   36.27
  -4   0   7    5.11    7.57
  -4   0   7   -0.16    8.27
   4   0  -7   14.33   30.56
  -3   0   7   13.71    6.91
  -3   0   7    3.37    7.07
   3   0  -7   12.61   28.17
  -2   0   7   64.57   10.34
   2   0  -7  160.82   36.24
  -2   0   7   59.33    8.96
   1   0  -7   15.29   20.01
  -1   0   7   -1.38    5.18
   1   0  -7    8.75    6.77
   0   0  -7  170.52    6.67
   0   0   7  172.63   10.17
   0   0  -7  170.69   15.60
   0   0  -7  148.82   10.07
  -1   0  -7  115.48    9.11
  -1   0  -7  117.05    7.60
  -1   0  -7  107.20   12.24
  -1   0  -7   91.76    8.12
  -2   0  -7  165.29    9.18
  -2   0  -7  196.09   11.59
  -2   0  -7  160.65   10.29
   3   0   7   95.14   11.77
  -3   0  -7   60.63   10.78
   4   0   7    3.14    6.36
   4   0   7   -3.79   23.46
  -4   0  -7   -3.07    8.19
   5   0   7   12.61    7.83
  -5   0  -7   27.01   10.62
   6   0   7    0.58    7.88
  -6   0  -7    7.53   10.03
  -6   1   7   13.60   10.08
   6  -1  -7    6.32   30.95
   5  -1  -7   -6.05   28.33
  -5   1   7   29.12   10.61
   4  -1  -7    8.15   29.76
  -4   1   7   24.57    9.78
  -4   1   7   -1.48    7.12
   3  -1  -7    2.43   27.50
  -3   1   7   10.88    7.20
  -3   1   7    5.27    7.14
   3  -1  -7   -3.16    9.77
  -2   1   7   76.46    9.52
   2  -1  -7   92.23   10.55
   2  -1  -7  162.76   34.28
  -2   1   7   85.99   11.60
   1  -1  -7  193.97   19.76
  -1   1   7  190.76   12.18
  -1   1   7  196.42    9.41
   1  -1  -7  192.26    8.17
   0   1   7  110.93    9.07
   0  -1  -7  138.08   15.93
   0  -1  -7  115.36    6.80
   0   1   7  132.38    8.20
  -1  -1  -7  199.79    9.30
  -1  -1  -7  199.77   15.76
  -1  -1  -7  196.36    9.23
  -1  -1  -7  186.16    9.62
  -2  -1  -7   53.40    7.77
   2   1   7   25.42   15.44
  -2  -1  -7   71.54    8.38
  -2  -1  -7   66.61    5.76
   3   1   7   57.13   22.99
  -3  -1  -7   60.20    9.95
  -3  -1  -7   63.16   10.19
   4   1   7   19.56   25.48
  -4  -1  -7    9.49    8.42
  -4  -1  -7   10.98    7.51
  -5  -1  -7   10.10    9.28
   5   1   7   38.59   25.84
   5   1   7    7.70    6.18
   6   1   7   17.14    9.39
  -6  -1  -7    9.43    9.52
  -6   2   7   13.76   11.45
  -5   2   7   11.77    8.72
   5  -2  -7    6.29   27.56
  -4   2   7   17.17    8.40
   4  -2  -7   12.80   29.70
  -4   2   7    6.72   10.15
  -3   2   7   28.71    9.89
  -3   2   7   19.09    8.33
   3  -2  -7   14.09   13.09
   3  -2  -7   32.98   29.60
  -2   2   7  130.48   14.24
   2  -2  -7  119.46   14.81
   2  -2  -7  170.69   36.04
  -2   2   7   96.21    8.73
   1  -2  -7  454.37   14.74
  -1   2   7  446.98   18.51
   1  -2  -7  470.33   25.90
  -1   2   7  469.90   11.86
   0   2   7   81.60    8.46
   0  -2  -7   90.52    8.02
  -1  -2  -7   36.58    4.91
   1   2   7   50.10    7.54
  -1  -2  -7   34.88    6.30
  -1  -2  -7   73.38   21.17
  -2  -2  -7    9.60    4.99
  -2  -2  -7    9.30    5.20
   2   2   7   14.64   16.69
  -3  -2  -7   21.53    7.42
   3   2   7   15.00   20.49
  -3  -2  -7   17.82    7.30
   4   2   7   48.94   24.68
  -4  -2  -7   87.17   12.94
  -4  -2  -7   94.36   12.83
  -5  -2  -7    0.54    6.51
   5   2   7   20.03   25.16
  -5  -2  -7  -10.67    6.55
   6   2   7   -1.49   37.94
   6   2   7   33.56    8.74
  -6  -2  -7   11.34    9.75
   7   2   7   31.49   11.52
   4  -3  -7   -9.08   13.40
  -4   3   7   12.95   10.35
   4  -3  -7   -1.44   24.93
  -4   3   7   22.46    8.66
  -3   3   7    6.53    8.96
  -3   3   7   25.32    7.98
   3  -3  -7   45.53   32.68
   3  -3  -7   19.02   16.66
  -2   3   7    2.71    6.68
  -2   3   7   -2.12    4.20
   2  -3  -7   17.24   25.83
   2  -3  -7    5.12   13.16
   1  -3  -7   -1.50   19.63
  -1   3   7    8.99    7.15
   1  -3  -7    0.54    7.73
   0  -3  -7   33.88    7.51
   0   3   7   34.32    8.94
   0  -3  -7   62.25   22.49
  -1  -3  -7   90.21   26.35
  -1  -3  -7   39.12    7.28
   1   3   7   66.32    9.23
  -2  -3  -7  165.62    9.27
   2   3   7  180.89    9.61
  -2  -3  -7  165.58   10.89
   2   3   7  174.56   19.74
  -3  -3  -7    6.16    5.43
  -3  -3  -7    3.09    5.20
   3   3   7   -0.02   19.87
   4   3   7   27.22   19.75
  -4  -3  -7   30.59    9.19
  -4  -3  -7   10.84    6.90
  -5  -3  -7    0.51    7.56
  -5  -3  -7  -11.45    5.62
   5   3   7   18.91   25.36
  -6  -3  -7   -0.17    8.19
  -6  -3  -7   11.68    9.27
   6   3   7   39.45   34.16
   7   3   7   27.44    9.61
   4  -4  -7   36.55   18.04
  -4   4   7   46.39   14.30
   3  -4  -7  154.61   23.03
  -3   4   7  133.81   17.87
   3  -4  -7  145.74   38.38
  -2   4   7   10.59    9.62
   2  -4  -7    2.91   25.21
   2  -4  -7   27.40   17.46
   1  -4  -7  520.52   28.59
   1  -4  -7  544.55   21.81
  -1   4   7  533.15   23.32
   0  -4  -7  412.99   17.38
   0  -4  -7  405.79   24.53
   0   4   7  431.22   19.28
   1   4   7   63.24    9.88
  -1  -4  -7   66.50    9.49
   2   4   7    0.27    5.52
  -2  -4  -7   -2.74    4.96
  -2  -4  -7    2.12    3.59
   2   4   7   -5.94   15.24
  -3  -4  -7    2.88    5.03
  -3  -4  -7    0.58    5.34
   3   4   7   -8.93   17.19
  -4  -4  -7   26.13    8.78
  -4  -4  -7   27.43    7.76
   4   4   7    8.41   19.19
   5   4   7   12.86   24.55
  -5  -4  -7    4.26    7.34
  -5  -4  -7   -0.38    6.44
   6   4   7   31.30   30.20
  -6  -4  -7   -2.04    6.44
  -4   5   7   22.78   14.82
   4  -5  -7   16.55   18.63
  -3   5   7   10.86   10.95
   3  -5  -7  -11.07   15.94
   2  -5  -7   18.54   27.70
   2  -5  -7   50.63   19.78
  -2   5   7   37.30   13.00
   1  -5  -7   32.95   13.53
  -1   5   7   31.20   11.09
   1  -5  -7   49.96   26.95
   0  -5  -7   62.58   12.13
   0   5   7   94.61   14.73
   0  -5  -7   76.75   25.23
   1   5   7   59.87   12.31
   1   5   7   62.62   26.37
  -1  -5  -7   35.57    9.97
   2   5   7   40.13    9.74
  -2  -5  -7   33.97    8.83
   2   5   7   24.50   22.64
  -3  -5  -7   41.23    7.85
   3   5   7   34.38   27.20
  -3  -5  -7   47.59   10.05
   4   5   7    2.97   20.31
  -4  -5  -7   19.15    7.29
  -4  -5  -7   25.42    8.41
   5   5   7    5.49   25.31
  -5  -5  -7   -2.14    6.26
  -5  -5  -7    1.90    6.40
  -6  -5  -7   -0.53    7.46
  -6  -5  -7    1.03    8.53
   6   5   7    8.00   31.79
   4  -6  -7   19.44   20.10
  -4   6   7   32.94   16.83
   3  -6  -7  110.70   23.89
  -3   6   7  127.73   21.37
  -2   6   7  118.42   19.75
   2  -6  -7  103.80   20.40
   1  -6  -7    4.65   12.66
  -1   6   7   -1.99   10.25
   1  -6  -7    5.47   23.47
   0   6   7  198.15   17.58
   0  -6  -7  212.03   18.02
   1   6   7  100.66   28.79
  -1  -6  -7  105.24   14.64
   1   6   7  147.49   17.63
   2   6   7    0.78   22.17
   2   6   7    8.20    8.75
  -2  -6  -7    3.29    7.61
   3   6   7   54.39   28.17
  -3  -6  -7   62.24   11.54
  -4  -6  -7   43.77   10.69
   4   6   7   38.07   27.63
  -5  -6  -7   23.58    8.16
   5   6   7   42.10   32.00
   6   6   7    4.05   30.23
  -6  -6  -7   13.19    8.34
  -4   7   7   -6.72   16.76
   4  -7  -7   -0.12   19.13
  -3   7   7   36.97   16.90
   3  -7  -7   25.14   18.38
   2  -7  -7   44.97   17.27
  -2   7   7   58.39   18.41
   1  -7  -7   18.45   12.54
  -1   7   7    3.79    9.81
   0  -7  -7   34.16   12.58
   0   7   7   45.19   14.52
   0   7   7   57.46   23.72
   1   7   7  106.25   17.30
  -1  -7  -7  113.78   15.48
   1   7   7  100.85   27.77
   2   7   7    9.33   17.69
  -2  -7  -7   -6.13    6.42
   2   7   7    7.09    9.27
   3   7   7   17.53   21.62
  -3  -7  -7   20.18    8.81
   4   7   7   31.62   26.16
   5   7   7   -6.60   31.55
  -5  -7  -7   11.98    7.46
  -6  -7  -7   21.57    9.77
   3  -8  -7   19.05   18.56
  -3   8   7   25.15   16.82
  -2   8   7   36.86   15.01
   2  -8  -7   35.99   15.24
  -1   8   7   78.22   17.29
   1  -8  -7   68.41   17.06
   0   8   7   39.37   14.18
   0  -8  -7   30.47   12.88
  -1  -8  -7    4.09    8.53
   1   8   7   17.73   12.07
  -2  -8  -7   21.21    9.86
   2   8   7   14.97   17.96
   2   8   7   20.34   12.11
  -3  -8  -7   23.84    9.98
   3   8   7    4.96   18.38
  -4  -8  -7    9.45    6.91
   4   8   7   20.00   24.64
  -5  -8  -7    7.56    8.14
  -1   9   7   33.69   18.58
   1  -9  -7   45.07   14.66
   0  -9  -7   49.62   14.64
   0   9   7   36.91   16.53
   1   9   7    9.56   13.47
  -1  -9  -7    9.04   10.14
  -2  -9  -7   10.99    9.08
  -3  -9  -7    5.92    7.56
   3   9   7    6.66   17.88
  -4  -9  -7   22.36    8.71
   4   9   7   -6.80   21.10
  -1 -10  -7   13.90   10.91
   1  10   7    7.70   14.15
  -2 -10  -7   19.04    8.68
  -3 -10  -7    4.54    7.21
  -1  -9   8   -6.00   14.40
  -3  -8   8   22.08   12.12
   3   8  -8   24.77   14.04
   2   8  -8   31.96   14.77
  -2  -8   8    7.25   11.39
  -1  -8   8   -6.96   10.75
   1   8  -8   31.00   15.53
   0   8  -8    7.50   14.40
   0  -8   8   -2.86   12.22
   1  -8   8    9.49   13.09
  -1   8  -8   12.76   14.35
   2  -8   8   11.51   13.73
   2  -8   8    8.79   19.98
  -4  -7   8   10.28    9.02
  -3  -7   8   21.50   11.30
   3   7  -8   27.06   12.59
   2   7  -8   27.84   12.69
  -2  -7   8   10.52   11.58
   1   7  -8   31.85   13.28
  -1  -7   8   23.81   13.05
   0  -7   8   34.75   15.42
   0   7  -8   48.27   15.65
  -1   7  -8   30.06   13.64
   1  -7   8   -0.78   11.30
   1  -7   8  -22.63   14.37
  -2   7  -8    6.25   13.68
   2  -7   8   10.52   10.42
   2  -7   8  -11.44   14.75
  -3   7  -8   45.37   18.00
  -3   7  -8   22.94   18.11
   3  -7   8   -1.95   16.86
   5   6  -8   -9.53   30.92
  -5  -6   8    2.03    9.35
  -4  -6   8   23.53    9.14
   4   6  -8  -24.94   25.27
  -3  -6   8   47.16   12.93
   3   6  -8   46.57   12.96
   2   6  -8  127.45   19.29
  -2  -6   8   58.27   15.03
  -1  -6   8    6.08   11.24
   1   6  -8    6.80   10.41
   0  -6   8   -8.00   12.94
   0  -6   8   -0.48   11.61
   0   6  -8    3.50   11.34
   1  -6   8   -4.90   12.35
  -1   6  -8   21.48   12.76
   1  -6   8   -6.82    8.39
  -2   6  -8    2.80   12.29
  -2   6  -8   21.63   12.51
   2  -6   8   11.80   13.85
  -3   6  -8   20.61   13.14
   3  -6   8  -10.52   12.10
  -3   6  -8   -6.38   13.00
  -4   6  -8   -8.34   13.77
   5   5  -8  -36.40   32.14
  -5  -5   8   18.68    9.74
   4   5  -8  -12.60   27.12
  -4  -5   8    8.35    9.24
   3   5  -8   21.33   10.40
  -3  -5   8   27.40   12.34
   3   5  -8  -14.07   22.27
   2   5  -8   50.62   12.78
  -2  -5   8   21.02   12.30
   1   5  -8   47.34   13.56
  -1  -5   8   34.48   13.53
   0  -5   8   40.63   14.42
   0  -5   8   82.51   17.34
   0   5  -8  107.77   17.64
  -1   5  -8  161.01   16.77
   1  -5   8  149.35   18.42
  -2   5  -8   51.22   15.25
   2  -5   8   80.58   15.44
  -2   5  -8   96.84   16.91
  -3   5  -8    8.33   11.23
   3  -5   8  -10.22    9.43
  -3   5  -8   23.19   12.27
   4  -5   8   11.56   13.34
  -4   5  -8   -6.91   12.58
  -5  -4   8    8.62   10.08
   5   4  -8   23.80   40.46
  -4  -4   8   11.65    9.23
   4   4  -8   -8.35   34.30
  -3  -4   8   14.36    9.61
   3   4  -8  -15.50   23.74
   3   4  -8   11.71    9.77
  -2  -4   8   34.71   13.09
   2   4  -8    4.81   24.17
   2   4  -8   33.47   11.44
   1   4  -8   13.20   10.23
  -1  -4   8    3.35   10.96
   0  -4   8   21.51   11.68
   0  -4   8    6.04    9.36
   0   4  -8   14.82    9.70
   1  -4   8   26.84   10.14
  -1   4  -8   27.73   13.23
  -1   4  -8   28.92   11.43
  -2   4  -8    0.75   10.15
  -2   4  -8    0.09    9.89
   2  -4   8   -3.00    8.53
  -3   4  -8  -12.43    9.04
  -3   4  -8   32.27   11.35
   3  -4   8    5.52    9.21
  -4   4  -8    3.71   11.08
   4  -4   8   -2.29    9.83
   5  -4   8   18.09   14.62
  -5   4  -8   12.14   14.33
   6   3  -8   67.13   50.22
  -5  -3   8    3.98    9.05
   5   3  -8   23.56   39.77
   4   3  -8   10.00   38.52
   4   3  -8   10.18   38.65
   4   3  -8   -1.87    9.47
  -4  -3   8    1.99    8.06
  -3  -3   8   10.01    9.52
   3   3  -8    8.55    8.46
   3   3  -8   -3.17   31.95
   2   3  -8  105.71   15.76
   2   3  -8   46.68   29.56
  -2  -3   8   67.24   13.43
  -1  -3   8  336.30   19.85
   1   3  -8  315.43   18.12
  -1  -3   8  303.82   14.84
   0  -3   8  394.00   15.48
   0  -3   8  373.63   20.41
   0   3  -8  385.52   19.81
  -1   3  -8  407.27   20.92
  -1   3  -8  385.89   21.52
   1  -3   8  430.33   18.14
  -2   3  -8  443.38   22.52
  -2   3  -8  467.07   22.29
   2  -3   8  460.16   20.75
   3  -3   8   78.22   13.55
  -3   3  -8   84.79   15.55
  -3   3  -8  107.98   15.15
   4  -3   8   40.37   12.62
  -4   3  -8   46.79   14.67
   5  -3   8   12.95   10.23
  -5   3  -8   16.60   12.58
  -6  -2   8    4.96    9.69
   6   2  -8   34.52   43.85
   5   2  -8  -11.83   32.64
  -5  -2   8    6.62    8.26
   4   2  -8   -2.26   31.67
  -4  -2   8   -2.54    7.62
   3   2  -8   29.78   35.32
  -3  -2   8   -2.46    8.08
   3   2  -8    3.63    9.09
   2   2  -8   46.58   11.86
   2   2  -8  -18.12   28.83
  -2  -2   8   16.78    8.93
   1   2  -8   31.39   10.39
  -1  -2   8   30.24    6.30
  -1  -2   8   24.69    9.48
   1   2  -8   74.01   28.83
   0  -2   8  237.40   15.48
   0  -2   8  252.17   10.66
   0   2  -8  268.11   14.89
   1  -2   8   30.97    6.37
  -1   2  -8   39.29    9.64
  -1   2  -8   31.14    9.27
   2  -2   8  142.20   11.48
  -2   2  -8  117.44   14.32
  -2   2  -8  139.12   11.58
   3  -2   8   16.94    8.15
  -3   2  -8   22.95   10.86
  -3   2  -8   49.89   10.72
   4  -2   8   23.69    9.97
  -4   2  -8   -5.82    8.17
   5  -2   8    0.66    9.13
  -5   2  -8   -8.11    9.92
  -6   2  -8   -0.43   12.94
   6  -2   8    1.01   11.69
  -6  -1   8   16.41   10.63
   6   1  -8   25.67   40.46
   5   1  -8    5.64   32.17
  -5  -1   8    4.57    9.00
   4   1  -8   32.82   32.67
  -4  -1   8   23.18    9.86
  -4  -1   8   26.44    9.94
   3   1  -8    4.34   29.84
  -3  -1   8   12.99    8.60
  -2  -1   8   86.02   12.27
   2   1  -8  101.35   13.71
   2   1  -8  199.67   39.68
  -1  -1   8   11.45    7.86
   1   1  -8   44.50   25.92
   1   1  -8    9.52    8.01
   0  -1   8 1859.00   33.93
   0  -1   8 1851.45   23.00
   0   1  -8 1858.39   39.17
   0   1  -8 1825.14   35.70
   1  -1   8  337.58   12.86
  -1   1  -8  312.33   14.61
  -1   1  -8  340.55   15.70
  -2   1  -8    5.82    6.85
   2  -1   8    3.06    4.40
  -2   1  -8   13.64    6.63
  -3   1  -8   92.16   13.62
   3  -1   8  100.05   12.48
  -3   1  -8   95.94    9.25
   4  -1   8   -2.96    5.46
  -4   1  -8   -5.80    8.29
   5  -1   8   -2.58    7.30
  -5   1  -8  -10.14    8.72
  -6   1  -8   -3.30    9.69
   6  -1   8   11.34   10.55
   6   0  -8   11.93   37.68
  -6   0   8    8.80   10.48
  -5   0   8    7.85    8.86
   5   0  -8   52.52   36.15
   4   0  -8   47.28   35.21
  -4   0   8    4.01    8.43
  -4   0   8   17.20    9.06
   3   0  -8   60.28   33.30
  -3   0   8   33.70   10.28
  -3   0   8   45.48   10.03
  -2   0   8   42.22    8.85
   2   0  -8   84.03   31.29
  -2   0   8   43.44    9.40
   1   0  -8  133.55   11.50
  -1   0   8  134.43   11.05
   1   0  -8  150.11   19.95
   0   0  -8   82.62    5.86
   0   0  -8   91.37   10.62
   0   0   8   87.13    9.37
  -1   0  -8  548.29   17.77
  -1   0  -8  537.78   17.13
  -1   0  -8  526.23   22.86
  -1   0  -8  546.63   15.45
  -2   0  -8  238.88   12.67
  -2   0  -8  252.15   13.48
  -2   0  -8  236.82   11.29
  -3   0  -8    9.77    7.98
   3   0   8    3.33    5.55
  -4   0  -8    2.46    8.50
   4   0   8   -3.77    6.12
  -5   0  -8  -10.92    8.38
   5   0   8    7.64    7.31
  -6   0  -8    3.76    9.57
   6   0   8    1.16    8.45
  -6   1   8   19.29   10.70
   6  -1  -8   23.79   32.04
  -5   1   8    3.51    8.26
   5  -1  -8   16.39   30.38
  -4   1   8    4.43    7.86
  -4   1   8    0.56    8.50
   4  -1  -8    5.84   29.85
  -3   1   8   49.33   10.98
  -3   1   8   32.10    9.83
   3  -1  -8   45.81   31.50
  -2   1   8    4.95    5.53
   2  -1  -8   -3.59    6.00
   2  -1  -8   -1.19   23.64
  -2   1   8   -0.29    5.82
   1  -1  -8    0.51   20.35
  -1   1   8   -1.90    4.51
   1  -1  -8   -4.00    3.36
  -1   1   8   -0.67    5.19
   0  -1  -8  168.72   17.66
   0   1   8  186.23    9.83
   0  -1  -8  187.11    8.23
   0   1   8  187.17   11.87
  -1  -1  -8  108.44   23.02
  -1  -1  -8   55.44    7.00
  -1  -1  -8   61.59    7.92
  -1  -1  -8   75.96    9.49
  -2  -1  -8  138.43    8.08
  -2  -1  -8  157.45   10.41
   2   1   8  127.10   15.50
  -2  -1  -8  141.67   10.17
   3   1   8   42.18   22.31
  -3  -1  -8   30.61    8.19
  -3  -1  -8   32.21    8.87
  -4  -1  -8   56.57   11.36
  -4  -1  -8   45.71   11.61
   4   1   8   20.28   21.43
   5   1   8   37.19   26.12
   5   1   8    4.50    6.79
  -5  -1  -8   -1.28    7.62
  -6  -1  -8   -4.62    8.06
   6   1   8   21.32    9.16
   6  -2  -8   15.18   34.66
  -5   2   8    6.97    8.56
   5  -2  -8   -1.85   29.12
   4  -2  -8   28.28   29.82
  -4   2   8   19.83    8.40
  -4   2   8   10.68    9.58
   3  -2  -8  -18.25   13.35
   3  -2  -8   36.88   30.60
  -3   2   8    6.88    8.11
  -3   2   8   -3.66    6.13
   2  -2  -8  182.47   14.18
  -2   2   8  194.00   11.42
   2  -2  -8  187.01   24.32
  -2   2   8  183.46   13.91
  -1   2   8   29.49    8.38
   1  -2  -8   33.78    7.12
   1  -2  -8   48.25   23.48
  -1   2   8   30.09    5.36
   0   2   8  495.18   10.99
   0  -2  -8  506.27   14.50
   0   2   8  524.32   18.98
   0  -2  -8  516.86   25.63
   1   2   8  699.66   19.87
  -1  -2  -8  730.40   15.04
  -1  -2  -8  733.89   29.45
  -1  -2  -8  734.15   18.65
   2   2   8  145.02   17.89
   2   2   8  116.55    7.86
  -2  -2  -8  121.99    9.28
  -2  -2  -8  115.84    9.02
   3   2   8    0.24   20.19
  -3  -2  -8   10.69    6.59
  -3  -2  -8   -0.26    5.71
   4   2   8    0.95   21.21
  -4  -2  -8    1.98    7.30
  -4  -2  -8   -2.85    7.09
   5   2   8    8.42   24.16
  -5  -2  -8    1.50    6.91
  -5  -2  -8   -7.64    7.21
  -6  -2  -8    8.26    9.03
   6   2   8   22.00   36.48
   6   2   8   23.40    8.12
   5  -3  -8   46.28   32.84
  -4   3   8   33.99   12.18
   4  -3  -8   38.79   31.28
   3  -3  -8   14.26   31.18
  -3   3   8    5.96    6.88
   3  -3  -8    1.40   16.63
  -3   3   8   11.89    9.94
  -2   3   8   51.29    7.51
  -2   3   8   61.32   12.92
   2  -3  -8   40.57   14.51
   2  -3  -8   83.48   32.33
   1  -3  -8  222.02   13.92
  -1   3   8  238.40   15.87
   1  -3  -8  230.16   23.05
   0  -3  -8  157.73   30.03
   0   3   8  109.85   13.16
   0  -3  -8   84.99   10.18
   1   3   8   32.65    8.04
  -1  -3  -8   57.93   23.97
  -1  -3  -8   24.28    6.60
  -2  -3  -8   82.69    7.55
  -2  -3  -8   78.04    9.49
   2   3   8   67.28    6.93
   2   3   8   55.28   23.74
   3   3   8   19.09   21.64
  -3  -3  -8   18.68    6.85
  -3  -3  -8   17.90    6.70
  -4  -3  -8   19.32    7.98
  -4  -3  -8   18.98    8.05
   4   3   8    4.91   18.75
   5   3   8    7.50   27.25
  -5  -3  -8    2.63    7.60
  -5  -3  -8    7.75    7.75
  -6  -3  -8    4.72    9.23
   6   3   8   42.61   30.54
  -6  -3  -8    7.90    8.94
   4  -4  -8   17.34   29.66
  -4   4   8   11.49   11.90
   3  -4  -8   -3.85   26.73
   3  -4  -8    1.15   15.14
  -3   4   8    4.95    9.59
   2  -4  -8   20.54   29.11
   2  -4  -8   11.79   15.28
  -2   4   8   29.60   11.48
  -1   4   8  122.01   16.21
   1  -4  -8  131.81   32.15
   1  -4  -8  116.49   15.15
   0  -4  -8   23.46   21.43
   0   4   8    8.36    7.87
   0  -4  -8    9.45    7.67
  -1  -4  -8   65.97    9.94
   1   4   8   71.53   11.09
   2   4   8  165.84   10.98
  -2  -4  -8  169.02    9.10
   2   4   8  147.70   19.84
  -2  -4  -8  167.10   12.51
  -3  -4  -8   13.01    5.80
  -3  -4  -8   15.42    7.15
   3   4   8   20.11   20.13
  -4  -4  -8   36.08    9.69
   4   4   8    9.08   21.01
  -4  -4  -8   29.49    8.50
  -5  -4  -8   18.48    8.88
   5   4   8   60.38   31.42
  -5  -4  -8    6.17    7.73
  -6  -4  -8    2.66    7.71
   6   4   8   50.76   35.25
  -6  -4  -8    1.45    8.75
  -4   5   8   25.38   14.92
   4  -5  -8    8.09   17.74
   3  -5  -8   40.04   18.20
  -3   5   8   47.45   14.72
  -2   5   8   11.45    9.21
   2  -5  -8   16.17   15.54
   2  -5  -8    2.17   25.70
   1  -5  -8   17.88   12.52
   1  -5  -8   14.04   25.36
  -1   5   8   10.01    8.77
   0  -5  -8   89.80   27.15
   0  -5  -8   84.05   13.18
   0   5   8   78.16   13.01
  -1  -5  -8   -6.17    6.91
   1   5   8    1.83    7.10
   1   5   8   14.79   20.29
  -2  -5  -8    6.87    6.86
   2   5   8   10.70   22.73
   2   5   8    5.98    7.06
  -3  -5  -8   -3.92    5.74
   3   5   8   26.34   26.30
  -4  -5  -8    3.58    5.48
   4   5   8   30.18   21.94
  -4  -5  -8    5.99    6.63
  -5  -5  -8   12.47    7.85
  -5  -5  -8   11.60    7.30
   5   5   8   31.15   26.35
   6   5   8   20.55   32.30
  -6  -5  -8    9.01    8.89
  -6  -5  -8   13.78    9.36
   4  -6  -8    4.03   16.40
  -4   6   8   45.16   16.81
   3  -6  -8   47.06   19.34
  -3   6   8   64.40   18.08
  -2   6   8   84.66   18.31
   2  -6  -8   87.87   18.64
   1  -6  -8    6.06   12.63
   1  -6  -8    5.59   22.03
  -1   6   8    8.39   11.07
   0   6   8  129.58   18.32
   0  -6  -8  122.72   34.27
   0  -6  -8  147.58   17.39
  -1  -6  -8  170.13   16.03
   1   6   8  100.01   31.68
   1   6   8  193.41   16.58
  -2  -6  -8  255.50   17.16
   2   6   8  252.22   17.46
  -3  -6  -8  102.08   13.63
   3   6   8   16.93   23.11
  -4  -6  -8   12.87    7.56
   4   6   8   27.45   25.06
   5   6   8   31.53   27.51
  -5  -6  -8    8.57    7.10
  -6  -6  -8    5.52    7.87
   4  -7  -8   36.52   20.72
  -4   7   8   -0.52   17.88
   3  -7  -8   19.71   17.04
  -3   7   8   34.69   15.33
  -2   7   8   28.07   13.39
   2  -7  -8   28.64   14.82
  -1   7   8   31.18   13.74
   1  -7  -8   33.55   13.94
   0   7   8  179.67   21.95
   0   7   8  204.86   19.22
   0  -7  -8  188.98   17.41
  -1  -7  -8   26.45   11.03
   1   7   8   41.73   21.20
   1   7   8   38.03   12.10
   2   7   8    4.96   19.07
  -2  -7  -8    0.41    6.74
   2   7   8    6.24    8.60
  -3  -7  -8   33.18   10.08
   3   7   8   24.11   25.24
  -4  -7  -8    9.73    7.75
   4   7   8   13.79   25.01
   5   7   8    2.35   32.32
  -5  -7  -8    9.02    8.49
  -6  -7  -8   15.64    9.41
   3  -8  -8   13.01   16.18
   2  -8  -8   30.50   14.05
  -2   8   8   15.45   15.09
  -1   8   8   65.18   17.65
   1  -8  -8   54.64   14.62
   0  -8  -8   31.13   12.13
   0   8   8   21.11   12.16
  -1  -8  -8    3.67    8.11
   1   8   8    0.85    8.88
   1   8   8    1.58   16.16
   2   8   8   11.02   16.85
   2   8   8   19.84   11.34
  -2  -8  -8    8.35    7.69
   3   8   8   18.50   21.82
  -3  -8  -8    3.25    7.64
   4   8   8   41.81   26.87
  -5  -8  -8   31.40   11.31
  -1   9   8   34.05   16.52
   1  -9  -8   32.89   13.88
   0   9   8    7.11   13.72
   0  -9  -8   25.64   10.81
   1   9   8   23.65   14.21
  -1  -9  -8   19.44   10.18
  -2  -9  -8   22.46   10.18
   3   9   8   11.88   21.10
  -3  -9  -8   11.10    8.09
  -4  -9  -8   33.02   10.71
   4   9   8   25.04   22.87
  -1 -10  -8   22.92   11.20
   1  10   8   -3.79   14.53
  -2 -10  -8   22.14   10.23
  -3  -8   9   16.51   11.68
   3   8  -9   13.53   13.33
  -2  -8   9   27.53   13.39
   2   8  -9   14.05   13.85
  -1  -8   9    2.75   12.78
   1   8  -9   20.25   15.03
   0  -8   9   -9.70   12.45
   0   8  -9   34.59   17.70
   1  -8   9   -0.26   14.20
  -4  -7   9   39.25   12.49
   3   7  -9    0.35   11.08
  -3  -7   9   16.94   10.67
  -2  -7   9    4.88   11.46
   2   7  -9   20.07   12.67
   1   7  -9   31.54   13.40
  -1  -7   9  -10.59   11.08
   0  -7   9   16.73   14.49
   0   7  -9   55.53   16.41
   1  -7   9   -0.76   11.30
   1  -7   9   -8.38   16.34
  -1   7  -9   35.80   13.02
   2  -7   9  -34.46   13.86
   2  -7   9   10.82   10.44
  -2   7  -9   19.76   14.74
   3  -7   9    4.16   17.77
  -3   7  -9   39.27   17.44
  -3   7  -9  -11.70   16.24
   5   6  -9    8.28   32.26
  -4  -6   9   27.23    9.23
  -3  -6   9    6.10    9.96
   3   6  -9    4.12    9.57
   2   6  -9   37.43   12.94
  -2  -6   9   16.57   11.64
   1   6  -9   88.17   17.17
  -1  -6   9   46.53   15.04
   0  -6   9   -3.77   11.83
   0   6  -9   13.85   11.87
   1  -6   9   -6.89    9.71
  -1   6  -9    0.50   11.66
   1  -6   9    7.02   13.63
  -2   6  -9   -1.06   12.32
   2  -6   9   22.32   13.83
  -2   6  -9   23.05   12.95
  -3   6  -9   20.57   16.99
   3  -6   9  -14.95   13.06
  -3   6  -9   43.34   16.26
  -5  -5   9   36.11   12.34
   5   5  -9   -9.31   34.39
  -4  -5   9   39.03   12.27
   4   5  -9   -3.32   25.89
  -3  -5   9   88.42   16.77
   3   5  -9   13.60   24.56
   3   5  -9   94.13   15.74
  -2  -5   9   -6.47    9.73
   2   5  -9    0.55    8.66
  -1  -5   9   15.47   12.05
   1   5  -9  106.84   18.46
   0  -5   9    6.31   13.31
   0  -5   9    6.63   11.76
   0   5  -9   18.94   11.42
  -1   5  -9   11.50   11.70
   1  -5   9   17.14   11.39
   1  -5   9    6.78    9.58
  -2   5  -9   14.89   12.69
   2  -5   9  -11.03    9.34
  -2   5  -9    5.78   12.71
  -3   5  -9   48.43   14.18
   3  -5   9    7.22   11.52
  -3   5  -9    8.42   12.17
  -4   5  -9    8.01   13.36
   4  -5   9   18.31   14.23
  -5  -4   9    4.32   10.05
   5   4  -9    0.09   34.68
   4   4  -9    9.41    9.22
  -4  -4   9   13.52    9.93
   4   4  -9    5.48   30.55
  -3  -4   9   16.62   10.70
   3   4  -9   13.90    9.36
   3   4  -9    8.65   25.37
   2   4  -9    8.90    9.32
   2   4  -9  -13.69   24.89
  -2  -4   9   -9.48   10.28
   1   4  -9   20.32   11.19
  -1  -4   9   15.64   12.24
   0  -4   9   42.38   11.80
   0   4  -9   38.93   12.42
   0  -4   9   27.91   12.80
   1  -4   9    8.57    8.65
  -1   4  -9    7.34   10.75
  -2   4  -9   15.78   11.47
  -2   4  -9    8.46   10.80
   2  -4   9    4.42    8.66
  -3   4  -9   21.06   11.30
  -3   4  -9   11.65   11.17
   3  -4   9    0.88    9.13
   4  -4   9   55.03   15.36
  -4   4  -9   41.47   15.21
   5  -4   9   -3.17   12.15
  -5   4  -9   -8.68   14.11
  -6  -3   9    8.18   10.03
   5   3  -9   13.61   38.98
  -5  -3   9   26.73   10.49
   4   3  -9  -32.00   33.71
   4   3  -9    2.51    9.13
  -4  -3   9   -0.38    7.52
  -3  -3   9   17.34    9.93
   3   3  -9   46.62   35.59
   3   3  -9   48.68   12.12
   2   3  -9    3.17   27.38
   2   3  -9   49.67   12.61
  -2  -3   9   36.50   12.07
  -1  -3   9    3.24   10.00
   1   3  -9  -10.32    7.19
   0   3  -9   45.38   13.07
   0  -3   9   33.21   11.82
   0  -3   9   44.46    8.72
  -1   3  -9    7.92    9.03
  -1   3  -9    6.41   11.51
   1  -3   9   14.18    7.45
  -2   3  -9  118.84   16.38
  -2   3  -9  132.68   13.93
   2  -3   9  145.60   13.63
  -3   3  -9  127.43   16.73
  -3   3  -9   87.25   15.61
   3  -3   9   98.64   14.67
  -4   3  -9    4.34   11.14
   4  -3   9    5.46    9.07
  -5   3  -9   23.95   14.10
   5  -3   9    2.94   11.14
  -6  -2   9   26.35   12.37
   6   2  -9   10.16   43.79
   5   2  -9   25.16   33.70
  -5  -2   9    3.39    8.85
  -4  -2   9   42.74   12.12
   4   2  -9   89.70   38.80
   3   2  -9   73.90   13.52
   3   2  -9   72.05   41.48
  -3  -2   9   57.22   12.77
   2   2  -9   11.00    9.21
   2   2  -9   73.75   34.70
  -2  -2   9    8.73    9.76
   1   2  -9  279.35   23.59
   1   2  -9  301.92   18.09
  -1  -2   9  326.34   18.54
   0  -2   9   84.20    8.07
   0   2  -9   85.76   12.65
   0  -2   9   65.29   12.00
  -1   2  -9  120.35   14.74
  -1   2  -9  137.53   15.23
   1  -2   9  112.06   10.71
  -2   2  -9    1.83    8.33
  -2   2  -9   12.38    8.38
   2  -2   9   -1.14    5.19
  -3   2  -9  216.78   18.03
  -3   2  -9  215.78   14.11
   3  -2   9  243.21   16.54
  -4   2  -9    0.04    9.79
   4  -2   9    8.48    7.90
   5  -2   9   24.06   10.39
  -5   2  -9   13.38   11.72
   6   1  -9    2.65   39.73
  -6  -1   9   12.38   10.72
   5   1  -9   12.92   36.67
  -5  -1   9   10.86    9.33
  -4  -1   9    6.60    8.67
  -4  -1   9   14.54    8.41
   4   1  -9   10.10   33.63
  -3  -1   9    6.02    8.65
   3   1  -9  -13.58   32.39
   2   1  -9  194.92   43.68
   2   1  -9   74.12   13.48
  -2  -1   9   81.15   12.62
  -1  -1   9  459.41   19.58
   1   1  -9  499.49   28.30
   1   1  -9  485.67   21.14
   0   1  -9  410.78   22.67
   0  -1   9  421.17   18.64
   0   1  -9  404.19   18.53
   0  -1   9  405.33   11.53
  -1   1  -9   88.45   11.44
  -1   1  -9   97.57   11.57
   1  -1   9   86.64    8.59
  -2   1  -9  194.46   14.55
  -2   1  -9  202.13   12.24
   2  -1   9  180.64   12.20
   3  -1   9  129.07   12.16
  -3   1  -9  114.12   14.90
  -4   1  -9    5.55    9.07
   4  -1   9    1.70    5.89
  -5   1  -9   -0.02    9.07
   5  -1   9    7.55    7.86
  -6   1  -9    5.83   11.35
   6  -1   9    6.74    9.72
  -6   0   9    2.28   10.22
   6   0  -9  -20.69   36.57
   5   0  -9   29.89   31.51
  -5   0   9    3.93    8.47
   4   0  -9   33.25   35.69
  -4   0   9    3.11    8.26
  -4   0   9   15.12    9.32
   3   0  -9   22.45   33.25
  -3   0   9   15.20    8.49
  -3   0   9    8.20    8.75
   2   0  -9  129.09   37.19
  -2   0   9   64.23   10.32
   1   0  -9  118.60    5.13
   1   0  -9  121.79   12.02
  -1   0   9  127.34   11.50
   0   0   9   -0.50    6.07
   0   0  -9   -2.28   19.57
   0   0  -9   -2.66    5.85
   0   0  -9    0.48    3.38
  -1   0  -9   75.77    8.41
  -1   0  -9   85.69   10.62
  -1   0  -9   73.31    9.87
  -1   0  -9  117.12   26.51
  -2   0  -9   40.14    8.70
  -2   0  -9   52.72    8.51
  -2   0  -9   39.97    8.33
  -3   0  -9    8.77    7.65
   3   0   9    0.17    5.75
  -4   0  -9   33.99   11.30
   4   0   9   39.74   10.41
   5   0   9    8.24    8.02
  -5   0  -9   -1.65    9.20
  -6   0  -9   -4.30    9.50
   6   0   9   17.56    9.74
   6  -1  -9    8.74   36.63
  -6   1   9    2.18   10.37
  -5   1   9   -2.05    8.07
   5  -1  -9  -23.31   28.57
   4  -1  -9   -0.37   29.81
  -4   1   9   -2.32    7.85
  -4   1   9   14.16    8.93
  -3   1   9    7.76    7.96
   3  -1  -9  -11.47   29.45
  -3   1   9   -4.00    7.38
  -2   1   9   97.06   10.82
  -2   1   9  110.39   13.71
   2  -1  -9  139.66   36.48
   2  -1  -9   87.66    8.06
   1  -1  -9   12.51    4.16
  -1   1   9   18.98    6.47
  -1   1   9   12.82    6.59
   1  -1  -9   28.15   24.54
   0  -1  -9  591.88   28.08
   0  -1  -9  602.28   14.37
   0   1   9  589.53   17.03
  -1  -1  -9 1708.66   42.94
  -1  -1  -9 1668.92   27.78
  -1  -1  -9 1632.52   27.77
  -1  -1  -9 1672.51   31.00
  -2  -1  -9  124.08   10.21
  -2  -1  -9  109.81    9.80
  -2  -1  -9  138.87    8.97
  -3  -1  -9   80.76   11.52
   3   1   9   17.92   19.62
  -3  -1  -9   64.32   11.00
  -4  -1  -9    8.87    8.23
   4   1   9   12.09   20.88
  -4  -1  -9   10.03    8.56
   5   1   9   14.40    7.02
  -5  -1  -9    3.03    8.63
   6   1   9   15.49    8.21
  -6  -1  -9   16.60    9.79
   6  -2  -9   49.79   42.64
  -5   2   9    3.80    8.58
   5  -2  -9  -22.52   28.22
  -4   2   9   66.22   15.36
  -4   2   9   64.35   12.66
   4  -2  -9   38.65   33.40
  -3   2   9   32.80   10.76
   3  -2  -9   63.71   34.60
  -3   2   9   55.57   10.87
  -2   2   9   77.64   12.95
  -2   2   9  106.23   10.74
   2  -2  -9   79.22   11.35
   2  -2  -9  146.58   38.62
   1  -2  -9   61.38    8.28
  -1   2   9   60.67    7.04
   1  -2  -9  105.03   29.50
  -1   2   9   66.54   11.05
   0   2   9  260.69    9.73
   0  -2  -9  271.79   11.46
   0  -2  -9  250.27   21.37
   0   2   9  271.98   14.82
  -1  -2  -9   92.80    7.05
  -1  -2  -9   93.42    7.97
   1   2   9   93.67    8.73
   2   2   9   31.91   21.69
   2   2   9   62.45    6.77
  -2  -2  -9   59.57    8.66
  -2  -2  -9   66.61    8.36
   3   2   9   22.75   23.57
  -3  -2  -9   77.67   10.93
  -3  -2  -9   55.08    9.99
  -4  -2  -9    8.21    7.74
   4   2   9    5.95   20.00
  -4  -2  -9    7.80    7.47
   5   2   9   44.08   26.41
  -5  -2  -9   21.99   10.34
  -5  -2  -9   26.10   10.00
   6   2   9   21.72    8.15
  -6  -2  -9    4.26    9.21
   5  -3  -9   18.22   28.84
  -4   3   9   10.06   10.65
   4  -3  -9   13.75   28.71
  -3   3   9   37.97   12.87
   3  -3  -9   32.38   17.13
   3  -3  -9   47.26   35.92
   2  -3  -9   21.90   12.00
  -2   3   9   25.17   10.26
   2  -3  -9   26.99   29.68
   1  -3  -9   15.30   24.01
  -1   3   9   11.37    8.35
   1  -3  -9    5.94    7.72
   0   3   9  272.68   15.80
   0  -3  -9  275.84   23.55
   0  -3  -9  284.04   13.45
  -1  -3  -9   23.95    4.76
   1   3   9   27.72    7.71
  -1  -3  -9   47.53   23.25
  -1  -3  -9   32.34    7.28
  -2  -3  -9   27.97    7.43
   2   3   9   38.20    7.68
   2   3   9   40.76   25.23
  -2  -3  -9   22.19    6.21
   3   3   9    7.08   19.62
  -3  -3  -9   29.27    8.03
  -3  -3  -9   46.37    9.45
  -4  -3  -9   49.77   10.41
  -4  -3  -9   33.99    9.85
   4   3   9    0.33   18.30
   5   3   9   51.53   28.85
  -5  -3  -9   27.87   10.32
  -5  -3  -9   18.08    9.20
  -6  -3  -9    3.97    9.13
  -6  -3  -9    9.86    9.89
   6   3   9   46.47   34.23
  -4   4   9   24.71   13.69
   4  -4  -9    5.16   30.85
   3  -4  -9   47.03   16.98
  -3   4   9   52.25   14.68
   3  -4  -9   44.39   30.70
   2  -4  -9  150.57   39.32
   2  -4  -9  177.01   19.89
  -2   4   9  146.17   15.29
   1  -4  -9   76.03   13.52
   1  -4  -9   97.92   31.83
  -1   4   9   83.83   14.18
   0  -4  -9   -5.38    6.88
   0   4   9    0.76    7.06
   0  -4  -9  -10.34   20.94
   1   4   9   55.30   10.53
  -1  -4  -9  127.92   33.77
  -1  -4  -9   64.08   10.04
   2   4   9    0.72    5.74
   2   4   9   -8.17   17.51
  -2  -4  -9    4.07    5.78
  -3  -4  -9    7.49    6.22
  -3  -4  -9   15.73    7.39
   3   4   9   13.61   20.79
   4   4   9   28.64   21.58
  -4  -4  -9   55.41   10.52
  -4  -4  -9   67.38   12.26
  -5  -4  -9   15.29    9.05
   5   4   9    0.86   24.36
  -5  -4  -9   10.31    7.90
   6   4   9   51.18   33.03
  -6  -4  -9    3.72    8.33
  -6  -4  -9    1.53    8.20
  -4   5   9   27.82   15.11
   3  -5  -9    8.47   26.48
   3  -5  -9    6.64   15.25
  -3   5   9   10.40   11.16
  -2   5   9    6.66   10.05
   2  -5  -9   -7.93   25.93
   2  -5  -9   -2.58   12.98
   1  -5  -9   26.93   26.24
   1  -5  -9    7.05   11.79
  -1   5   9    8.99    9.51
   0   5   9   -3.67    6.74
   0  -5  -9   -0.41   20.91
   0  -5  -9   -2.41    8.30
  -1  -5  -9   28.99    9.51
   1   5   9   31.77    9.64
  -2  -5  -9  141.78   14.70
   2   5   9   76.91   29.30
   2   5   9  130.33   12.47
   3   5   9   28.11   25.13
  -3  -5  -9  136.84   14.66
  -4  -5  -9   68.26   12.09
   4   5   9   36.46   23.58
  -5  -5  -9    8.35    8.28
   5   5   9   42.41   27.11
  -6  -5  -9    4.09    9.33
   6   5   9  -15.16   28.95
   4  -6  -9   36.61   18.36
  -4   6   9   39.82   17.92
  -3   6   9   11.39   13.09
   3  -6  -9   40.51   16.95
  -2   6   9   16.73   13.14
   2  -6  -9   13.82   12.97
  -1   6   9   26.50   12.59
   1  -6  -9   46.08   26.52
   1  -6  -9   73.26   15.41
   0  -6  -9   17.29   11.34
   0   6   9   26.33   11.81
   0  -6  -9   22.55   25.47
  -1  -6  -9  139.31   15.86
   1   6   9  122.68   17.36
   1   6   9  101.92   32.69
  -2  -6  -9   12.83    7.96
   2   6   9    7.97   23.67
   2   6   9   20.80    9.51
   3   6   9   57.88   29.71
  -4  -6  -9   11.37    7.67
   4   6   9   38.00   26.74
   5   6   9   36.26   28.11
  -5  -6  -9   19.87    8.77
  -6  -6  -9   -5.84    7.43
   4  -7  -9   19.92   17.85
  -3   7   9   45.24   14.88
   3  -7  -9   16.93   14.08
   2  -7  -9   18.18   13.39
  -2   7   9   18.42   11.94
  -1   7   9   24.65   12.75
   1  -7  -9   22.40   13.24
   0   7   9   12.81   11.50
   0  -7  -9   22.89   11.52
   1   7   9   55.06   27.98
  -1  -7  -9  115.81   15.59
   1   7   9  103.05   16.94
   2   7   9   14.86   22.00
  -2  -7  -9   19.15    8.96
   2   7   9   23.56   11.13
   3   7   9   19.07   26.80
  -3  -7  -9   19.13    8.78
   4   7   9   29.40   26.41
  -4  -7  -9   12.23    7.38
  -5  -7  -9   16.09    7.78
   5   7   9  -11.13   29.09
  -6  -7  -9    6.40   10.13
   3  -8  -9   44.16   16.08
  -2   8   9   49.16   17.19
   2  -8  -9   46.63   14.76
   1  -8  -9   16.34   12.12
  -1   8   9   12.18   12.53
   0  -8  -9   18.10   11.03
   0   8   9   25.64   14.14
   1   8   9   35.62   13.92
  -1  -8  -9   36.09   11.68
   1   8   9   26.12   20.91
  -2  -8  -9   10.43    8.13
   2   8   9   28.34   20.25
  -3  -8  -9    5.21    7.28
   3   8   9   24.00   22.82
   4   8   9    8.58   25.56
  -4  -8  -9    9.06    7.23
  -5  -8  -9   -3.12    7.02
  -1   9   9    5.67   15.92
   1  -9  -9   30.68   12.45
   0  -9  -9    9.85    8.60
   0   9   9   13.97   14.90
   1   9   9    7.67   12.01
  -1  -9  -9    6.66    9.56
   2   9   9   18.21   21.72
  -2  -9  -9   16.73    8.30
   3   9   9    9.44   21.40
  -3  -9  -9   16.82    8.75
   4   9   9   38.70   27.15
  -4  -9  -9   12.83    8.09
   1  10   9   -5.51   15.06
   3   8 -10    8.25   13.57
  -2  -8  10   10.76   13.27
   2   8 -10   15.90   15.53
  -1  -8  10   10.21   14.24
   1   8 -10   14.16   17.36
   0  -8  10  -11.20   13.23
  -3  -7  10   19.87   11.58
   3   7 -10   27.81   13.38
   2   7 -10   34.56   13.87
  -2  -7  10    4.68   11.30
  -1  -7  10   24.67   14.45
   1   7 -10   64.75   18.35
   0  -7  10    4.25   13.26
   0   7 -10   23.58   13.66
  -1   7 -10   26.10   13.89
   1  -7  10   -7.97   11.93
   2  -7  10   -2.21   16.67
  -2   7 -10   19.31   14.52
   2  -7  10    7.11   10.89
  -4  -6  10    1.99    8.77
  -3  -6  10    7.66   11.59
   3   6 -10   10.54    9.74
   2   6 -10   21.76   11.92
  -2  -6  10   -0.05   11.42
   1   6 -10   94.95   19.85
  -1  -6  10   37.00   15.49
   0   6 -10   14.30   12.54
   0  -6  10    8.51   12.82
   1  -6  10   -7.99   12.65
   1  -6  10   -3.24   10.38
  -1   6 -10   21.57   12.65
  -2   6 -10   33.45   13.88
   2  -6  10  -18.19   11.12
  -3   6 -10   -4.33   16.36
   3  -6  10    3.87   14.92
  -3   6 -10   30.53   15.71
   5   5 -10  -23.89   31.66
  -5  -5  10   26.13   11.66
   4   5 -10    5.33   28.41
  -4  -5  10   16.13    9.91
   3   5 -10    2.53   26.53
   3   5 -10   10.24   11.40
  -3  -5  10   12.99   11.54
  -2  -5  10   28.14   12.66
   2   5 -10   23.20   10.93
  -1  -5  10   33.69   13.63
   1   5 -10   75.30   16.16
   0   5 -10   16.72   11.78
   0  -5  10    3.90   11.47
   1  -5  10    1.25    9.39
   1  -5  10   -9.28    9.67
  -1   5 -10   -0.47    9.50
  -2   5 -10   19.45   14.03
  -2   5 -10   11.44   12.18
   2  -5  10   13.80   11.69
  -3   5 -10   43.19   14.92
  -3   5 -10    3.96   12.90
   3  -5  10    8.76   12.78
   4  -5  10   -2.43   13.54
  -4   5 -10   -1.75   12.96
  -5  -4  10   14.61   10.25
   5   4 -10   22.22   40.55
   4   4 -10   13.08    9.87
   4   4 -10   29.29   33.96
  -4  -4  10   -3.43    8.63
   3   4 -10   13.08   10.78
   3   4 -10   31.73   25.28
  -3  -4  10   15.80   10.69
  -2  -4  10  108.16   17.50
   2   4 -10  141.62   18.35
  -1  -4  10   11.42   12.27
   1   4 -10   32.75   12.47
   0   4 -10   10.48   11.08
   0  -4  10    6.98   12.19
  -1   4 -10   35.08   13.26
   1  -4  10   -0.20    9.88
   1  -4  10   23.49   10.19
  -2   4 -10   10.03   11.33
   2  -4  10   -8.04    7.26
  -2   4 -10   16.58   10.94
  -3   4 -10   -4.81    9.66
   3  -4  10   -3.69    8.68
  -3   4 -10   12.74   11.86
   4  -4  10   -6.11    9.56
  -4   4 -10   -0.40   11.27
   5   3 -10   90.65   39.44
  -4  -3  10    6.68    9.39
   4   3 -10   30.67   38.63
   4   3 -10    7.76   10.46
  -3  -3  10    7.69   10.05
   3   3 -10   25.53   30.12
   3   3 -10   20.24   10.01
   2   3 -10    2.33    9.09
   2   3 -10   24.02   41.91
  -2  -3  10   -1.31   10.77
  -1  -3  10  -11.63    9.66
   1   3 -10   -8.41    7.84
   0  -3  10   88.47   15.75
   0  -3  10  104.68   11.27
   0   3 -10  128.17   16.41
  -1   3 -10  167.47   18.89
  -1   3 -10  158.51   15.48
   1  -3  10  159.31   13.15
   2  -3  10   52.25   10.92
  -2   3 -10   65.10   14.44
  -2   3 -10   71.87   13.88
  -3   3 -10    7.85    9.98
  -3   3 -10   30.22   10.90
   3  -3  10   11.93    8.58
   4  -3  10   11.56    9.10
  -4   3 -10    2.23   11.43
  -5   3 -10   -4.80   13.51
   5  -3  10   11.52   11.69
  -6  -2  10   13.93   11.88
   5   2 -10   32.68   36.65
  -5  -2  10    0.54    8.28
  -4  -2  10    0.32    8.00
   4   2 -10    2.21   37.16
   3   2 -10   22.60   39.61
   3   2 -10   27.47   10.72
  -3  -2  10   12.77   10.26
   2   2 -10   60.73   37.61
  -2  -2  10   18.43   10.99
   2   2 -10   29.65   11.29
   1   2 -10  135.76   34.28
  -1  -2  10  161.00   17.18
   1   2 -10  139.32   14.56
   0  -2  10    1.29    8.69
   0   2 -10    1.93    7.89
   0  -2  10    1.38    4.01
  -1   2 -10   78.27   13.94
   1  -2  10   81.14    9.47
  -1   2 -10   82.82   12.98
   2  -2  10    2.89    5.28
  -2   2 -10    6.71    9.61
  -2   2 -10    9.28    8.22
  -3   2 -10   25.12    9.37
   3  -2  10   12.50    7.56
  -3   2 -10    4.43   10.15
  -4   2 -10    5.02   10.34
   4  -2  10   16.20    8.54
   5  -2  10    5.03   10.19
  -5   2 -10   18.14   12.55
  -6  -1  10   15.72   11.87
   5   1 -10   56.59   39.23
  -4  -1  10   45.59   11.87
   4   1 -10   32.18   34.60
  -4  -1  10   32.80   11.24
   3   1 -10  -17.13   37.95
  -3  -1  10  -17.69    7.38
   2   1 -10   19.32   11.03
   2   1 -10   60.10   37.57
  -2  -1  10   13.57   10.06
  -1  -1  10   73.83   12.04
   1   1 -10  114.50   36.63
   1   1 -10   96.67   14.29
   0  -1  10   -0.85    7.57
   0   1 -10    9.40   22.26
   0   1 -10    8.26    7.38
   0  -1  10   -0.26    2.71
  -1   1 -10   35.08    9.22
   1  -1  10   26.41    5.95
  -1   1 -10   23.30    9.93
  -2   1 -10  176.23   14.80
   2  -1  10  214.43   13.50
  -2   1 -10  213.73   13.05
  -3   1 -10  113.58   15.41
   3  -1  10  101.95   13.44
  -4   1 -10    7.42    9.32
   4  -1  10    5.57    7.14
   5  -1  10   -7.27    7.02
  -5   1 -10   -6.23    9.00
   6  -1  10  -15.20    9.21
  -6   1 -10  -12.89   11.07
   6   0 -10   19.86   39.21
  -6   0  10   23.06   11.76
  -5   0  10    9.92    9.67
   5   0 -10   20.04   37.99
  -4   0  10   16.10    9.69
  -4   0  10   38.51   11.64
   4   0 -10   49.19   36.50
  -3   0  10   27.76   10.10
   3   0 -10   24.71   35.03
  -3   0  10   28.97   10.47
   2   0 -10  200.32   44.65
  -2   0  10  106.67   12.89
  -1   0  10   63.61   10.71
   1   0 -10  121.74   35.46
   1   0 -10   64.79    4.52
   1   0 -10   75.80   13.14
   0   0 -10   43.33    9.61
   0   0 -10   77.90   26.87
   0   0 -10   39.86    5.99
   0   0  10   26.61    8.50
  -1   0 -10  265.55   20.28
  -1   0 -10  266.09   12.40
  -1   0 -10  273.06   14.45
  -1   0 -10  286.78   14.85
  -2   0 -10   18.17    8.63
  -2   0 -10    1.44    6.04
  -2   0 -10   11.58    6.37
  -3   0 -10   21.32    9.89
   3   0  10   22.60    8.05
  -4   0 -10   52.64   12.43
   4   0  10   91.38   14.04
   5   0  10   29.75   10.45
  -5   0 -10    0.14    8.96
   6   0  10    7.80    8.84
  -6   0 -10    7.63   10.42
  -6   1  10   23.78   12.53
   6  -1 -10   -8.57   38.54
   5  -1 -10  -26.86   28.65
  -5   1  10    0.80    8.22
   4  -1 -10   -4.04   28.18
  -4   1  10   -1.45    7.63
  -4   1  10   16.26    9.27
  -3   1  10   19.95    9.12
  -3   1  10   12.34    9.04
   3  -1 -10   47.60   33.99
  -2   1  10   24.25    8.32
  -2   1  10   50.17   10.84
   2  -1 -10   59.74   35.24
  -1   1  10   16.77    7.94
  -1   1  10   20.01    7.49
   1  -1 -10   25.24    4.93
   1  -1 -10   44.72   27.68
   0  -1 -10  217.75   21.35
   0  -1 -10  213.40    9.84
   0   1  10  201.82   12.40
  -1  -1 -10  618.73   28.95
  -1  -1 -10  604.70   17.81
  -1  -1 -10  580.88   19.98
  -1  -1 -10  598.19   18.01
  -2  -1 -10  153.18   11.71
  -2  -1 -10  163.04   10.35
  -2  -1 -10  165.34   11.83
  -3  -1 -10   32.16    9.37
   3   1  10   11.02   19.05
  -3  -1 -10   47.07   10.25
  -4  -1 -10    0.48    7.27
   4   1  10   18.31   20.52
  -4  -1 -10   -3.60    7.20
   5   1  10   12.89    7.06
  -5  -1 -10    5.37    9.08
   6   1  10   14.03    8.34
  -6  -1 -10    4.83   10.37
   6  -2 -10   -1.91   35.78
   5  -2 -10   22.09   30.89
  -4   2  10   17.91   10.96
  -4   2  10    9.67    8.21
   4  -2 -10   17.04   30.03
   3  -2 -10  116.02   40.82
  -3   2  10   96.54   13.23
  -3   2  10   76.07   14.05
  -2   2  10   70.76    9.68
  -2   2  10   69.18   13.06
   2  -2 -10   72.22   10.98
   2  -2 -10  101.10   37.74
   1  -2 -10  470.38   30.41
  -1   2  10  444.33   21.03
  -1   2  10  446.77   14.08
   1  -2 -10  469.30   14.79
   0  -2 -10  661.86   31.50
   0  -2 -10  681.23   17.84
   0   2  10  630.07   15.49
   0   2  10  641.86   23.31
   1   2  10  454.28   18.33
  -1  -2 -10  455.93   14.04
  -1  -2 -10  445.25   15.84
  -1  -2 -10  469.89   26.42
   2   2  10  526.75   33.38
  -2  -2 -10  561.55   19.59
   2   2  10  559.45   18.34
  -2  -2 -10  554.71   18.14
   3   2  10   32.15   22.45
  -3  -2 -10   72.75   11.24
  -3  -2 -10   95.51   11.88
  -4  -2 -10   10.11    8.18
  -4  -2 -10   14.98    8.37
   4   2  10   17.67   22.31
  -5  -2 -10   13.82    9.66
  -5  -2 -10   18.72    9.19
   5   2  10   36.72   29.92
  -6  -2 -10    1.06    8.30
   6   2  10   25.67    8.82
   5  -3 -10   51.75   34.41
   4  -3 -10   -5.04   28.19
  -4   3  10   -1.03    9.95
  -3   3  10   57.62   14.35
   3  -3 -10   91.66   37.24
  -2   3  10    7.08    9.14
   2  -3 -10   14.09   10.44
   2  -3 -10   -9.00   27.10
   1  -3 -10  110.89   12.56
   1  -3 -10  174.35   38.02
  -1   3  10  127.09   15.86
   0  -3 -10  145.43   20.90
   0  -3 -10  146.13   10.94
   0   3  10  141.57   12.74
   1   3  10  146.27   11.76
  -1  -3 -10  162.34   11.35
  -1  -3 -10  181.81    8.33
  -1  -3 -10  174.15   19.68
  -2  -3 -10   25.17    7.56
  -2  -3 -10   34.90    7.04
   2   3  10   -4.63   20.11
   2   3  10   31.39    7.35
  -3  -3 -10   50.61    9.39
   3   3  10   31.81   23.71
  -3  -3 -10   64.95   10.99
  -4  -3 -10   24.27    8.85
   4   3  10   13.59   22.27
  -4  -3 -10   36.83   10.29
  -5  -3 -10   17.01    8.80
   5   3  10   13.97   24.98
  -5  -3 -10   36.24   10.82
  -6  -3 -10    4.06    8.75
   6   3  10   35.94   31.29
  -6  -3 -10   22.20   10.64
  -4   4  10   41.23   14.39
   4  -4 -10   16.15   31.53
   3  -4 -10    0.27   12.51
   3  -4 -10   33.65   28.18
  -3   4  10   -3.79    9.53
  -2   4  10   20.00   10.74
   2  -4 -10    8.66   12.07
   2  -4 -10    2.72   29.47
   1  -4 -10    9.69   26.03
   1  -4 -10   23.31   10.38
  -1   4  10   23.60   10.04
   0  -4 -10   23.65    9.65
   0  -4 -10   61.29   28.95
   0   4  10   46.01   11.86
  -1  -4 -10  113.79   33.25
   1   4  10   59.55   11.60
  -1  -4 -10   54.66    9.91
   2   4  10  132.82   11.00
  -2  -4 -10  138.22   12.16
  -3  -4 -10   33.99    8.04
  -3  -4 -10   30.67    9.34
   3   4  10   -4.63   21.64
  -4  -4 -10   44.11   11.18
  -4  -4 -10   36.17    9.35
   4   4  10    8.73   19.84
  -5  -4 -10   10.88    7.90
  -5  -4 -10   29.67   10.76
   5   4  10   19.75   23.43
  -6  -4 -10   14.22    9.96
  -6  -4 -10    1.11    8.88
   6   4  10   31.49   33.77
  -4   5  10   32.44   14.25
   3  -5 -10   23.68   14.32
   3  -5 -10   17.83   30.16
  -3   5  10   17.10   12.17
  -2   5  10    8.07   10.14
   2  -5 -10   16.37   12.55
   2  -5 -10   23.77   27.06
   1  -5 -10   11.55   12.18
  -1   5  10   20.08   10.75
   1  -5 -10   28.66   28.41
   0  -5 -10   22.69   10.24
   0   5  10   13.22    9.70
   0  -5 -10   17.32   23.38
   1   5  10   40.31   11.13
  -1  -5 -10   25.61    9.42
  -2  -5 -10   13.84    7.93
   2   5  10   -7.91   21.97
   2   5  10   16.69    8.26
   3   5  10   58.94   28.40
  -3  -5 -10  195.56   14.89
  -4  -5 -10    4.95    6.73
   4   5  10   -0.47   21.09
  -5  -5 -10    5.33    7.74
   5   5  10   -1.42   22.36
   6   5  10   28.25   34.07
  -6  -5 -10    6.57    9.40
  -4   6  10   29.82   16.85
   3  -6 -10   18.34   14.84
  -3   6  10   28.83   13.68
   2  -6 -10    9.97   26.23
  -2   6  10   11.77   10.80
   2  -6 -10   37.59   13.86
   1  -6 -10    5.44   24.33
  -1   6  10   11.96    9.62
   1  -6 -10    3.62   11.60
   0  -6 -10   -9.81   21.67
   0   6  10    5.78    9.63
   0  -6 -10   -5.44    8.34
   1   6  10  116.68   37.03
   1   6  10  170.97   16.06
  -1  -6 -10  173.80   15.74
   2   6  10   84.29   13.58
   2   6  10   10.21   25.80
  -2  -6 -10   94.03   13.54
   3   6  10    3.08   25.55
  -3  -6 -10   21.59    8.79
   4   6  10   19.37   25.15
  -4  -6 -10    7.11    7.18
  -5  -6 -10   14.77    8.88
   5   6  10   22.53   28.00
  -6  -6 -10   -1.71    9.09
   3  -7 -10   24.02   14.89
  -3   7  10   29.24   15.85
  -2   7  10   20.10   13.69
   2  -7 -10   27.50   12.94
  -1   7  10   12.07   11.60
   1  -7 -10   12.59   11.99
   0  -7 -10   41.82   12.47
   0   7  10   35.42   13.99
   1   7  10    9.12    9.82
  -1  -7 -10    8.34    8.10
   1   7  10   -7.14   20.81
   2   7  10    3.38    8.55
  -2  -7 -10    3.10    7.26
   2   7  10    5.84   22.05
   3   7  10   28.38   28.90
  -3  -7 -10    4.65    6.94
   4   7  10   34.77   28.96
  -4  -7 -10   11.59    7.26
   5   7  10   -9.27   27.68
  -5  -7 -10   10.13    7.70
   3  -8 -10   34.34   16.02
   2  -8 -10   38.38   14.14
  -2   8  10   20.12   14.36
  -1   8  10   22.10   13.04
   1  -8 -10   29.66   12.37
   0  -8 -10    0.87    9.02
   0   8  10   14.50   12.62
   1   8  10   11.03   20.50
   1   8  10   21.11   11.31
  -1  -8 -10   21.71   10.06
   2   8  10    1.19   22.42
  -2  -8 -10   29.14   10.44
  -3  -8 -10   27.60    9.35
   3   8  10   15.73   25.58
   4   8  10   26.83   29.21
  -4  -8 -10   12.89    7.60
  -5  -8 -10    7.63    7.97
  -1   9  10   28.24   17.03
   1  -9 -10   11.28   11.77
   0  -9 -10   20.79    9.78
   0   9  10   12.26   12.94
   1   9  10   23.65   13.28
  -1  -9 -10   14.12    9.64
  -2  -9 -10   29.74   11.45
   2   9  10    5.23   20.44
  -3  -9 -10   16.58    8.40
   3   9  10   23.22   22.54
  -4  -9 -10   19.57    9.08
   1  10  10   28.71   16.40
   3   7 -11   15.83   13.26
  -3  -7  11   24.36   13.26
   2   7 -11   31.87   14.62
  -2  -7  11    4.38   13.17
   1   7 -11   27.28   14.75
  -1  -7  11    8.47   13.44
   0   7 -11   34.08   15.30
   0  -7  11   -0.74   13.04
  -1   7 -11    9.43   15.36
   1  -7  11    3.05   13.29
   2  -7  11   -5.55   11.45
  -2   7 -11   13.16   15.75
  -4  -6  11    2.58   10.43
  -3  -6  11   25.01   11.81
   3   6 -11   29.31   12.22
   2   6 -11   11.08   11.79
  -2  -6  11   19.14   13.05
   1   6 -11   42.48   15.07
  -1  -6  11    1.83   12.49
   0  -6  11   -3.02   12.08
   0   6 -11   49.98   15.45
  -1   6 -11   14.10   11.98
   1  -6  11   -4.83   11.25
   2  -6  11  -13.43   11.10
  -2   6 -11   49.10   16.26
   2  -6  11   16.42    9.75
  -3   6 -11    9.34   17.77
   3  -6  11   -7.34   13.50
  -3   6 -11   51.55   17.38
   5   5 -11   25.39   34.97
  -4  -5  11   13.42   10.14
   4   5 -11   35.25   29.32
  -3  -5  11   46.30   14.11
   3   5 -11   59.80   14.78
   2   5 -11   11.34   10.96
  -2  -5  11   -3.08   10.62
  -1  -5  11    7.06   11.64
   1   5 -11   20.15   11.37
   0   5 -11    4.54   11.28
   0  -5  11  -11.96   11.48
   1  -5  11   39.47   13.27
  -1   5 -11   60.39   16.73
   1  -5  11    1.86   10.27
  -2   5 -11    9.72   13.36
   2  -5  11   12.36   11.24
  -2   5 -11   31.82   14.25
   3  -5  11    7.23   12.15
  -3   5 -11   37.73   14.80
  -3   5 -11    1.11   12.84
   4  -5  11   -4.31   12.88
  -4   5 -11   -8.58   13.73
   5   4 -11   25.05   34.20
  -5  -4  11   17.04   10.85
   4   4 -11    5.51   28.12
  -4  -4  11    6.57    8.86
   4   4 -11   20.81   10.52
   3   4 -11   16.70   10.42
  -3  -4  11   10.01   11.45
   3   4 -11   -5.69   25.46
   2   4 -11  -19.74   23.30
   2   4 -11   29.11   12.33
  -2  -4  11   21.72   12.80
   1   4 -11   14.93   10.89
  -1  -4  11    7.48   12.00
   0  -4  11    9.08   12.30
   0   4 -11    9.57   10.89
   1  -4  11    1.70    7.62
  -1   4 -11   15.56   12.40
   1  -4  11  -10.64    7.98
  -2   4 -11   13.53   11.72
   2  -4  11    4.18    8.28
  -2   4 -11   15.86   10.91
   3  -4  11  -15.47    7.64
  -3   4 -11   -2.14   10.90
  -3   4 -11   13.27   11.91
   4  -4  11   -9.60    9.25
  -4   4 -11    3.58   12.68
  -5  -3  11   10.58    9.18
   5   3 -11   27.45   40.35
   4   3 -11   11.32   37.13
   4   3 -11    9.44    9.76
  -4  -3  11   -4.16    7.96
   3   3 -11  137.83   14.66
  -3  -3  11  135.63   17.74
   2   3 -11   17.04   28.14
  -2  -3  11   74.54   16.17
   2   3 -11  127.56   18.37
  -1  -3  11   14.08   12.36
   1   3 -11   23.12   11.61
   0   3 -11    4.07    9.51
   0  -3  11  -15.95    9.89
  -1   3 -11   21.57   11.35
   1  -3  11   15.37    8.64
   2  -3  11   11.91    7.63
  -2   3 -11   30.30   12.58
  -2   3 -11   23.03   11.03
  -3   3 -11    8.03   10.43
  -3   3 -11   15.39   11.02
   3  -3  11    5.17    8.28
   4  -3  11    7.39    9.14
  -4   3 -11   -5.14   11.20
   5  -3  11  -12.87    9.44
  -5   3 -11   14.53   14.99
  -6  -2  11   23.58   11.95
  -5  -2  11   11.68    9.68
   5   2 -11   -5.13   32.08
   4   2 -11    1.33   36.41
  -4  -2  11    9.34    9.22
   3   2 -11    8.17   40.21
   3   2 -11   34.77   11.91
  -3  -2  11   10.03   10.19
   2   2 -11  129.98   17.05
  -2  -2  11  102.68   15.98
   2   2 -11   58.01   34.99
   1   2 -11  226.57   25.12
  -1  -2  11  239.52   18.72
   1   2 -11  251.99   17.87
   0  -2  11   17.16   11.09
   0  -2  11   33.59    6.66
   0   2 -11   27.67   11.21
   1  -2  11    7.51    5.73
  -1   2 -11    9.91    8.57
  -1   2 -11   -4.78   10.33
  -2   2 -11    5.77   10.16
   2  -2  11   19.61    7.34
  -2   2 -11   15.00    9.33
   3  -2  11    8.81    6.70
  -3   2 -11   -3.39    9.56
   4  -2  11   10.15    8.49
  -4   2 -11   12.07   11.43
   5  -2  11   17.00   11.30
  -5   2 -11   22.73   12.15
  -6  -1  11    3.95   11.21
   5   1 -11   20.40   39.10
  -5  -1  11   14.54   10.25
  -4  -1  11   39.55   11.42
  -4  -1  11   38.33   12.85
   4   1 -11   45.98   39.71
   3   1 -11  -27.34   36.22
  -3  -1  11    3.32    8.95
  -2  -1  11   22.04   11.23
   2   1 -11   26.97   11.79
   2   1 -11   32.91   38.29
  -1  -1  11   26.43   11.02
   1   1 -11   56.61   35.52
   1   1 -11   59.12   13.11
   0  -1  11   25.74    5.05
   0   1 -11   24.12   10.00
   0   1 -11   44.22   27.04
   0  -1  11   15.58    9.91
   1  -1  11  146.59    9.95
  -1   1 -11  157.98   15.26
  -1   1 -11  162.91   13.50
   2  -1  11  106.57   12.01
  -2   1 -11   96.83   13.89
  -2   1 -11  107.55   11.47
   3  -1  11  100.26   13.45
  -3   1 -11  107.07   15.61
  -4   1 -11    2.68    9.37
   4  -1  11    5.90    6.54
   5  -1  11    8.46    8.76
  -5   1 -11   14.20   10.41
  -6   0  11   15.30   12.10
  -5   0  11    7.71    8.83
   5   0 -11   10.14   32.65
  -4   0  11   26.55   10.21
   4   0 -11  -18.31   28.92
  -4   0  11   16.14    8.71
   3   0 -11  119.00   44.54
  -3   0  11  119.78   15.10
  -3   0  11  118.14   16.44
  -2   0  11   30.36   10.33
   2   0 -11   25.91   34.01
  -1   0  11   84.93   11.77
   1   0 -11   93.36   14.87
   1   0 -11  160.08   39.90
   0   0  11  207.09   14.62
   0   0 -11  225.84   10.10
   0   0 -11  214.40   21.15
   0   0 -11  199.68   14.09
  -1   0 -11    6.32    5.92
  -1   0 -11   17.56    7.51
  -1   0 -11   14.40    8.58
  -1   0 -11   15.32   23.29
  -2   0 -11    2.30    6.75
  -2   0 -11   -6.84    6.14
  -2   0 -11    0.03    8.18
  -3   0 -11  134.00   15.87
   3   0  11  120.30   13.89
   4   0  11   24.07    9.14
  -4   0 -11   23.91   10.92
  -5   0 -11   -4.63    9.19
   5   0  11    9.50    7.44
  -6   0 -11   -3.35    9.05
   6   0  11    8.66    9.72
   5  -1 -11   -7.50   33.65
  -5   1  11    6.72    9.41
   4  -1 -11   36.17   32.72
  -4   1  11   35.26   13.07
  -4   1  11   36.63   10.93
  -3   1  11   52.98   12.61
  -3   1  11   44.49   11.22
   3  -1 -11   77.55   37.91
   2  -1 -11    0.03   32.19
  -2   1  11    7.80    7.50
  -2   1  11   -6.03    6.95
   1  -1 -11   15.48    4.72
   1  -1 -11   36.53   28.10
  -1   1  11   14.67    8.06
  -1   1  11   10.30    7.28
   0  -1 -11   56.61   28.53
   0  -1 -11   36.67    6.23
   0   1  11   30.46    8.93
  -1  -1 -11    7.32    7.49
  -1  -1 -11   -0.88    4.70
  -1  -1 -11  -10.30    5.95
  -1  -1 -11    6.69   22.90
  -2  -1 -11   17.70    7.36
  -2  -1 -11    6.43    7.23
  -2  -1 -11    8.82    6.85
   2   1  11  -14.85   20.65
  -3  -1 -11  148.35   14.08
  -3  -1 -11  141.66   13.01
  -4  -1 -11   73.21   13.23
   4   1  11   20.43   18.64
  -4  -1 -11   84.12   13.47
  -5  -1 -11  -20.04    8.00
   5   1  11    5.97    6.83
   6   1  11    5.87    7.51
  -6  -1 -11   -2.73   10.06
   5  -2 -11   44.74   31.29
   4  -2 -11    2.68   30.92
  -4   2  11   10.70   10.43
  -3   2  11   56.89   13.87
  -3   2  11   64.59   11.67
   3  -2 -11   84.52   40.17
  -2   2  11   -2.31    7.24
   2  -2 -11    1.06   30.91
  -2   2  11    4.07    6.49
   1  -2 -11   70.99    8.84
  -1   2  11   73.00    8.80
  -1   2  11   91.63   13.63
   1  -2 -11  104.38   35.32
   0  -2 -11   12.77   24.44
   0   2  11   18.09    7.99
   0   2  11   15.44    6.39
   0  -2 -11   13.07    5.99
  -1  -2 -11  -16.33   20.80
   1   2  11    1.82    5.54
  -1  -2 -11    8.64    5.83
  -1  -2 -11   -4.98    5.78
   2   2  11    5.12    5.44
   2   2  11  -23.15   19.82
  -2  -2 -11   -7.88    5.43
  -2  -2 -11   -4.54    5.80
   3   2  11   27.63   21.39
  -3  -2 -11   30.91    9.41
  -3  -2 -11   49.04   10.70
   4   2  11   37.18   24.43
  -4  -2 -11  119.89   15.18
  -4  -2 -11  116.28   14.62
  -5  -2 -11   40.85   12.48
  -5  -2 -11   63.62   13.41
   5   2  11   55.08   31.25
   6   2  11   32.25    9.46
  -6  -2 -11   17.98   11.03
   5  -3 -11   41.77   35.52
  -4   3  11   10.34   10.80
   4  -3 -11   15.49   31.36
   3  -3 -11   42.30   32.12
  -3   3  11   37.47   13.39
  -2   3  11  148.31   18.32
   2  -3 -11  141.26   15.45
   2  -3 -11  119.59   39.01
   1  -3 -11  138.53   11.93
  -1   3  11  142.57   13.93
   1  -3 -11  199.41   40.18
   0   3  11   32.50    9.85
   0  -3 -11   24.79    7.57
   0  -3 -11   42.91   27.96
  -1  -3 -11  305.52   24.83
   1   3  11  322.96   17.10
  -1  -3 -11  310.78   15.46
  -2  -3 -11  286.95   15.81
  -2  -3 -11  288.41   13.21
   2   3  11  290.40   14.74
  -3  -3 -11   -6.05    6.36
  -3  -3 -11   -4.61    5.81
   3   3  11   15.51   22.57
  -4  -3 -11   14.59    8.14
   4   3  11   22.95   23.86
  -4  -3 -11   23.16    9.33
  -5  -3 -11    6.42    8.19
   5   3  11   22.07   27.67
  -5  -3 -11    4.75    7.55
   6   3  11   43.76   34.42
  -6  -3 -11    6.30    9.49
  -6  -3 -11   13.95   10.02
   4  -4 -11   20.45   27.34
  -4   4  11   34.19   14.06
   3  -4 -11  -21.17   25.02
  -3   4  11    1.16   10.03
  -2   4  11    4.23    8.88
   2  -4 -11   -7.70    9.96
   2  -4 -11    4.73   30.33
   1  -4 -11   98.05   34.99
  -1   4  11   87.92   15.45
   1  -4 -11   80.05   13.40
   0  -4 -11   99.26   12.42
   0  -4 -11  124.10   33.21
   0   4  11   91.97   14.61
  -1  -4 -11   51.36   26.89
  -1  -4 -11   34.89    9.24
   1   4  11   34.07   10.62
   2   4  11   95.46   12.41
  -2  -4 -11   70.99   11.37
   2   4  11   27.66   23.15
  -3  -4 -11   82.16   12.66
   3   4  11   27.97   23.28
  -4  -4 -11  105.94   15.01
   4   4  11   14.68   24.89
   5   4  11   11.40   23.51
  -5  -4 -11   26.56   10.18
  -5  -4 -11   19.06    9.25
   6   4  11   19.86   34.28
  -6  -4 -11   -1.21    8.99
  -6  -4 -11   10.68    9.83
  -4   5  11   28.15   14.65
   3  -5 -11   22.35   28.47
   3  -5 -11   24.67   12.98
  -3   5  11   23.57   12.31
   2  -5 -11   32.55   29.55
   2  -5 -11   85.62   14.77
  -2   5  11   63.50   16.40
   1  -5 -11   30.70   30.22
   1  -5 -11   36.22   12.19
  -1   5  11   26.77   11.37
   0   5  11   -4.98    7.46
   0  -5 -11    5.88    9.35
   0  -5 -11  -15.68   22.06
  -1  -5 -11   42.97   10.61
   1   5  11   39.56   11.58
  -1  -5 -11   37.11   30.89
   2   5  11   87.02   12.32
   2   5  11    6.66   26.59
  -2  -5 -11   73.10   12.35
  -3  -5 -11   13.22    7.37
   3   5  11   29.57   27.30
   4   5  11   15.75   25.61
  -4  -5 -11   23.63    8.54
   5   5  11   38.30   26.60
  -5  -5 -11    7.33    8.12
  -6  -5 -11    0.68    8.45
   6   5  11    3.44   35.55
  -4   6  11   30.32   16.89
   3  -6 -11   42.17   14.16
  -3   6  11   -0.08   11.04
   2  -6 -11    0.98   26.80
  -2   6  11    5.34   11.22
   2  -6 -11   14.72   12.53
  -1   6  11   27.13   11.57
   1  -6 -11   47.05   26.19
   1  -6 -11   21.24   11.71
   0  -6 -11   50.13   12.44
   0  -6 -11   41.56   25.14
   0   6  11   41.87   12.01
  -1  -6 -11    4.84    8.39
   1   6  11    6.65    8.48
   2   6  11  126.84   15.99
  -2  -6 -11  124.01   15.17
   2   6  11   39.09   29.48
  -3  -6 -11    9.26    7.12
   3   6  11    0.45   23.16
  -4  -6 -11    9.93    7.17
   4   6  11   31.40   25.10
   5   6  11    7.99   27.29
  -5  -6 -11   11.81    7.63
  -6  -6 -11   -0.03    8.30
  -3   7  11   13.08   15.51
   3  -7 -11   58.09   15.68
   2  -7 -11   -7.34   11.25
  -2   7  11   -4.11   11.55
   1  -7 -11   24.27   12.68
   1  -7 -11   52.81   24.93
  -1   7  11   23.29   12.52
   0  -7 -11   43.88   12.49
   0  -7 -11   22.43   28.81
   0   7  11   47.29   14.85
   1   7  11   14.67   10.32
  -1  -7 -11    5.03    7.74
   1   7  11  -17.15   21.56
  -2  -7 -11    2.72    7.00
   2   7  11   -4.26   22.89
   3   7  11    8.38   25.97
  -3  -7 -11    9.79    6.81
  -4  -7 -11    7.16    6.71
   4   7  11   32.88   28.70
   5   7  11   16.66   30.77
  -5  -7 -11   -2.84    7.28
   3  -8 -11   21.46   14.68
   2  -8 -11   47.75   14.92
  -2   8  11   19.09   14.57
  -1   8  11    4.10   12.13
   1  -8 -11   20.74   11.23
   0  -8 -11   36.62   10.30
   0   8  11   20.52   12.71
   0   8  11    8.60   19.89
   1   8  11   11.17   10.66
  -1  -8 -11    8.84    7.74
   1   8  11   16.62   19.59
   2   8  11   15.11   22.46
  -2  -8 -11   13.23    8.06
   3   8  11   30.13   30.10
  -3  -8 -11    0.68    6.46
  -4  -8 -11    7.30    7.91
   4   8  11   26.51   31.95
   1  -9 -11   33.88   13.38
  -1   9  11   24.67   17.56
   0   9  11   29.37   14.79
   0  -9 -11   42.84   11.05
   1   9  11   24.64   14.36
  -1  -9 -11   30.87    9.11
  -2  -9 -11   11.37    8.59
   2   9  11   38.20   23.07
  -3  -9 -11   12.89    8.42
   3   9  11    8.53   23.83
   1  10  11   18.33   15.93
   3   7 -12   17.87   14.08
   2   7 -12   -5.78   12.15
  -2  -7  12    9.38   12.96
  -1  -7  12   -3.38   12.90
   1   7 -12   34.50   16.39
   0  -7  12   -5.45   13.54
   0   7 -12    6.55   14.31
  -1   7 -12   33.40   17.15
   1  -7  12   11.19   15.13
   3   6 -12   20.44   13.26
  -3  -6  12    9.02   12.20
   2   6 -12   24.43   12.11
  -2  -6  12   19.06   13.43
   1   6 -12   23.38   13.77
  -1  -6  12   -8.77   10.43
   0  -6  12   14.77   15.08
   0   6 -12   69.00   17.99
  -1   6 -12   54.10   15.81
   1  -6  12    2.04   11.65
   2  -6  12   -8.85   13.03
   2  -6  12   12.11   10.85
  -2   6 -12   26.99   15.65
   3  -6  12   -2.57   14.24
  -4  -5  12    6.82   10.74
   4   5 -12   -1.50   28.04
   4   5 -12    4.03   11.90
   3   5 -12   30.32   11.92
  -3  -5  12    7.74   11.41
   2   5 -12   12.57   10.60
  -2  -5  12   -2.42    9.98
  -1  -5  12   17.32   13.50
   1   5 -12   22.35   12.62
   0   5 -12   17.86   12.31
   0  -5  12   -3.55   12.60
  -1   5 -12   23.83   13.69
   1  -5  12   -5.24    9.71
  -2   5 -12   22.76   13.92
   2  -5  12   -0.86    9.90
  -3   5 -12   15.72   15.08
   3  -5  12   -5.26   10.43
   5   4 -12  -22.75   32.66
  -5  -4  12   23.48   11.74
   4   4 -12    5.38   28.25
   4   4 -12   18.04   12.27
  -4  -4  12   12.38   10.11
  -3  -4  12   -2.66    9.60
   3   4 -12   21.88   10.99
   3   4 -12  -15.00   29.53
   2   4 -12    4.73    9.78
  -2  -4  12   10.23   11.80
   1   4 -12   17.05   10.25
  -1  -4  12   -0.20   10.94
   0   4 -12   94.60   17.02
   0  -4  12   50.33   16.43
   1  -4  12   55.43   13.82
   1  -4  12  116.85   14.71
  -1   4 -12  123.36   19.11
  -2   4 -12   13.82   13.40
   2  -4  12    7.44    9.04
  -2   4 -12   17.99   14.18
   3  -4  12    9.33   10.42
  -3   4 -12   21.86   13.19
   4  -4  12    0.20   10.84
  -4   4 -12    1.14   13.37
   5   3 -12   26.61   37.61
  -5  -3  12   13.81   11.03
   4   3 -12   16.95   11.66
   4   3 -12  -15.01   47.35
  -4  -3  12    9.72    9.92
   3   3 -12   29.13   11.32
  -3  -3  12   46.06   14.16
   3   3 -12   -8.81   30.45
   2   3 -12  126.53   19.07
  -2  -3  12   98.76   17.54
   2   3 -12   22.85   27.19
  -1  -3  12   12.05   12.34
   1   3 -12    8.03   10.67
   0  -3  12    5.01   12.79
   0   3 -12   19.03   11.42
  -1   3 -12    8.56   10.64
   1  -3  12    3.95    7.12
   1  -3  12    7.09   10.89
  -2   3 -12   -0.64   10.15
  -2   3 -12    4.51    9.96
   2  -3  12   -3.57    5.83
   3  -3  12    8.12    8.61
  -3   3 -12   -1.60   10.24
  -4   3 -12    7.31   11.26
   4  -3  12   15.69    9.94
   5  -3  12    5.69   12.45
   5   2 -12  -24.69   36.62
  -5  -2  12   10.80   10.76
   4   2 -12   -7.06   41.05
  -4  -2  12    2.16    8.68
   3   2 -12   44.57   37.35
  -3  -2  12    6.77    9.14
   3   2 -12    3.51    9.58
  -2  -2  12  114.87   17.74
   2   2 -12   17.20   32.12
   2   2 -12  138.76   17.99
  -1  -2  12   87.63   15.97
   1   2 -12  115.35   17.47
   1   2 -12   24.38   30.16
   0   2 -12   14.70   10.75
   0  -2  12    6.47   11.57
  -1   2 -12  202.28   17.82
  -1   2 -12  185.62   15.95
   1  -2  12  171.21   11.97
  -2   2 -12   17.17    9.50
   2  -2  12    4.69    5.71
  -2   2 -12    5.01    9.20
   3  -2  12   19.32    8.62
  -3   2 -12   11.87   10.50
   4  -2  12   11.82    9.81
  -4   2 -12   -6.26   10.01
   5  -2  12    1.64   10.01
  -5   2 -12  -20.20   10.87
  -6  -1  12   10.07   11.54
  -5  -1  12   11.68   10.49
   5   1 -12  -43.52   28.52
  -4  -1  12   16.19    9.15
   4   1 -12   -5.20   35.74
  -4  -1  12    3.72    9.71
  -3  -1  12   42.58   11.39
   3   1 -12   -1.92   36.64
   2   1 -12  131.63   42.63
  -2  -1  12  203.90   17.56
   2   1 -12  209.68   17.63
  -1  -1  12   76.09   14.49
   1   1 -12   68.02   13.37
   1   1 -12   65.25   34.98
   0  -1  12   21.52   11.15
   0  -1  12   29.63    5.28
   0   1 -12   36.64   11.60
   0   1 -12   17.42   28.37
  -1   1 -12    1.50    9.95
  -1   1 -12    1.98    7.73
   1  -1  12   -4.70    3.09
   2  -1  12   34.12    8.08
  -2   1 -12   58.75   11.99
  -2   1 -12   35.79   11.72
   3  -1  12   -1.82    5.65
  -3   1 -12  -14.04    8.40
  -4   1 -12    1.65    9.89
   4  -1  12    7.60    7.48
  -5   1 -12    7.82   10.61
   5  -1  12    6.00    8.54
  -6   0  12   17.29   11.70
  -5   0  12   15.96    9.97
   5   0 -12   -0.11   32.39
  -4   0  12    4.69    8.73
   4   0 -12   12.04   31.95
  -4   0  12    7.57    9.44
  -3   0  12   -3.24    7.70
   3   0 -12    1.21   33.19
  -3   0  12    4.49    7.90
   2   0 -12  105.68   43.07
  -2   0  12   45.72   11.96
  -1   0  12  174.54   14.74
   1   0 -12  175.94   15.38
   1   0 -12  203.11   26.56
   0   0 -12  111.14   14.91
   0   0 -12  111.42   33.18
   0   0 -12   76.94    8.46
   0   0  12   76.48   12.79
  -1   0 -12   60.32    9.30
  -1   0 -12   63.10   11.18
  -1   0 -12   58.45   27.75
  -1   0 -12   49.35   12.03
  -2   0 -12   93.34   12.17
  -2   0 -12   82.83   12.59
  -2   0 -12   92.05    9.66
   3   0  12   14.86    7.20
  -3   0 -12   10.89    9.66
   4   0  12   -0.79    5.32
  -4   0 -12    1.32    9.06
   5   0  12   26.16   10.07
  -5   0 -12   22.51   11.45
  -6   0 -12   28.75   13.67
   5  -1 -12   48.62   39.13
   4  -1 -12   32.37   32.26
  -4   1  12   41.93   13.16
  -4   1  12   40.54   12.90
  -3   1  12   39.55   10.36
  -3   1  12   40.63   11.82
   3  -1 -12   37.81   34.83
  -2   1  12    8.16    8.58
  -2   1  12    6.28    8.02
   2  -1 -12    8.23   35.95
   1  -1 -12  585.81   36.67
  -1   1  12  615.87   21.03
  -1   1  12  601.79   26.25
   0  -1 -12  166.80    9.70
   0   1  12  176.24   13.72
   0  -1 -12  156.42   21.83
  -1  -1 -12   68.89   12.15
  -1  -1 -12   56.03   29.23
  -1  -1 -12   45.82   10.74
  -1  -1 -12   57.56    9.20
  -2  -1 -12  449.09   19.82
  -2  -1 -12  478.40   18.80
  -2  -1 -12  461.04   19.76
  -3  -1 -12  106.74   14.03
  -3  -1 -12  112.17   14.50
  -4  -1 -12   50.28   12.48
  -5  -1 -12   10.84    9.45
   5   1  12   13.85    7.61
  -6  -1 -12   18.52   11.67
   6   1  12   19.48    9.96
   5  -2 -12   35.31   36.09
  -4   2  12   22.01   11.45
   4  -2 -12   -6.29   29.31
  -3   2  12  123.24   18.09
   3  -2 -12  122.11   41.55
  -2   2  12   63.83   12.79
   2  -2 -12   51.33   37.67
  -1   2  12  143.85   16.71
   1  -2 -12  132.60   37.96
   1  -2 -12   93.73    8.66
  -1   2  12  100.16    9.91
   0  -2 -12  164.38   22.94
   0  -2 -12  166.93   10.34
   0   2  12  145.64   10.98
   0   2  12  156.05   13.88
  -1  -2 -12    9.20    7.74
   1   2  12    6.73    6.70
  -1  -2 -12  -13.37   23.62
  -1  -2 -12    8.47    6.68
   2   2  12   14.96   25.50
   2   2  12   19.59    7.34
  -2  -2 -12   12.09    7.74
  -2  -2 -12   20.37    7.84
  -3  -2 -12   -0.02    7.04
   3   2  12    6.41   21.95
  -3  -2 -12    2.87    7.93
   4   2  12    8.22   22.90
  -4  -2 -12    2.82    7.78
  -4  -2 -12   18.52    8.52
  -5  -2 -12   -2.69    8.62
  -5  -2 -12   -5.19    7.47
  -6  -2 -12   12.90   10.97
   6   2  12   33.67   10.10
   5  -3 -12   34.34   35.24
   4  -3 -12   53.58   35.86
  -4   3  12   15.99   11.98
  -3   3  12   13.05   10.41
   3  -3 -12   16.73   29.24
  -2   3  12    2.47    9.19
   2  -3 -12   -5.83   31.14
   1  -3 -12   83.08   34.29
   1  -3 -12   70.49   10.74
  -1   3  12   69.80   14.08
   0  -3 -12  121.44   10.63
   0  -3 -12  256.21   42.52
   0   3  12  134.03   13.38
  -1  -3 -12  142.15   33.26
  -1  -3 -12  101.62   11.74
   1   3  12  103.46   11.25
   2   3  12   28.13   24.33
  -2  -3 -12   33.53    7.79
  -2  -3 -12   20.51    8.24
   2   3  12   29.17    8.11
  -3  -3 -12   75.19   12.49
   3   3  12   31.59   24.62
  -3  -3 -12   58.44   10.18
  -4  -3 -12    0.03    6.82
   4   3  12   35.11   26.83
  -4  -3 -12    5.24    7.72
  -5  -3 -12   52.81   12.83
   5   3  12   21.78   25.64
  -5  -3 -12   29.79   11.05
  -6  -3 -12   18.63   10.11
  -6  -3 -12   10.20   11.13
   4  -4 -12    6.53   30.44
  -4   4  12   15.95   11.40
   3  -4 -12  -11.73   29.86
  -3   4  12   10.32   10.85
  -2   4  12   16.26   10.72
   2  -4 -12    0.22   29.00
   2  -4 -12   11.02    9.69
   1  -4 -12   -7.64   28.78
  -1   4  12    3.26    9.16
   1  -4 -12  -12.87    8.67
   0   4  12   11.31    8.93
   0  -4 -12   13.40   26.76
   0  -4 -12    9.11    8.29
   1   4  12   28.71   10.00
  -1  -4 -12   21.72   24.65
  -1  -4 -12   28.31    9.07
  -2  -4 -12   -1.23    6.32
   2   4  12   -0.24   22.04
   2   4  12    1.29    6.93
   3   4  12   24.50   25.43
  -3  -4 -12  144.67   15.52
   4   4  12   -1.70   22.98
  -4  -4 -12   15.07    8.18
   5   4  12    0.62   24.02
  -5  -4 -12   35.99   11.40
   6   4  12   53.46   36.84
  -6  -4 -12    7.39    9.38
  -4   5  12   15.65   14.79
   3  -5 -12    9.32   28.73
  -3   5  12   54.65   14.90
   2  -5 -12    5.39    9.93
   2  -5 -12   -1.95   26.11
  -2   5  12   10.82   11.02
   1  -5 -12   16.75   28.75
   1  -5 -12   25.67   11.31
  -1   5  12   22.48   11.59
   0   5  12   22.35   11.41
   0  -5 -12    9.70   25.93
   0  -5 -12   29.32   10.84
  -1  -5 -12  176.18   14.88
  -1  -5 -12  128.20   37.54
   2   5  12  291.85   18.10
  -2  -5 -12  301.95   18.49
   3   5  12   25.21   24.90
  -3  -5 -12   70.24   12.58
  -4  -5 -12    5.40    6.94
   4   5  12   -2.79   24.47
  -5  -5 -12   11.58    7.77
   5   5  12   24.10   28.70
  -6  -5 -12    5.56    9.96
  -4   6  12   37.94   17.54
  -3   6  12    9.14   11.78
   2  -6 -12   24.65   12.60
  -2   6  12   20.37   11.43
   2  -6 -12   13.36   29.62
  -1   6  12    6.80   10.27
   1  -6 -12    1.30   25.37
   1  -6 -12    9.26    9.79
   0  -6 -12   11.07   23.22
   0   6  12   13.83    9.48
   0  -6 -12    8.78    9.52
   1   6  12   40.01   11.07
  -1  -6 -12   37.67   10.87
   2   6  12  -31.08   25.10
  -2  -6 -12   -4.67    6.18
   3   6  12   58.30   33.90
  -3  -6 -12   19.84    8.47
  -4  -6 -12    3.28    7.64
   4   6  12   -5.10   27.15
   5   6  12   21.11   30.15
  -5  -6 -12    5.18    7.97
  -3   7  12   -1.42   13.62
   3  -7 -12   50.80   14.58
   2  -7 -12   14.09   11.72
  -2   7  12   23.21   12.91
  -1   7  12    7.89   11.58
   1  -7 -12    6.61   11.17
   1  -7 -12   16.56   22.77
   0  -7 -12    7.75   24.65
   0   7  12    5.63   10.54
   0  -7 -12   16.18   10.35
  -1  -7 -12   -5.28    6.88
   1   7  12   27.26   26.56
   1   7  12   11.18   10.21
  -2  -7 -12    7.10    8.04
   2   7  12   20.53   25.42
   3   7  12   57.30   32.89
  -4  -7 -12    4.80    7.21
   4   7  12   37.31   27.33
  -5  -7 -12   -6.42    7.40
  -2   8  12   11.66   12.73
   2  -8 -12   58.16   13.65
   1  -8 -12   44.69   12.97
  -1   8  12    9.14   14.22
   0  -8 -12   39.43   11.53
   0   8  12   28.57   13.80
   1   8  12   10.40   11.39
  -1  -8 -12   19.59    8.07
   1   8  12   10.13   20.65
   2   8  12    2.09   21.42
  -2  -8 -12    7.52    6.94
   3   8  12   27.99   30.09
  -3  -8 -12   16.13    8.24
  -4  -8 -12   14.18    7.57
   4   8  12   12.51   30.02
   1  -9 -12   38.92   13.65
   0   9  12   10.83   14.32
   0  -9 -12   29.51   10.87
   1   9  12   32.66   23.73
  -1  -9 -12   43.17    9.83
   1   9  12    9.78   11.90
  -2  -9 -12    4.67    8.35
   2   9  12   22.47   25.47
  -3  -9 -12   13.81    8.69
   3   9  12    2.06   25.00
   1  10  12   15.00   14.98
  -1  -7  13    5.84   14.27
   1   7 -13   14.20   15.48
   0  -7  13  -18.51   14.13
   3   6 -13   26.76   14.19
  -3  -6  13    8.50   12.13
  -2  -6  13   17.57   14.11
   2   6 -13   32.20   14.35
   1   6 -13    5.10   13.39
  -1  -6  13  -10.41   11.36
   0   6 -13   14.11   11.67
   0  -6  13  -10.20   12.77
  -1   6 -13   13.49   14.64
   1  -6  13   -9.21   11.85
   2  -6  13   14.49   13.63
  -2   6 -13   24.43   17.27
   3  -6  13  -28.66   12.94
  -4  -5  13   12.09   11.89
   4   5 -13    7.76   12.21
  -3  -5  13    8.22   12.89
   3   5 -13   31.38   13.37
  -2  -5  13    4.37   13.24
   2   5 -13   24.05   13.53
  -1  -5  13   30.68   14.49
   1   5 -13   58.29   15.55
   0   5 -13   20.78   13.54
   0  -5  13   -7.73   11.81
  -1   5 -13   21.20   13.78
   1  -5  13    8.49   11.68
  -2   5 -13   40.50   14.96
   2  -5  13   -7.36    9.96
   3  -5  13   -9.77   10.27
  -3   5 -13    0.85   15.11
  -4  -4  13    5.83    9.99
   4   4 -13   20.08   12.17
   4   4 -13    3.24   32.55
  -3  -4  13    9.80   11.74
   3   4 -13   20.23   26.32
   3   4 -13   33.00   12.57
   2   4 -13   26.96   12.75
  -2  -4  13    3.49   12.22
   1   4 -13   10.99   10.80
  -1  -4  13    8.08   12.35
   0   4 -13   22.70   11.58
   0  -4  13    8.85   12.82
   1  -4  13    6.62   11.30
  -1   4 -13   11.69   11.70
  -2   4 -13   11.86   12.50
  -2   4 -13    8.08   11.89
   2  -4  13   -0.36    8.57
   3  -4  13   16.65   10.33
  -3   4 -13    6.99   12.89
   4  -4  13  -14.33    9.64
  -4   4 -13   -4.68   12.76
   5   3 -13  -35.26   41.70
  -5  -3  13   23.12   12.26
   4   3 -13   41.99   13.24
  -4  -3  13    1.72    9.62
   4   3 -13  -22.38   30.47
   3   3 -13   13.47   28.86
  -3  -3  13   25.00   12.70
   3   3 -13   22.27   11.94
  -2  -3  13   12.47   11.25
   2   3 -13   13.91   27.26
   2   3 -13    5.01    9.68
  -1  -3  13   34.92   14.14
   1   3 -13   27.31   12.86
   0   3 -13  171.09   17.51
   1  -3  13   -1.36    9.78
   1  -3  13   -1.75    6.35
  -1   3 -13   -5.33    9.38
  -2   3 -13   48.33   14.56
   2  -3  13   23.81    9.26
  -2   3 -13   60.28   13.36
   3  -3  13   -2.47    7.21
  -3   3 -13   -5.90    8.98
   4  -3  13    9.91    9.24
  -4   3 -13   -0.79   10.97
  -5  -2  13   11.57   10.35
   5   2 -13   -5.37   36.11
   4   2 -13   24.48   40.50
  -4  -2  13   14.23    9.89
   3   2 -13   43.32   13.38
   3   2 -13  -17.45   32.71
  -3  -2  13   50.75   13.49
   2   2 -13   30.09   28.88
  -2  -2  13   -1.57   11.13
   2   2 -13   -3.05    8.73
  -1  -2  13    2.97   12.20
   1   2 -13   20.18   32.00
   1   2 -13   -2.17    9.66
   0  -2  13   37.40   14.27
   0   2 -13   48.59   14.13
  -1   2 -13   35.61   12.33
   1  -2  13   17.32    7.08
   2  -2  13    4.92    6.22
  -2   2 -13    4.95    9.94
  -2   2 -13   19.85   10.18
  -3   2 -13   13.85   10.31
   3  -2  13    3.48    7.03
   4  -2  13    2.10    7.42
  -4   2 -13    2.53   10.21
   5  -2  13    0.35    9.83
  -5   2 -13   -2.29   12.82
  -5  -1  13   17.85   10.09
   5   1 -13   18.71   38.84
  -4  -1  13   16.12    9.72
   4   1 -13  -14.41   34.55
  -4  -1  13    3.61    8.88
   3   1 -13   54.31   41.76
  -3  -1  13   95.00   15.20
   2   1 -13  254.25   31.42
   2   1 -13  327.26   22.17
  -2  -1  13  292.06   20.32
   1   1 -13   42.89   36.33
  -1  -1  13   36.38   12.93
   1   1 -13   57.67   13.56
   0   1 -13   79.50   14.30
   0  -1  13   86.15   15.66
   0   1 -13   59.50   28.20
  -1   1 -13   85.40   14.78
   1  -1  13  113.34   10.86
  -1   1 -13  110.19   15.73
  -2   1 -13   24.66   10.09
   2  -1  13   22.84    7.29
  -2   1 -13   -6.54    8.42
   3  -1  13   46.61   10.65
  -3   1 -13   27.18   11.97
  -4   1 -13   15.35   11.51
   4  -1  13   25.13    9.66
  -5   1 -13   -1.36    9.88
   5  -1  13    0.22    8.14
  -5   0  13   13.65   10.82
   5   0 -13   44.20   40.11
  -4   0  13   23.27   10.36
   4   0 -13   33.20   30.33
  -4   0  13   -0.75    7.77
  -3   0  13    8.09    7.73
   3   0 -13   41.67   34.94
  -3   0  13    6.18    8.32
   2   0 -13   32.00   42.98
  -2   0  13   -5.59    9.54
   1   0 -13  292.49   19.93
   1   0 -13  312.61   29.92
  -1   0  13  317.28   18.69
   0   0 -13   47.86   12.30
   0   0 -13   35.12    7.41
   0   0  13   35.95   12.09
   0   0 -13    8.19   28.66
  -1   0 -13   91.03   11.20
  -1   0 -13   91.47   14.04
  -1   0 -13   66.31   29.71
  -1   0 -13   97.67   13.56
  -2   0 -13  106.66   13.44
  -2   0 -13   68.54   12.95
   3   0  13   89.11   12.55
  -3   0 -13   73.60   14.16
   4   0  13    4.25    6.94
  -4   0 -13   -3.96    8.94
   5   0  13   14.51    8.46
  -5   0 -13    2.32    9.85
   5  -1 -13   39.39   35.79
   4  -1 -13    8.13   32.91
  -4   1  13   25.48   11.59
  -3   1  13    5.07    7.41
   3  -1 -13   24.66   34.80
  -3   1  13    6.78    8.63
   2  -1 -13   58.44   40.61
  -2   1  13  108.77   16.34
  -2   1  13  110.80   14.02
   1  -1 -13   -3.96   30.16
  -1   1  13    1.98    8.35
  -1   1  13    0.49    6.23
   0   1  13   40.84   11.03
   0  -1 -13   54.95    7.97
   0  -1 -13   49.17   32.96
  -1  -1 -13   24.74    7.52
  -1  -1 -13   43.79   30.80
  -1  -1 -13   34.46   10.89
  -1  -1 -13   28.70   10.13
  -2  -1 -13   -4.08    6.32
  -2  -1 -13    8.36    8.31
  -2  -1 -13    4.57    8.63
  -3  -1 -13   36.34   10.34
  -3  -1 -13   26.21   10.59
   3   1  13   37.98   22.83
  -4  -1 -13   -6.08    7.77
  -5  -1 -13   14.44   10.96
   5   1  13    9.82    7.48
  -6  -1 -13   -3.29   11.09
   5  -2 -13   56.33   41.80
  -4   2  13    1.18   10.32
   4  -2 -13    0.09   33.00
   3  -2 -13  -14.30   28.92
  -3   2  13   18.22    9.89
   2  -2 -13  257.47   33.13
  -2   2  13  254.36   19.32
   1  -2 -13   48.40   33.94
  -1   2  13   42.73   11.38
   0  -2 -13  185.00   39.62
   0   2  13  108.79   14.91
   0  -2 -13   91.72    9.95
   0   2  13   93.13   10.93
  -1  -2 -13  196.38   23.52
   1   2  13  204.13   14.92
  -1  -2 -13  214.62   13.06
  -2  -2 -13    3.16    7.76
  -2  -2 -13    5.88    7.16
   2   2  13    5.08    5.78
  -3  -2 -13   14.89    8.80
   3   2  13    3.20   21.24
  -3  -2 -13   15.66    9.13
  -4  -2 -13   -4.78    7.22
  -4  -2 -13    4.54    8.12
   4   2  13   13.54   25.66
  -5  -2 -13    1.97    8.34
  -5  -2 -13    0.23    8.11
  -6  -2 -13   15.24   10.59
   6   2  13   15.86    8.39
   5  -3 -13   21.99   33.67
  -4   3  13   35.51   14.51
   4  -3 -13   73.98   36.88
  -3   3  13   61.93   15.12
   3  -3 -13   76.23   35.63
  -2   3  13   14.31    9.67
   2  -3 -13  -10.28   28.13
   1  -3 -13   93.70   39.02
   1  -3 -13   66.80   10.69
  -1   3  13   71.83   15.07
   0   3  13   38.32   11.03
   0  -3 -13   30.51    8.56
   0  -3 -13   31.28   30.73
   1   3  13    5.62    6.54
  -1  -3 -13   -2.69    6.36
  -1  -3 -13    8.48   23.73
   2   3  13   13.91   24.43
  -2  -3 -13   -6.87    5.58
   2   3  13    3.66    6.36
  -3  -3 -13   32.29    8.69
   3   3  13   23.75   22.65
  -3  -3 -13   17.53    8.89
  -4  -3 -13   49.07   12.49
   4   3  13   25.44   24.66
  -4  -3 -13   42.28   11.14
  -5  -3 -13    5.10    8.92
  -5  -3 -13    2.68    8.52
   5   3  13   16.52   24.62
  -6  -3 -13   -0.40    8.90
   5  -4 -13   45.99   34.09
   4  -4 -13   24.70   30.24
  -4   4  13   20.04   12.42
   3  -4 -13   29.39   33.33
  -3   4  13   30.89   12.91
   2  -4 -13  106.50   38.18
  -2   4  13  103.21   18.32
   1  -4 -13  134.41   39.75
   1  -4 -13   94.17   13.22
  -1   4  13  120.29   18.07
   0  -4 -13    3.61   26.26
   0  -4 -13   14.28    8.34
   0   4  13   10.44   10.07
  -1  -4 -13   -0.46    7.21
   1   4  13    1.15    7.43
  -1  -4 -13    1.61   23.35
   2   4  13   -2.59    6.92
  -2  -4 -13   -2.51    6.22
   2   4  13   11.94   22.76
  -3  -4 -13  145.43   15.76
   3   4  13   30.91   26.22
   4   4  13   39.24   30.45
  -4  -4 -13   14.70    7.83
   5   4  13   52.41   29.90
   6   4  13   64.92   41.35
  -6  -4 -13   12.76   10.05
   4  -5 -13  109.17   38.45
  -3   5  13   39.68   14.79
   3  -5 -13    7.69   26.80
   2  -5 -13    7.40   28.94
  -2   5  13    7.25    9.70
   2  -5 -13    4.91    9.32
   1  -5 -13   16.44   25.93
   1  -5 -13   10.32    9.01
  -1   5  13   15.06   11.19
   0   5  13   -3.16    8.61
   0  -5 -13   11.20   24.64
   0  -5 -13   18.31    9.30
   1   5  13    8.85    8.34
  -1  -5 -13    0.11    7.19
  -1  -5 -13    8.09   24.43
   2   5  13  150.98   18.27
  -2  -5 -13  131.08   15.29
  -3  -5 -13   44.63   10.84
   3   5  13   12.99   28.83
  -4  -5 -13   38.90   10.84
   4   5  13   10.42   25.68
  -5  -5 -13    2.88    7.62
   5   5  13    4.59   31.94
  -3   6  13   14.22   13.38
   2  -6 -13   16.78   28.42
  -2   6  13   33.71   13.47
   2  -6 -13   23.96   11.66
   1  -6 -13   27.14   28.58
   1  -6 -13   19.20   10.47
  -1   6  13   41.35   13.05
   0   6  13   44.84   13.12
   0  -6 -13   52.89   12.43
   0  -6 -13   45.84   26.67
   1   6  13   34.41   11.89
  -1  -6 -13   39.77   10.45
  -2  -6 -13   22.76    9.08
   2   6  13    7.85   30.02
   3   6  13   16.40   28.45
  -3  -6 -13   -6.13    5.84
  -4  -6 -13    6.44    8.18
   4   6  13   20.62   31.75
  -5  -6 -13   11.66    9.40
   5   6  13   10.07   33.05
  -3   7  13   29.36   16.05
  -2   7  13   15.79   11.96
   2  -7 -13   20.98   11.04
  -1   7  13    6.61   11.21
   1  -7 -13   24.39   10.79
   1  -7 -13   50.05   26.22
   0   7  13    5.49    9.87
   0  -7 -13   -1.23    9.01
   0  -7 -13   30.12   27.34
   1   7  13   27.58   11.71
   1   7  13   32.06   27.56
  -1  -7 -13   28.73   10.34
   2   7  13   14.06   27.57
  -2  -7 -13   29.73   10.33
  -3  -7 -13    6.86    6.55
   3   7  13   39.61   32.80
  -4  -7 -13   17.52    9.22
   4   7  13   65.25   36.37
  -5  -7 -13   16.65    9.58
   2  -8 -13   53.52   13.24
  -1   8  13   22.46   15.07
   1  -8 -13   43.76   11.39
   0  -8 -13   38.73   10.30
   0   8  13   20.93   13.41
   1   8  13   -1.97   20.13
  -1  -8 -13   22.79    8.43
   1   8  13    9.44   11.22
   2   8  13   21.94   24.91
  -2  -8 -13   20.28    8.64
   3   8  13   46.06   31.87
  -3  -8 -13   18.64    8.56
  -4  -8 -13    7.81    8.90
   4   8  13    5.10   30.54
   1  -9 -13   23.86   11.16
   0  -9 -13   31.59   12.24
   0   9  13   18.64   14.91
   1   9  13   40.16   15.39
   1   9  13   16.00   20.55
  -1  -9 -13   11.33    8.46
  -2  -9 -13   16.18    8.68
   2   9  13    4.77   22.61
   3   6 -14   10.79   14.16
   2   6 -14   25.11   14.66
  -2  -6  14    2.91   13.63
   1   6 -14   28.57   15.22
  -1  -6  14   -5.59   12.19
   0   6 -14   20.79   14.53
   0  -6  14   -4.82   12.75
  -1   6 -14    1.83   13.39
   1  -6  14   -5.75   13.78
  -2   6 -14   10.96   17.41
   4   5 -14   21.28   13.48
  -3  -5  14   27.27   15.22
   3   5 -14   33.63   13.14
   2   5 -14   25.54   13.40
  -2  -5  14    6.60   14.31
  -1  -5  14    5.63   14.13
   1   5 -14   36.30   14.62
   0  -5  14   -2.42   14.06
   0   5 -14    2.71   11.49
   1  -5  14    5.06   12.26
  -1   5 -14   53.59   15.94
  -2   5 -14   18.23   13.74
   2  -5  14   24.12   11.87
   3  -5  14    7.98   12.52
   4   4 -14   24.72   12.43
   4   4 -14  -25.99   26.29
  -4  -4  14   24.73   11.80
   3   4 -14   16.85   12.19
  -3  -4  14   -2.03   10.96
  -2  -4  14   -1.26   11.63
   2   4 -14    7.99   11.16
   1   4 -14   29.29   13.26
  -1  -4  14   12.46   13.93
   0  -4  14   11.98   13.97
   0   4 -14   40.26   14.46
   1  -4  14  -13.11    9.98
  -1   4 -14   29.70   12.39
   2  -4  14   13.67   10.11
  -2   4 -14   29.65   13.64
  -3   4 -14    8.92   12.19
   3  -4  14    1.67    9.02
   4  -4  14  -22.66    9.45
  -5  -3  14   17.25   12.37
   4   3 -14   12.55   30.89
  -4  -3  14   19.99   10.81
   4   3 -14    9.05   11.37
  -3  -3  14    2.27   10.66
   3   3 -14   15.64   26.33
   3   3 -14    2.97   10.81
   2   3 -14   58.72   15.65
   2   3 -14   14.10   26.36
  -2  -3  14   22.30   14.09
  -1  -3  14   29.54   13.93
   1   3 -14   40.38   13.97
   0   3 -14    9.92   11.29
   0  -3  14   -8.81   11.92
  -1   3 -14    9.74   11.62
   1  -3  14   17.97   11.37
  -2   3 -14   -6.29   11.78
   2  -3  14   31.17    9.67
  -2   3 -14   23.79   12.15
   3  -3  14   11.95    8.04
  -3   3 -14   10.85   11.15
  -4   3 -14    5.67   12.43
   4  -3  14    2.09    9.09
  -5  -2  14   15.75   11.14
  -4  -2  14    7.92   10.47
   4   2 -14    8.15   35.76
  -4  -2  14   21.50   10.08
   3   2 -14   19.16   11.18
  -3  -2  14   -2.35   10.23
   3   2 -14   18.55   33.07
   2   2 -14   26.93   29.19
  -2  -2  14   16.49   11.98
   2   2 -14   33.44   11.92
   1   2 -14   11.87   28.32
   1   2 -14   -0.03    9.11
  -1  -2  14   -9.36   10.44
   0   2 -14    4.64   10.18
   0  -2  14    8.51   13.21
  -1   2 -14   64.83   15.38
   1  -2  14   17.29   11.45
  -2   2 -14   -1.23    9.85
  -2   2 -14    3.30    9.82
   2  -2  14    0.25    5.11
  -3   2 -14   -2.79   10.03
   3  -2  14    5.16    5.62
   4  -2  14   -3.40    6.81
  -4   2 -14   16.25   10.96
   5  -2  14    0.84   11.15
  -5  -1  14   14.88   10.87
   5   1 -14   20.10   37.25
   4   1 -14  -14.86   36.10
  -4  -1  14    8.13    9.36
  -4  -1  14   18.62    8.75
   3   1 -14   14.64   37.27
  -3  -1  14   12.75    9.95
   2   1 -14   38.72   38.47
   2   1 -14   89.20   17.13
  -2  -1  14   49.15   13.19
   1   1 -14  -16.05   31.79
  -1  -1  14   -0.94   11.38
   1   1 -14   12.46   10.45
   0   1 -14  100.43   16.13
   0   1 -14   32.02   28.74
   0  -1  14   58.78   15.58
   1  -1  14   27.83    7.36
   1  -1  14    6.52   11.61
  -1   1 -14   37.19   11.95
  -2   1 -14   -1.48    8.93
   2  -1  14    3.89    4.92
  -2   1 -14   10.54    9.11
   3  -1  14   -2.96    5.16
  -3   1 -14    1.94    9.31
   4  -1  14   14.93    7.92
  -4   1 -14   -7.88   10.56
   5  -1  14   11.65    9.56
  -5   1 -14    9.02   11.28
   5   0 -14   -1.23   36.81
  -5   0  14   20.29   11.78
  -4   0  14   19.25   10.72
   4   0 -14   47.75   31.06
  -4   0  14   -8.55    7.89
   3   0 -14   44.30   37.90
  -3   0  14   15.81    8.73
  -3   0  14    9.34    9.21
  -2   0  14    2.45    7.84
   2   0 -14  -26.31   39.04
  -2   0  14    3.64   10.23
   1   0 -14   17.79   36.35
  -1   0  14   19.06   10.77
   1   0 -14   28.85   13.26
   0   0 -14  207.45   16.68
   0   0  14  183.61   18.10
  -1   0 -14   29.77    8.66
  -1   0 -14   50.03   12.49
  -1   0 -14   19.98   25.46
  -2   0 -14   93.41   13.95
  -2   0 -14  112.79   14.23
  -3   0 -14   19.02   10.93
   3   0  14   16.02    7.12
   4   0  14   24.59    8.67
  -4   0 -14   16.00   11.20
  -5   0 -14   14.84   11.81
   5   0  14   18.26    9.08
   5  -1 -14   18.06   38.24
   4  -1 -14   12.76   32.11
  -4   1  14   19.84   12.22
   3  -1 -14   10.77   35.12
  -3   1  14   15.12    9.71
  -2   1  14  240.41   19.74
  -2   1  14  260.75   16.89
   2  -1 -14  195.91   50.16
   1  -1 -14  127.16   42.99
  -1   1  14  152.34   18.59
  -1   1  14  156.38   15.67
   0  -1 -14   67.04    9.33
   0   1  14   61.78   12.87
   0  -1 -14   62.87   33.63
  -1  -1 -14  214.62   13.76
  -1  -1 -14  206.46   16.17
  -1  -1 -14  207.19   23.43
  -2  -1 -14    6.36    8.68
  -2  -1 -14  -10.89    6.67
  -2  -1 -14    1.36    8.44
  -3  -1 -14    6.90    9.27
   3   1  14   -2.68   21.10
  -3  -1 -14    4.78    8.11
  -4  -1 -14    1.06    9.52
   5   1  14   20.97    8.77
  -5  -1 -14   -4.26    9.46
   5  -2 -14   27.36   35.73
   4  -2 -14   32.27   34.01
  -4   2  14   17.77   12.63
  -3   2  14    6.49    9.11
   3  -2 -14    4.83   31.66
  -2   2  14   54.57   13.75
   2  -2 -14   87.74   36.76
   1  -2 -14   84.70   41.07
  -1   2  14  101.48   16.08
   0  -2 -14  205.10   25.72
   0   2  14  194.93   15.93
  -1  -2 -14    3.08    6.93
  -1  -2 -14   40.25   30.90
   1   2  14    6.22    8.42
   1   2  14   16.32    7.94
  -2  -2 -14   -1.25    7.17
  -2  -2 -14    6.04    8.03
   2   2  14    6.85    6.28
  -3  -2 -14   16.19    9.25
  -3  -2 -14   22.29    9.74
   3   2  14   13.62   24.28
  -4  -2 -14   -0.98    7.83
   4   2  14   12.57   26.34
  -4  -2 -14   -1.35    8.08
  -5  -2 -14    9.50    9.64
  -5  -2 -14   -1.56    7.24
  -6  -2 -14    2.17    9.45
   4  -3 -14   38.81   32.01
  -4   3  14   34.36   14.29
  -3   3  14   78.65   16.82
   3  -3 -14   55.78   33.39
  -2   3  14   24.24   11.98
   2  -3 -14   36.15   32.65
   1  -3 -14  -10.07   29.08
  -1   3  14   12.38    9.34
   0   3  14   36.99   11.32
   0  -3 -14   47.54   33.59
   0  -3 -14   32.91    9.17
  -1  -3 -14   -2.86    6.50
  -1  -3 -14  -11.42   24.24
   1   3  14    4.77    6.92
   2   3  14  101.08   13.23
  -2  -3 -14   59.75   11.31
   3   3  14   -2.06   22.66
  -3  -3 -14   21.73    9.52
   4   3  14   30.17   28.75
  -4  -3 -14   78.97   14.04
  -5  -3 -14    4.37    7.98
  -5  -3 -14    9.20    8.77
   5   3  14   45.71   31.43
  -4   4  14   24.36   13.90
   4  -4 -14   35.69   32.99
  -3   4  14   17.43   12.34
   3  -4 -14    5.44   28.18
   2  -4 -14   56.10   34.13
  -2   4  14   54.91   14.86
   1  -4 -14   28.62   29.56
  -1   4  14   13.34   11.05
   1  -4 -14   27.75    8.88
   0  -4 -14   38.04    9.88
   0   4  14   32.40   11.49
   0  -4 -14   47.58   31.55
  -1  -4 -14  125.06   14.31
   1   4  14  127.38   13.56
  -1  -4 -14   96.07   33.06
   2   4  14    9.31   24.95
  -2  -4 -14   45.60   10.86
   2   4  14   59.19   12.15
  -3  -4 -14   15.96    8.23
   3   4  14    5.34   23.13
   4   4  14   21.17   29.11
  -4  -4 -14   63.74   14.17
  -5  -4 -14   -4.84    8.33
   5   4  14   38.97   32.35
   6   4  14    9.58   37.41
  -4   5  14   13.29   14.77
   4  -5 -14   33.04   34.21
  -3   5  14   43.23   14.06
   3  -5 -14   77.04   33.82
  -2   5  14   36.88   14.16
   2  -5 -14   52.35   32.12
   1  -5 -14    5.85   27.98
  -1   5  14   16.90   10.24
   1  -5 -14    9.46    8.78
   0  -5 -14    2.59    7.41
   0   5  14   13.32   10.10
   0  -5 -14   23.25   24.00
   1   5  14   11.03    8.72
  -1  -5 -14    9.12    7.46
  -1  -5 -14   16.73   26.85
  -2  -5 -14   63.35   12.63
   2   5  14    4.49   23.49
  -3  -5 -14   14.52    8.76
   3   5  14    5.37   27.47
  -4  -5 -14   12.26    8.58
   4   5  14   43.96   30.54
   5   5  14   44.71   32.53
  -5  -5 -14    5.73    8.40
   3  -6 -14   66.11   30.73
  -3   6  14   26.14   13.67
  -2   6  14   24.10   13.37
   2  -6 -14   34.39   30.17
   1  -6 -14    3.36   27.14
  -1   6  14   19.39   12.20
   1  -6 -14   17.05   11.04
   0  -6 -14   16.92   10.19
   0   6  14   31.16   12.63
   0  -6 -14   36.10   23.13
   1   6  14    9.04    9.16
  -1  -6 -14    7.87    7.96
   2   6  14  -11.00   25.04
  -2  -6 -14   -5.84    6.70
   3   6  14   31.47   27.62
  -3  -6 -14   21.96    8.67
   4   6  14   58.76   36.44
  -5  -6 -14   -1.89    8.90
   5   6  14   37.02   34.80
   2  -7 -14   37.19   11.48
  -2   7  14    1.12   12.04
   1  -7 -14   31.25   10.25
  -1   7  14   16.07   11.40
   1  -7 -14   48.97   26.12
   0  -7 -14   12.37   10.09
   0  -7 -14   32.26   27.69
   0   7  14   15.26    9.87
   1   7  14   13.28   27.92
  -1  -7 -14    0.99    7.70
   1   7  14   12.59   10.02
   2   7  14   -2.64   27.95
  -2  -7 -14   19.62    8.54
  -3  -7 -14   31.19    9.30
   3   7  14    7.26   27.89
  -4  -7 -14   17.76   10.05
   4   7  14   10.99   31.95
   2  -8 -14   61.84   13.21
  -1   8  14    9.28   13.80
   1  -8 -14   42.08   11.04
   0   8  14   35.65   14.47
   0  -8 -14   57.21   12.42
   1   8  14   13.80   12.35
   1   8  14    1.68   24.74
  -1  -8 -14   38.73   10.21
   2   8  14   -2.64   29.37
  -2  -8 -14   19.02    7.84
  -3  -8 -14   30.26   10.09
   3   8  14   31.54   34.04
  -4  -8 -14    3.07    7.58
   0   9  14   -4.97   13.39
   0  -9 -14   35.26   10.91
   1   9  14   17.15   13.58
  -1  -9 -14   21.31   10.00
   1   9  14   15.20   24.12
  -2  -9 -14   19.18   10.36
   2   9  14    6.99   23.33
   2   6 -15   14.60   15.47
  -1  -6  15    1.66   14.18
   1   6 -15   24.48   15.79
   0   6 -15    3.40   14.93
   0  -6  15   -0.83   15.81
  -1   6 -15   18.75   14.49
   4   5 -15    4.55   13.26
  -3  -5  15    5.00   13.77
   3   5 -15   17.22   13.35
  -2  -5  15   -3.29   13.84
   2   5 -15   31.01   15.10
  -1  -5  15   -3.87   12.51
   1   5 -15   31.40   14.97
   0  -5  15    5.37   14.16
   0   5 -15   32.55   13.80
   1  -5  15   -4.79   13.62
  -1   5 -15   31.58   14.96
   2  -5  15   22.17   13.80
  -2   5 -15   33.73   15.42
  -4  -4  15    5.72   11.41
   4   4 -15   38.97   14.50
   4   4 -15    4.09   26.83
  -3  -4  15    1.96   12.58
   3   4 -15   11.89   11.76
   2   4 -15   41.56   14.11
  -2  -4  15   14.44   13.73
   1   4 -15   13.96   13.50
  -1  -4  15    0.73   13.20
   0   4 -15   19.64   12.75
   0  -4  15   -4.29   13.14
  -1   4 -15   24.27   11.62
   1  -4  15    3.67   12.88
   2  -4  15   25.25   13.13
  -2   4 -15   37.38   13.84
   3  -4  15    3.55    9.48
  -3   4 -15    6.15   14.03
  -4  -3  15   33.24   12.26
   4   3 -15   29.20   13.19
   4   3 -15   45.59   31.83
   3   3 -15   27.05   13.56
  -3  -3  15   12.03   12.88
   3   3 -15    7.07   26.01
   2   3 -15   11.30   11.37
  -2  -3  15   16.77   13.58
   1   3 -15   29.52   11.67
  -1  -3  15    7.68   13.07
   0  -3  15   -8.78   12.06
   0   3 -15   -7.14   10.61
   1  -3  15   14.16   12.40
  -1   3 -15   20.03   12.39
   2  -3  15   24.32    9.58
  -2   3 -15   12.08   12.03
  -2   3 -15   48.45   14.14
   3  -3  15    8.41    7.92
  -3   3 -15  -10.92   10.51
   4  -3  15   -1.04    9.30
  -4   3 -15    2.25   12.08
  -5  -2  15   31.41   12.33
  -4  -2  15    8.55   10.70
   4   2 -15    0.90   34.34
  -4  -2  15   -2.73    9.16
   3   2 -15   15.65   31.72
  -3  -2  15    2.44   10.40
   3   2 -15   33.60   14.15
   2   2 -15   15.00   10.81
   2   2 -15   20.38   30.68
  -2  -2  15    6.33   11.59
   1   2 -15    1.56   24.32
   1   2 -15   -0.29    9.66
  -1  -2  15   -4.58   10.88
   0  -2  15    3.77   12.80
   0   2 -15   36.72   13.31
   1  -2  15  -10.38    9.60
  -1   2 -15   11.33   11.40
  -2   2 -15   17.77   12.82
   2  -2  15    5.98    6.05
  -2   2 -15   21.21   12.40
  -3   2 -15   11.78   10.88
   3  -2  15   14.67    8.26
  -4   2 -15   10.17   11.88
   4  -2  15   11.17    8.44
  -5  -1  15   18.99   11.69
   4   1 -15   30.11   35.08
  -4  -1  15   31.75   11.47
  -4  -1  15   13.04   10.39
   3   1 -15   85.35   43.62
   2   1 -15    6.85   10.38
   2   1 -15    2.27   34.33
  -2  -1  15    8.07   10.55
   1   1 -15   14.09   10.24
  -1  -1  15    3.75   11.07
   1   1 -15   28.30   31.95
   0  -1  15   53.75   16.05
   0   1 -15   63.04   14.10
   0   1 -15   32.17   24.82
  -1   1 -15    8.65    9.93
   1  -1  15   -1.48    9.90
  -2   1 -15   23.54   11.71
   2  -1  15   24.30    7.80
  -2   1 -15   21.92   10.27
  -3   1 -15    2.84   10.82
   3  -1  15   14.63    7.29
  -4   1 -15   18.52   13.41
   4  -1  15   17.05    8.71
   5  -1  15    7.88    8.98
  -5   1 -15  -10.38   12.66
   4   0 -15   77.93   38.19
  -4   0  15    8.17    8.82
  -4   0  15   12.34   10.35
  -3   0  15    7.37    8.74
   3   0 -15   40.42   43.78
  -3   0  15   17.90    9.89
   2   0 -15  -27.84   38.72
  -2   0  15    3.46    9.30
  -2   0  15   -2.98    7.53
  -1   0  15    1.42   10.94
   1   0 -15   12.44   11.88
   1   0 -15  -10.89   32.78
   0   0  15   17.40   12.86
   0   0 -15   15.24   27.67
   0   0 -15   31.15   12.74
  -1   0 -15    3.09   24.24
   1   0  15    1.16   10.13
  -1   0 -15   25.12   10.44
   2   0  15    8.24    4.84
  -2   0 -15   -5.57    8.34
  -2   0 -15   20.26    9.80
  -3   0 -15  -18.24    7.59
   3   0  15    4.82    4.90
  -4   0 -15   12.31   11.10
   4   0  15   11.82    7.03
   5   0  15    7.11    8.76
  -5   0 -15   -0.98   11.51
  -4   1  15   24.65   11.99
   4  -1 -15   21.66   33.97
  -3   1  15   13.43   10.82
   3  -1 -15   -4.50   33.64
   2  -1 -15   46.25   39.24
  -2   1  15   69.77   15.12
   1  -1 -15  405.34   36.03
  -1   1  15  413.66   24.65
  -1   1  15  422.19   20.60
   0   1  15    6.19    7.85
   0  -1 -15  -20.31   28.57
   0   1  15    3.04   10.07
  -1  -1 -15   21.48   28.00
  -1  -1 -15   22.19    8.97
   1   1  15   25.68   11.26
  -2  -1 -15    5.64    7.46
  -2  -1 -15   14.44   10.47
  -2  -1 -15    4.82    8.39
  -3  -1 -15   22.77   10.53
  -3  -1 -15   21.70   10.92
   4   1  15   25.40    7.89
  -4  -1 -15    1.74    9.90
   5   1  15   34.62    9.89
  -5  -1 -15    0.23   10.23
  -4   2  15   37.45   13.62
   4  -2 -15   19.53   33.34
  -3   2  15   25.69   11.74
   3  -2 -15    6.42   31.02
   2  -2 -15   10.04   32.16
  -2   2  15   -1.69    8.07
  -1   2  15   83.14   15.55
   1  -2 -15  108.18   41.35
   0   2  15  186.04   16.37
   0  -2 -15  197.17   26.81
   1   2  15   25.56    9.12
  -1  -2 -15   82.50   35.79
  -1  -2 -15   30.38    8.87
  -2  -2 -15   33.63    9.75
  -2  -2 -15   29.17    9.36
   2   2  15   35.53    9.33
   3   2  15   21.61   24.37
  -3  -2 -15   25.06   10.09
  -3  -2 -15   31.30   10.63
  -4  -2 -15   -6.56    8.38
  -4  -2 -15   -1.86    7.83
  -5  -2 -15    0.45   10.40
  -6  -2 -15   -5.62   10.98
  -5   3  15   35.41   16.73
   4  -3 -15   42.04   33.13
  -4   3  15   22.58   14.03
  -3   3  15   15.84   10.58
   3  -3 -15   29.36   33.29
  -2   3  15   37.36   12.84
   2  -3 -15   14.56   30.36
   1  -3 -15  207.55   29.64
  -1   3  15  194.47   17.96
   0  -3 -15   40.56    9.42
   0  -3 -15   93.57   37.73
   0   3  15   56.12   12.78
  -1  -3 -15    3.38    6.84
  -1  -3 -15   19.76   27.81
   1   3  15    3.70    6.77
   2   3  15   20.44    8.57
  -2  -3 -15   27.27    9.13
  -3  -3 -15   30.96   10.90
   3   3  15   44.18   27.44
  -4  -3 -15   19.41    9.87
   4   3  15   16.28   30.01
  -5  -3 -15   38.33   12.16
   4  -4 -15   47.41   36.17
  -4   4  15    6.13   13.74
  -3   4  15   13.91   11.63
   3  -4 -15   26.55   33.93
   2  -4 -15   24.17   31.75
  -2   4  15   21.60   10.93
  -1   4  15   -4.10    9.15
   1  -4 -15   -0.97   25.50
   0  -4 -15   91.98   34.58
   0   4  15   67.35   14.55
   0  -4 -15   86.22   12.09
   1   4  15   92.35   14.76
  -1  -4 -15   33.94   28.71
  -1  -4 -15   91.41   12.79
   2   4  15    0.46   24.99
  -2  -4 -15   22.90    9.71
   3   4  15   49.76   28.96
  -3  -4 -15   39.76   10.76
  -4  -4 -15    2.44    8.05
   4   4  15   36.68   29.95
   5   4  15   43.60   29.06
  -5  -4 -15   -1.18    8.50
   4  -5 -15   62.90   37.85
   3  -5 -15   90.05   33.32
   2  -5 -15   86.28   35.76
   1  -5 -15    4.58    7.87
   1  -5 -15   34.49   32.80
  -1   5  15   12.74   11.68
   0  -5 -15   58.03   11.78
   0   5  15   74.67   16.40
   0  -5 -15   55.69   30.30
   1   5  15   29.97   11.68
  -1  -5 -15   13.54    8.40
  -1  -5 -15   18.37   24.84
   2   5  15   14.77   24.78
  -2  -5 -15   -4.32    6.41
   3   5  15   51.17   31.67
  -3  -5 -15   36.68   11.24
   4   5  15   43.67   32.97
  -4  -5 -15   11.54    7.69
   5   5  15   19.11   33.24
  -5  -5 -15   18.54   10.31
   3  -6 -15   70.74   31.44
  -3   6  15   14.41   15.23
  -2   6  15   39.06   14.23
   2  -6 -15   72.33   34.42
  -1   6  15   52.59   16.40
   1  -6 -15   43.83   11.60
   1  -6 -15   37.98   30.30
   0   6  15    0.46    9.42
   0  -6 -15   14.74   23.27
   0  -6 -15    5.12    8.06
   1   6  15   24.59   11.42
  -1  -6 -15   32.73   29.45
  -1  -6 -15   27.85   10.83
   2   6  15  -17.39   24.85
  -2  -6 -15   14.39    8.70
  -3  -6 -15   12.61    7.37
   3   6  15   26.31   30.41
  -4  -6 -15   24.58    8.97
   4   6  15   25.71   36.91
  -5  -6 -15   14.26   10.21
   2  -7 -15   62.84   30.83
  -2   7  15   19.54   13.41
  -1   7  15   39.79   14.00
   1  -7 -15   52.45   28.46
   1  -7 -15   38.94   10.64
   0  -7 -15   20.23   25.06
   0   7  15   10.35   10.72
   0  -7 -15   27.67   10.29
  -1  -7 -15    6.85    7.57
   1   7  15   14.11    9.98
  -2  -7 -15   12.96    7.69
   2   7  15   28.94   32.13
  -3  -7 -15   17.33    7.98
   3   7  15    6.37   31.49
   4   7  15   46.79   39.12
  -4  -7 -15    7.30    8.33
  -1   8  15    5.84   13.35
   0   8  15    7.44   12.70
  -1  -8 -15   12.54    6.80
   1   8  15   29.56   25.70
   1   8  15   35.36   13.12
   2   8  15    8.93   25.84
  -2  -8 -15    8.69    6.97
  -3  -8 -15   34.09   10.84
   3   8  15   17.98   31.42
   1   9  15   28.60   14.57
  -1  -9 -15   45.70   12.69
   1   9  15    9.65   25.15
   3   5 -16   -7.49   11.99
   2   5 -16   18.93   14.66
  -2  -5  16    1.28   14.45
   1   5 -16   -4.09   15.28
  -1  -5  16   26.83   16.58
   0  -5  16  -19.16   14.11
   0   5 -16   19.08   14.39
   1  -5  16  -18.20   13.54
  -1   5 -16   22.19   14.71
  -2   5 -16   44.07   18.17
   4   4 -16   14.97   13.73
  -3  -4  16   25.15   14.50
   3   4 -16   30.38   14.40
   2   4 -16    2.07   12.16
  -2  -4  16   22.89   15.37
   1   4 -16   30.40   14.34
  -1  -4  16    3.65   13.44
   0   4 -16   33.93   13.78
   0  -4  16   -0.82   14.45
  -1   4 -16   17.61   14.21
   1  -4  16  -16.49   13.64
   2  -4  16    4.91   12.46
  -2   4 -16   30.76   14.76
  -3   4 -16   13.51   14.08
   4   3 -16   41.29   14.57
   4   3 -16   10.43   29.56
  -4  -3  16   -0.51   10.67
  -3  -3  16   26.19   13.59
   3   3 -16   16.97   12.28
   3   3 -16   46.14   29.54
   2   3 -16    4.40   11.18
  -2  -3  16   14.17   13.43
  -1  -3  16    9.54   13.13
   1   3 -16   23.78   12.86
   0  -3  16   20.61   15.54
   0   3 -16   49.16   15.22
   1  -3  16    0.19   12.43
  -1   3 -16   37.64   14.75
  -2   3 -16   55.58   15.45
  -3   3 -16    7.62   12.45
   3  -3  16   19.15    9.91
   4  -3  16    0.07    8.93
  -4  -2  16    1.58   10.12
  -4  -2  16   24.18   12.14
   4   2 -16    6.94   30.90
   3   2 -16   63.35   33.88
   3   2 -16    9.16   11.71
  -3  -2  16    8.62    9.70
   2   2 -16   15.62   11.17
   2   2 -16    2.92   29.74
  -2  -2  16   11.47   12.02
   1   2 -16   27.24   11.80
  -1  -2  16   -9.46   11.17
   0   2 -16   12.07   11.83
   0  -2  16   -5.11   12.84
   1  -2  16    3.23   10.95
  -1   2 -16    8.28   10.86
  -2   2 -16   11.87   11.21
  -2   2 -16   -1.19   10.91
  -3   2 -16    5.43   10.78
   3  -2  16    6.59    7.24
  -4   2 -16   -1.89   10.73
   4  -2  16   16.92    9.52
  -5  -1  16   -1.38   10.27
   4   1 -16   85.91   37.11
  -4  -1  16   18.12   11.32
  -4  -1  16    5.74   10.06
  -3  -1  16    3.59    9.26
   3   1 -16   80.94   41.70
  -3  -1  16   13.08   10.16
  -2  -1  16    2.97   10.59
   2   1 -16   11.91   36.38
   2   1 -16    4.70   11.37
  -1  -1  16   23.48   12.36
   1   1 -16   40.69   13.65
   1   1 -16    8.43   26.72
   0  -1  16  -11.78   10.81
   0   1 -16    5.52   10.59
   0   1 -16   20.94   22.71
   1  -1  16    3.56   10.05
  -1   1 -16   31.81   11.43
  -2   1 -16   42.43   12.21
   2  -1  16   50.98   10.11
  -2   1 -16   33.95   13.18
  -3   1 -16    6.11   11.00
   3  -1  16   16.40    7.56
   4  -1  16   -0.40    6.35
  -4   1 -16   -5.69    9.38
  -4   0  16   22.86   12.08
   4   0 -16   61.73   37.43
  -3   0  16   12.69    9.33
   3   0 -16    2.98   37.29
  -3   0  16   17.36    9.26
   2   0 -16   -3.03   35.98
  -2   0  16   -7.78    8.97
  -2   0  16   -4.52    7.93
   1   0 -16   13.25   12.31
   1   0 -16  -12.08   29.92
  -1   0  16  -10.36    9.93
   0   0 -16   58.62   28.26
   0   0 -16  161.63   17.52
   0   0  16  134.22   18.26
  -1   0 -16   34.78   23.54
   1   0  16   58.97   13.49
  -1   0 -16   98.45   16.71
  -2   0 -16   16.34   10.85
   2   0  16   11.93    4.96
  -2   0 -16   41.56   11.29
   3   0  16   29.19    8.75
  -3   0 -16   16.21   11.20
   4   0  16    6.63    6.96
  -4   0 -16    4.68   10.65
   5   0  16   16.17   10.52
  -5   0 -16   -4.36   12.59
   4  -1 -16   -0.93   35.91
  -4   1  16   29.67   12.43
   3  -1 -16   -6.31   32.70
  -3   1  16    8.77   10.13
  -2   1  16   12.88    9.49
   2  -1 -16   11.21   33.48
   1  -1 -16   -1.00   34.43
  -1   1  16    5.77    8.49
   0   1  16    7.27    7.85
   0  -1 -16   -2.41   28.22
   0   1  16   15.18   10.52
  -1  -1 -16   51.87   10.59
   1   1  16   36.72   11.73
  -1  -1 -16   49.19   28.98
  -2  -1 -16    7.63    9.54
  -2  -1 -16   38.61   10.97
  -3  -1 -16   -3.31    9.29
  -3  -1 -16    0.38    8.50
   4   1  16   18.36    7.46
  -4  -1 -16   -2.24   10.23
  -5  -1 -16   -4.24   11.48
   5   1  16    4.42    6.43
  -4   2  16   30.30   12.58
   4  -2 -16   51.91   34.61
  -3   2  16    2.95   10.47
   3  -2 -16   13.91   31.19
  -2   2  16   28.52   11.02
   2  -2 -16   17.75   31.46
   1  -2 -16   25.82   33.42
  -1   2  16    7.83    9.59
   0  -2 -16  -19.97   30.52
   0   2  16    5.34    8.17
  -1  -2 -16   57.67   10.42
  -1  -2 -16   72.21   32.56
   1   2  16   46.98   11.15
   2   2  16  100.33   13.21
  -2  -2 -16   89.01   13.53
  -3  -2 -16   18.21    9.72
   3   2  16   33.59   25.99
  -4  -2 -16    9.11   10.41
  -4  -2 -16   15.61   10.24
  -5  -2 -16  -13.05   10.56
  -4   3  16   12.55   13.39
   4  -3 -16   39.06   35.09
   3  -3 -16   15.31   33.13
  -3   3  16   20.77   11.46
  -2   3  16   18.44   10.12
   2  -3 -16   21.83   34.11
   1  -3 -16  109.37   38.09
  -1   3  16  163.79   20.81
   0   3  16  133.89   17.76
   0  -3 -16  204.11   44.74
   0  -3 -16  112.05   12.28
  -1  -3 -16   15.51    8.21
   1   3  16    1.27    6.68
  -1  -3 -16   13.10   25.57
  -2  -3 -16   83.03   13.19
  -3  -3 -16    2.41    7.01
   3   3  16    3.71   26.85
   4   3  16   44.87   32.29
  -4  -3 -16   35.84   11.54
  -5  -3 -16   43.87   11.72
   4  -4 -16   56.38   37.65
  -4   4  16   33.78   16.73
   3  -4 -16   37.04   35.27
  -3   4  16   10.49   12.75
  -2   4  16   22.57   11.25
   2  -4 -16   -8.95   28.11
  -1   4  16    9.20    9.75
   1  -4 -16   -0.41   27.45
   0  -4 -16  135.18   36.74
   0   4  16  102.72   16.68
   0  -4 -16  130.03   13.98
   1   4  16   21.17    9.62
  -1  -4 -16   -0.71   23.37
  -1  -4 -16   23.62    8.68
  -2  -4 -16   56.91   12.49
  -3  -4 -16   32.62   10.96
   3   4  16   33.82   28.45
  -4  -4 -16   39.64   11.08
   4   4  16   45.68   32.47
   5   4  16   25.11   35.67
  -5  -4 -16   13.26   10.24
  -3   5  16   15.28   12.79
   3  -5 -16   47.91   33.78
   2  -5 -16   34.50   29.78
  -2   5  16   19.89   12.05
  -1   5  16   26.07   12.94
   1  -5 -16   30.05   31.39
   0  -5 -16   21.50    9.01
   0  -5 -16   39.36   28.10
   0   5  16   46.58   14.11
  -1  -5 -16   35.21   25.83
  -1  -5 -16   40.48   10.73
   1   5  16   40.97   12.89
  -2  -5 -16    0.74    7.32
   2   5  16   -3.95   22.83
   3   5  16   32.30   26.51
  -3  -5 -16   17.60    8.48
  -4  -5 -16    6.08    7.46
   4   5  16   36.54   33.79
   5   5  16   25.43   33.64
  -5  -5 -16   -8.94    8.87
   3  -6 -16   76.50   35.87
  -2   6  16   -5.02   13.88
   2  -6 -16   58.84   31.59
  -1   6  16   30.80   12.96
   1  -6 -16   25.33    8.82
   1  -6 -16    2.30   25.89
   0  -6 -16   12.82    8.73
   0  -6 -16   23.51   24.80
   0   6  16   14.70   11.29
   1   6  16   19.37   11.68
  -1  -6 -16   32.18   10.26
  -1  -6 -16    8.52   27.71
   2   6  16  -11.80   28.54
  -2  -6 -16   25.19    9.56
   3   6  16   13.20   32.64
  -3  -6 -16   15.42    8.05
  -4  -6 -16    0.55    7.34
   4   6  16   25.47   34.02
   2  -7 -16  105.30   36.57
  -1   7  16   23.80   13.48
   1  -7 -16   42.91   10.03
   1  -7 -16   83.67   33.56
   0  -7 -16   53.39   29.47
   0   7  16   23.82   13.25
   0  -7 -16   25.84    9.04
   1   7  16   20.25   11.20
  -1  -7 -16   26.95   10.34
  -2  -7 -16   33.64   10.26
   2   7  16   -0.66   29.60
  -3  -7 -16   22.10    9.11
   3   7  16   29.54   30.90
  -4  -7 -16   13.14    8.81
   1  -8 -16   57.46   29.85
   1  -8 -16   42.48   11.22
   0  -8 -16   52.12   11.72
   0   8  16   33.65   14.03
   1   8  16   47.37   32.88
   1   8  16   31.17   13.65
  -2  -8 -16   18.14    8.64
   2   8  16   17.12   30.73
  -3  -8 -16   16.18    9.48
   1   9  16    4.53   13.46
  -1  -5  17    1.41   14.84
   1   5 -17   39.61   18.15
   0  -5  17  -28.71   14.01
   0   5 -17   31.49   16.25
  -1   5 -17   27.18   17.67
   3   4 -17   -1.24   12.39
  -3  -4  17   14.32   14.80
   2   4 -17   29.21   15.39
  -2  -4  17   14.06   14.89
   1   4 -17   11.12   12.76
  -1  -4  17   -3.97   13.45
   0  -4  17   -4.02   14.76
   0   4 -17   33.10   13.64
  -1   4 -17   83.48   18.29
   1  -4  17    3.15   15.72
  -2   4 -17   36.27   17.00
   2  -4  17    5.44   14.38
  -4  -3  17   18.06   11.96
   3   3 -17   38.07   31.21
   3   3 -17    5.42   13.41
  -3  -3  17   16.48   13.82
   2   3 -17   29.47   14.21
  -2  -3  17   12.81   14.31
   1   3 -17   19.29   11.53
  -1  -3  17   13.30   13.69
   0   3 -17   22.15   12.85
   0  -3  17    0.09   14.14
   1  -3  17   -1.56   13.43
  -1   3 -17   15.99   11.96
  -2   3 -17   46.05   14.52
   2  -3  17    4.98   13.04
  -3   3 -17   20.72   13.56
  -4  -2  17   18.44   11.98
  -4  -2  17   -5.75   10.29
   4   2 -17   56.62   37.90
   3   2 -17   19.87   12.82
   3   2 -17   53.89   34.41
  -3  -2  17    0.47    9.78
   2   2 -17   31.27   13.91
   2   2 -17  -11.99   28.38
  -2  -2  17    5.03   11.95
  -1  -2  17    7.18   12.74
   1   2 -17   47.07   14.47
   0  -2  17   -6.66   13.23
   0   2 -17   17.23   11.01
   1  -2  17    1.59   13.17
  -1   2 -17   33.71   13.22
  -2   2 -17   79.88   16.69
  -3   2 -17   -1.82   11.02
   3  -2  17   12.07    8.48
   4  -2  17    6.85    9.01
  -4   2 -17    5.28   13.24
   4   1 -17   73.86   43.97
  -4  -1  17   23.42   11.77
  -4  -1  17   24.85   12.04
  -3  -1  17   15.26    9.82
  -3  -1  17   11.67   10.15
   3   1 -17   45.49   40.48
   2   1 -17   41.98   14.56
   2   1 -17   -2.67   32.22
  -2  -1  17   19.31   12.62
   1   1 -17    5.41   28.72
   1   1 -17   26.16   13.32
  -1  -1  17    7.29   11.59
   0   1 -17   43.78   14.10
   0  -1  17    6.58   11.80
  -1   1 -17    9.46    9.94
   1  -1  17   -0.76   11.71
  -2   1 -17    8.36   10.96
  -2   1 -17   32.66   11.97
  -3   1 -17   -6.95   10.35
   3  -1  17   15.96    7.19
  -4   1 -17    1.62   10.95
   4  -1  17    3.62    8.19
   4   0 -17   70.06   46.59
  -4   0  17   26.67   12.97
  -3   0  17   26.27   10.76
   3   0 -17   27.56   37.96
  -2   0  17    1.36   10.07
   2   0 -17    9.61   38.46
  -2   0  17    0.97    7.68
   1   0 -17    0.87   11.53
   1   0 -17   26.69   32.97
  -1   0  17   16.82   11.88
   0   0 -17   41.46   24.87
   0   0 -17   37.36   14.68
   0   0  17   14.98   12.37
   1   0  17   24.11   12.45
  -1   0 -17   39.18   23.06
  -1   0 -17   43.01   13.55
   2   0  17    0.84    3.87
  -2   0 -17   29.48   11.96
  -2   0 -17  -21.06    8.94
  -3   0 -17    2.63    9.51
   3   0  17   15.19    6.97
   4   0  17   15.02    7.43
  -4   0 -17   -5.17   10.60
  -5   0 -17   18.81   14.72
  -4   1  17   25.34   13.07
   4  -1 -17   -1.20   35.47
   3  -1 -17   41.95   33.12
  -3   1  17   36.23   12.98
  -2   1  17   12.54   11.27
   2  -1 -17   26.18   38.80
  -1   1  17  110.15   17.30
   1  -1 -17   76.04   36.89
   0  -1 -17   66.52   31.54
   0   1  17   88.60   15.58
  -1  -1 -17   31.95   25.25
  -2  -1 -17    7.55    7.53
  -2  -1 -17   -5.28    9.63
  -3  -1 -17    8.20    9.43
  -3  -1 -17   -3.49    9.28
  -4  -1 -17    7.32   10.24
   4   1  17   30.40    7.91
  -5  -1 -17   -9.87   12.64
   5   1  17   13.11    7.97
  -4   2  17   30.77   14.74
   4  -2 -17   36.77   35.48
   3  -2 -17   40.31   34.34
  -3   2  17   36.81   13.22
  -2   2  17   24.13   11.46
   2  -2 -17   69.45   39.71
   1  -2 -17   39.86   37.63
  -1   2  17   21.42   10.57
   0   2  17    0.90    7.40
   0  -2 -17   18.28   34.35
   1   2  17   -1.09    6.30
  -1  -2 -17   37.37   29.88
  -1  -2 -17   -7.43    6.92
  -2  -2 -17   -2.53    6.78
  -3  -2 -17   10.35    8.57
   3   2  17   42.09   26.15
  -4  -2 -17   -0.21    9.22
  -4   3  17   20.76   14.11
  -3   3  17   20.60   12.35
   3  -3 -17   14.08   31.94
  -2   3  17   39.33   12.42
   2  -3 -17   23.30   32.04
  -1   3  17   30.59   12.14
   1  -3 -17   35.93   31.58
   0  -3 -17   11.11   29.61
   0   3  17    2.34    7.79
   1   3  17   35.32   10.55
  -1  -3 -17   38.53    9.59
  -1  -3 -17   33.78   29.83
  -2  -3 -17   12.66    8.48
  -3  -3 -17    8.28    8.47
   3   3  17   15.38   24.32
   4   3  17   17.85   31.44
  -4  -3 -17   17.91   10.20
  -5  -3 -17    8.39    9.43
  -3   4  17   15.55   12.57
   3  -4 -17   39.39   32.78
  -2   4  17   12.82   11.61
   2  -4 -17   49.52   33.89
  -1   4  17   13.09    9.55
   1  -4 -17    9.21   30.94
   0  -4 -17   16.12   26.68
   0   4  17    6.93    8.39
   1   4  17   51.26   12.46
  -1  -4 -17   23.67   28.02
  -1  -4 -17   46.35   10.54
  -2  -4 -17   13.18    8.54
  -3  -4 -17   27.63   10.94
   3   4  17   17.52   27.14
   4   4  17   -3.83   30.00
  -4  -4 -17   23.91   10.21
   5   4  17    9.00   34.96
  -5  -4 -17   12.68   11.12
   3  -5 -17   49.61   36.47
  -3   5  17   -2.85   11.97
  -2   5  17   17.46   13.16
   2  -5 -17   31.84   32.80
   1  -5 -17   74.11   31.29
  -1   5  17   57.04   16.08
   0  -5 -17   31.33   26.27
   0  -5 -17   37.97   10.44
   0   5  17   54.74   15.17
  -1  -5 -17    4.64    7.66
   1   5  17   20.73   10.41
  -1  -5 -17    0.80   23.46
  -2  -5 -17   10.82    8.68
   2   5  17   14.06   25.63
  -3  -5 -17   12.89    8.91
   3   5  17   30.20   28.32
   4   5  17   49.52   34.75
  -4  -5 -17   34.39   10.75
  -2   6  17   -7.62   11.72
   2  -6 -17   38.30   32.56
  -1   6  17   29.38   12.87
   1  -6 -17   35.87   26.93
   0  -6 -17   53.58   26.45
   0   6  17   15.80   11.23
   0  -6 -17   13.36    8.20
  -1  -6 -17   37.24   29.61
  -1  -6 -17   49.88   12.19
   1   6  17   36.89   14.03
  -2  -6 -17   18.76    9.03
   2   6  17   21.16   28.60
   3   6  17   43.54   36.73
  -3  -6 -17    5.98    7.23
  -4  -6 -17    8.71    8.65
   4   6  17   22.88   37.77
   2  -7 -17   83.14   36.25
   1  -7 -17   70.65   33.86
  -1   7  17    1.56   13.00
   0  -7 -17   44.15    9.96
   0  -7 -17   56.89   30.13
   0   7  17   10.83   11.64
   1   7  17   19.00   11.49
  -1  -7 -17   19.90    9.39
  -2  -7 -17    8.04    7.89
   2   7  17   40.63   34.43
  -3  -7 -17   19.77    8.79
   3   7  17   35.75   37.03
   1  -8 -17   72.54   13.47
   0   8  17   -5.34   12.80
   0  -8 -17   46.26   11.39
   1   8  17   14.98   28.89
  -1  -8 -17   18.73    9.17
   1   8  17   48.17   15.85
   2   8  17  -28.82   32.57
  -2  -8 -17   14.71    9.24
   2   4 -18   -1.56   13.31
  -2  -4  18   -3.18   15.52
  -1  -4  18   10.08   15.81
   1   4 -18   43.65   15.48
   0  -4  18    4.71   16.69
   0   4 -18   14.77   13.85
  -1   4 -18   31.78   16.22
   1  -4  18    2.63   17.27
  -2   4 -18   16.91   16.40
   3   3 -18   29.74   15.43
  -3  -3  18   31.20   14.80
  -2  -3  18   -5.25   12.58
   2   3 -18   47.73   16.19
   1   3 -18   16.14   12.53
  -1  -3  18    7.10   13.58
   0  -3  18    4.24   14.52
   0   3 -18    8.58   12.17
   1  -3  18   13.19   15.08
  -1   3 -18   31.20   14.96
   2  -3  18   33.19   16.64
  -2   3 -18   18.87   13.89
  -4  -2  18   -6.95   10.77
  -4  -2  18   29.87   13.31
  -3  -2  18   13.20   11.78
   3   2 -18   28.10   13.39
   3   2 -18   28.46   32.87
   2   2 -18   29.84   33.03
   2   2 -18   28.06   15.02
  -2  -2  18   15.13   13.42
   1   2 -18   30.49   13.30
  -1  -2  18   11.42   13.48
   0  -2  18    6.32   14.34
   0   2 -18   44.18   13.69
   1  -2  18   12.80   14.65
  -1   2 -18   42.81   13.76
  -2   2 -18   30.33   13.00
   2  -2  18   16.35   14.59
  -3   2 -18    5.10   11.30
   4  -2  18    6.90    9.86
  -4  -1  18    6.60   11.28
  -3  -1  18   13.15   10.33
   3   1 -18   24.04   37.10
  -3  -1  18   -1.90    9.73
   2   1 -18   43.37   14.38
   2   1 -18   37.99   33.33
  -2  -1  18    6.23   11.91
   1   1 -18   28.02   13.23
  -1  -1  18    0.60   10.96
   1   1 -18   22.89   28.71
   0   1 -18   25.18   13.23
   0  -1  18  -12.68   11.66
  -1   1 -18  186.53   17.68
  -2   1 -18   23.33   11.35
  -3   1 -18   22.83   13.60
   3  -1  18   23.19    8.98
   4  -1  18    7.60    8.39
  -4   1 -18    4.32   13.50
  -4   0  18   11.61   12.23
  -3   0  18   20.62   11.80
   3   0 -18   65.11   39.30
  -2   0  18    6.78    9.43
   2   0 -18   29.96   37.33
  -1   0  18   83.18   16.23
   1   0 -18   38.94   32.24
   0   0 -18   22.45   25.46
   0   0  18   -3.26   11.26
   0   0 -18   32.35   14.50
   1   0  18    6.96   12.13
  -1   0 -18   40.93   14.47
  -2   0 -18   21.72   11.68
  -2   0 -18    1.47   10.44
   3   0  18    9.99    6.12
  -3   0 -18   -9.18   10.17
   4   0  18    4.01    7.23
  -4   0 -18   13.46   13.34
  -4   1  18    5.42   12.26
  -3   1  18   24.97   11.59
   3  -1 -18   24.09   33.35
   2  -1 -18   32.68   34.91
  -2   1  18   10.82    9.69
  -1   1  18    7.68    8.86
   1  -1 -18   45.11   37.00
   0   1  18    7.15    7.65
   0  -1 -18    2.84   24.51
  -1  -1 -18   50.90   26.29
   1   1  18   22.15    9.39
  -2  -1 -18   -0.13    8.85
  -3  -1 -18  -11.36    8.86
  -4  -1 -18   -2.59   10.96
   4   1  18   11.67    6.78
  -5  -1 -18   17.42   14.74
  -4   2  18   21.90   14.67
   3  -2 -18   -3.63   30.60
  -3   2  18   22.12   11.91
   2  -2 -18   21.64   34.44
  -2   2  18   30.84   12.26
  -1   2  18    9.25    9.82
   1  -2 -18   -2.31   35.33
   0  -2 -18   14.25   31.06
   0   2  18    3.44    7.51
  -1  -2 -18   21.34   27.68
   1   2  18   14.03    8.23
  -2  -2 -18   26.46    9.99
  -3  -2 -18   -2.13    8.82
  -4  -2 -18   -7.30    8.84
  -3   3  18   21.36   12.78
   3  -3 -18   59.40   37.70
  -2   3  18   31.41   12.26
   2  -3 -18   54.13   35.49
   1  -3 -18   33.10   31.59
  -1   3  18   21.63   10.86
   0  -3 -18   29.94   30.38
   0   3  18    2.84    8.07
  -1  -3 -18   13.36   29.14
  -1  -3 -18    3.28    6.99
   1   3  18   16.32    8.94
  -2  -3 -18    6.05    8.30
   3   3  18   26.24   26.72
  -3  -3 -18   14.08    9.26
   4   3  18   75.08   36.46
  -3   4  18   18.43   14.17
   3  -4 -18   32.76   34.78
  -2   4  18    3.08   12.02
   2  -4 -18   22.39   31.81
   1  -4 -18   18.71   30.40
  -1   4  18   33.14   11.63
   0   4  18   11.53   10.22
   0  -4 -18   31.52   27.73
   1   4  18    4.77    8.21
  -1  -4 -18    9.32    8.08
  -1  -4 -18   -2.50   24.97
  -2  -4 -18    7.98    7.86
  -3  -4 -18   10.35    8.63
   3   4  18   16.74   30.10
  -4  -4 -18   13.65   11.00
   4   4  18   58.63   36.34
   2  -5 -18   65.22   33.94
  -2   5  18    0.27   14.75
   1  -5 -18   23.07   28.67
  -1   5  18   35.59   13.75
   0   5  18   25.17   12.35
   0  -5 -18   25.42   25.93
   1   5  18    2.57    9.93
  -1  -5 -18   27.12   28.60
  -1  -5 -18    7.70    7.61
  -2  -5 -18   -8.27    7.03
   2   5  18   27.59   25.94
  -3  -5 -18   15.40    8.98
   3   5  18   44.21   30.04
   4   5  18   56.16   37.73
  -2   6  18    4.05   14.18
   2  -6 -18   62.63   36.31
   1  -6 -18   75.36   31.68
  -1   6  18   25.99   14.72
   0  -6 -18   22.77    9.20
   0   6  18   10.07   10.92
   0  -6 -18   52.11   26.61
   1   6  18   24.17   11.74
  -1  -6 -18   36.45   30.91
  -1  -6 -18   37.37   10.90
  -2  -6 -18   12.41    8.25
   2   6  18    1.51   26.13
  -3  -6 -18   18.08    9.01
   3   6  18   16.73   32.03
  -4  -6 -18    3.76    9.27
   1  -7 -18    8.55   30.29
  -1   7  18   22.35   14.64
   0  -7 -18   27.19    9.10
   0   7  18   21.30   12.67
   0  -7 -18   29.71   30.65
   1   7  18    4.85   11.67
  -1  -7 -18   23.24    8.22
  -2  -7 -18   27.25   10.75
   2   7  18   -6.37   27.08
  -3  -7 -18   11.65    9.27
   0  -8 -18   35.21   10.87
  -1  -8 -18   22.57    9.97
  -2  -8 -18   59.32   14.36
  -1  -4  19   -4.14   14.57
   0  -4  19    1.25   17.67
   0   4 -19   27.86   16.27
  -1   4 -19   -8.80   14.16
  -3  -3  19   16.69   15.42
  -2  -3  19   18.42   15.57
   2   3 -19   27.39   15.84
  -1  -3  19   30.41   16.86
   1   3 -19   49.46   15.01
   0  -3  19  -15.73   13.72
   0   3 -19   13.68   12.60
  -1   3 -19   36.12   15.88
   1  -3  19  -15.13   14.97
  -2   3 -19   66.41   17.24
   2  -3  19    6.24   15.00
  -3  -2  19   16.54   13.54
   3   2 -19    1.50   33.35
   2   2 -19   22.72   14.17
  -2  -2  19    1.00   13.27
   1   2 -19   31.48   13.12
  -1  -2  19  -13.60   11.20
   0   2 -19   23.39   12.61
   0  -2  19   -0.92   14.02
   1  -2  19   23.23   17.13
  -1   2 -19   42.99   14.72
  -2   2 -19   38.00   14.57
   2  -2  19   -4.81   13.65
  -3   2 -19   -9.95   11.88
   3   1 -19   63.30   38.27
  -3  -1  19   18.57   11.67
   2   1 -19   48.37   32.59
  -2  -1  19   19.11   12.41
   1   1 -19   60.42   27.37
   1   1 -19   44.50   14.63
  -1  -1  19    6.08   13.00
   0   1 -19   50.82   14.70
   0  -1  19   -1.37   13.53
   1  -1  19   -3.59   13.49
  -1   1 -19   36.76   12.79
   2  -1  19   10.36   15.02
  -2   1 -19   42.91   13.64
  -3   1 -19   13.96   13.43
   4  -1  19   19.50    9.60
  -3   0  19    8.95   11.81
   3   0 -19   31.12   39.27
  -2   0  19    9.49    9.53
   2   0 -19   52.31   34.71
   1   0 -19   29.58   31.16
   0   0 -19  143.36   22.40
   1   0  19    7.82   12.57
  -1   0 -19   23.11   14.19
   2   0  19    6.78   13.38
   3   0  19   28.17    8.74
  -3   0 -19   -7.09   10.92
  -4   0 -19   -8.97   11.99
   4   0  19   10.43    8.05
   3  -1 -19   26.97   36.00
  -3   1  19   15.39   11.34
  -2   1  19   14.72    9.51
   2  -1 -19   14.46   36.29
  -1   1  19   20.78   10.62
   1  -1 -19   40.10   36.81
   0   1  19    8.12    8.24
   0  -1 -19   24.38   28.36
  -1  -1 -19   48.34   25.85
   3   1  19   27.34    6.19
   4   1  19   30.67    8.51
   3  -2 -19   55.56   38.69
  -3   2  19   25.15   13.23
   2  -2 -19  114.71   39.97
   1  -2 -19   47.21   35.98
  -1   2  19   14.80    9.88
   0  -2 -19   48.00   32.89
   0   2  19   31.21   10.90
  -1  -2 -19   35.90   26.51
   1   2  19   12.82    8.14
  -2  -2 -19   -6.79    7.66
  -3  -2 -19    1.11    8.72
  -4  -2 -19   10.18   10.46
   3  -3 -19    0.27   36.27
  -3   3  19   20.20   13.11
   2  -3 -19   56.53   33.33
  -2   3  19   19.15   12.45
   1  -3 -19   69.47   32.51
  -1   3  19   29.05   11.77
   0   3  19    9.00    9.06
   0  -3 -19   34.68   29.70
  -1  -3 -19   21.97   28.45
   1   3  19    5.50    7.56
  -2  -3 -19   17.13    9.76
   3   3  19   50.54   30.75
  -3  -3 -19   24.79   10.88
  -4  -3 -19   22.71   12.49
  -2   4  19   25.12   15.59
   2  -4 -19   61.92   38.63
   1  -4 -19  -15.46   28.97
  -1   4  19   25.66   12.54
   0   4  19    8.33    9.37
   0  -4 -19   38.09   25.98
  -1  -4 -19   30.46   25.49
   1   4  19   18.23   10.96
  -1  -4 -19   11.59    8.93
  -2  -4 -19   10.20    8.24
  -3  -4 -19   28.15   11.44
   3   4  19   23.29   29.02
   4   4  19   71.69   37.79
  -4  -4 -19  -12.30    8.82
   2  -5 -19   35.71   33.78
  -2   5  19   14.24   14.41
  -1   5  19   12.57   13.04
   1  -5 -19   70.11   34.72
   0  -5 -19   22.36   23.65
   0   5  19   10.48   11.17
   1   5  19   15.09   10.48
  -1  -5 -19    2.47    7.45
  -1  -5 -19   34.89   27.32
  -2  -5 -19   11.03    8.81
   2   5  19   27.79   31.55
   3   5  19   43.65   29.06
  -3  -5 -19    9.09    9.03
   4   5  19    5.92   34.89
  -4  -5 -19   18.50   10.59
   1  -6 -19   71.38   33.81
  -1   6  19   16.95   13.57
   0  -6 -19   71.26   29.93
  -1  -6 -19   20.98    8.22
  -1  -6 -19   27.15   32.51
   1   6  19   11.60   11.32
   2   6  19   13.94   28.66
  -2  -6 -19   16.92    9.53
   3   6  19   21.54   31.06
  -3  -6 -19   14.52    9.59
   0   7  19   12.12   12.60
   0  -7 -19   19.71   30.82
   1   7  19   30.69   12.66
  -1  -7 -19   47.67   12.37
  -2  -7 -19   32.03   10.71
  -1  -8 -19   26.39   11.05
  -2  -3  20   -0.03   14.95
  -1  -3  20   25.37   15.96
   1   3 -20   28.92   15.91
   0   3 -20   29.88   14.93
   0  -3  20   -7.68   15.31
  -1   3 -20   41.90   16.63
   1  -3  20   -8.04   17.58
  -3  -2  20   38.54   15.73
   3   2 -20   49.36   38.37
   2   2 -20   19.47   16.29
  -2  -2  20   18.86   14.46
   1   2 -20   41.14   15.02
  -1  -2  20   -3.46   12.94
   0  -2  20    6.65   14.52
   0   2 -20   58.44   16.57
  -1   2 -20   11.89   13.33
   1  -2  20   13.57   16.49
   2  -2  20   14.82   16.26
  -3  -1  20   -7.97   10.14
   3   1 -20   12.36   35.40
   2   1 -20   92.00   36.52
  -1  -1  20   10.01   13.66
   1   1 -20   48.91   16.83
   0   1 -20   68.11   18.10
   0  -1  20   -1.64   13.76
  -1   1 -20   51.81   15.23
   1  -1  20   -2.73   14.17
   2  -1  20   -4.68   15.70
  -3   1 -20   30.02   14.08
   3   0 -20   61.89   45.72
  -3   0  20   16.84   12.14
   2   0 -20   76.90   36.33
  -1   0  20    8.58   10.83
   1   0 -20   58.16   30.15
   0   0 -20   49.25   24.26
  -1   0 -20   31.37   13.51
  -3   0 -20   15.86   14.24
  -4   0 -20   12.69   14.40
   4   0  20    7.64    8.22
  -3   1  20   13.57   12.17
  -2   1  20   20.73   10.74
   2  -1 -20   70.43   40.40
   1  -1 -20   56.12   34.15
  -1   1  20   12.66    9.76
   0  -1 -20   52.89   28.14
   0   1  20   15.73    8.98
  -1  -1 -20   29.71   22.39
   1   1  20    9.03    7.81
   3   1  20   32.96    7.07
   4   1  20   29.09   10.03
  -3   2  20   21.97   13.58
   2  -2 -20   63.28   34.76
  -2   2  20   19.78   12.76
   1  -2 -20   45.57   33.74
  -1   2  20    6.45    9.39
   0   2  20   17.16    9.20
   0  -2 -20   56.06   29.09
   1   2  20   12.28    8.18
  -1  -2 -20   33.01   25.52
  -3  -2 -20   21.97   11.54
  -2   3  20   16.45   14.67
   2  -3 -20   68.26   36.56
   1  -3 -20   89.85   33.92
   0  -3 -20   73.17   32.92
   0   3  20   26.22   10.72
  -1  -3 -20   48.97   31.32
   1   3  20   18.90    9.48
  -2  -3 -20   20.15    9.68
   3   3  20   41.11   26.24
  -3  -3 -20   16.03   11.52
  -4  -3 -20    9.10   11.72
  -2   4  20   20.34   13.88
   2  -4 -20   55.78   39.18
   1  -4 -20   74.66   30.85
  -1   4  20   28.93   13.74
   0  -4 -20   67.99   28.60
   0   4  20   18.38   11.22
  -1  -4 -20   36.52   25.45
   1   4  20   13.55    9.73
  -2  -4 -20   46.01   11.38
   3   4  20   54.78   30.69
  -4  -4 -20   16.73   11.83
   4   4  20   34.22   36.13
  -1   5  20   27.48   14.95
   1  -5 -20   72.57   35.01
   0  -5 -20   43.33   31.38
   0   5  20   31.15   12.65
   1   5  20   22.36   11.54
  -1  -5 -20   59.80   31.33
  -2  -5 -20   14.28    8.80
   2   5  20   -5.17   25.94
   3   5  20   37.96   34.36
  -3  -5 -20   10.95    9.71
  -1   6  20   11.67   14.63
   0   6  20   35.24   14.68
   0  -6 -20   37.88   29.53
   1   6  20   11.06   12.27
  -1  -6 -20   33.32   30.70
  -1  -6 -20   42.43   11.24
  -2  -6 -20   21.00   10.16
   2   6  20    9.16   30.55
  -3  -6 -20   21.14   11.44
   0   7  20   10.36   14.58
  -1  -7 -20   14.79    9.05
  -2  -7 -20    8.92    9.89
  -1  -3  21   10.28   18.64
   0  -3  21  -27.10   15.87
  -2  -2  21   21.49   14.51
  -1  -2  21  -18.81   13.71
   1   2 -21   53.36   18.32
   0   2 -21   33.28   15.63
   0  -2  21    6.14   16.11
  -1   2 -21   38.16   15.61
   1  -2  21  -31.02   16.73
   2  -2  21  -18.34   17.71
   2   1 -21   69.78   33.34
   1   1 -21   43.63   17.56
   0   1 -21   51.48   16.76
   1  -1  21   15.94   17.94
  -1   1 -21   50.04   16.04
   2  -1  21    5.68   18.10
   2   0 -21   61.87   36.71
  -2   0  21   21.38   12.67
   1   0 -21   79.39   33.18
  -1   0 -21   45.66   16.61
  -2   1  21   17.21   13.45
   2  -1 -21   73.74   40.50
  -1   1  21    4.16   10.80
   1  -1 -21   40.65   30.07
   0   1  21    8.57    9.09
   0  -1 -21   72.63   27.33
  -1  -1 -21   73.60   26.78
   1   1  21   32.44   11.30
   2  -2 -21   94.01   41.40
   1  -2 -21  113.90   38.20
   0  -2 -21   75.70   30.27
   1   2  21   14.35    9.23
  -1  -2 -21   51.24   26.71
  -3  -2 -21    8.59   11.54
  -2   3  21    9.81   13.27
   1  -3 -21   85.13   36.55
  -1   3  21    4.94   11.52
   0  -3 -21   85.01   32.71
   1   3  21   15.01    8.75
  -1  -3 -21   35.30   27.56
  -3  -3 -21   -1.13   10.72
  -1   4  21   26.44   13.68
   1  -4 -21   74.44   34.08
   0  -4 -21   45.55   28.75
   0   4  21   13.26   11.25
  -1  -4 -21   46.32   29.36
   1   4  21    6.37    9.22
   3   4  21   22.46   30.33
  -3  -4 -21    6.67   11.19
  -1   5  21   30.18   14.31
   0  -5 -21   58.35   28.55
   0   5  21   16.53   12.04
   1   5  21   16.00   11.52
  -1  -5 -21   23.42   30.97
   2   5  21   -7.98   26.77
  -2  -5 -21    8.26   10.03
  -3  -5 -21   18.31   11.61
   0   6  21    5.27   11.85
  -2  -6 -21   25.74   11.67
  -1  -2  22    5.21   16.95
   0  -2  22    5.23   16.82
   1  -2  22   -6.35   19.82
   0   1 -22   20.11   17.15
  -1   1 -22   39.05   17.93
   2   0 -22   90.41   38.86
  -1   0  22   15.09   11.88
   1   0 -22   43.68   27.80
  -1   1  22    9.93   12.23
   1  -1 -22   61.11   29.75
   0   1  22   47.76   13.98
   0  -1 -22   93.40   31.67
   1   1  22   22.80   10.17
   1  -2 -22   96.10   37.80
   0  -2 -22  102.15   32.80
   1   2  22    3.62    8.68
  -1  -2 -22   39.97   24.12
  -1   3  22   22.93   13.81
   1  -3 -22   86.78   37.34
   0  -3 -22   46.74   31.23
   0   3  22    9.27    9.91
   1   3  22   25.69   10.39
  -1  -3 -22   66.33   32.23
  -1   4  22    9.33   11.61
   0   4  22   24.15   12.60
   0  -4 -22   74.23   33.14
   1   4  22   16.86   10.89
  -1  -4 -22    6.20   31.92
   3   4  22   -9.19   27.86
  -3  -4 -22   -7.07   10.24
   0   5  22   19.79   13.11
  -3  -5 -22  -13.08   10.75
  -2  -6 -22   15.46   11.55
   0   0  23    8.77   10.39
   1  -1 -23   60.11   32.86
   0  -1 -23   98.28   29.44
   0   1  23   13.47   10.41
   1   1  23   21.77   10.72
   0   2  23   10.11    9.77
   0  -2 -23   21.55   28.64
  -1  -2 -23   50.67   25.51
   0  -3 -23   43.64   32.84
  -1  -3 -23   43.37   31.45
   1   3  23   10.19    9.71
   0   4  23   15.07   12.14
   1   1  24    3.42    9.56
   1   2  24   18.95   10.96
   0   0   0    0.00    0.00
;
_shelx_hkl_checksum              61568
loop_
_space_group_symop_operation_xyz
'x, y, z'
'-x, -y, -z'
loop_
_atom_site_label
_atom_site_type_symbol
_atom_site_fract_x
_atom_site_fract_y
_atom_site_fract_z
_atom_site_U_iso_or_equiv
_atom_site_adp_type
_atom_site_occupancy
_atom_site_site_symmetry_order
_atom_site_calc_flag
_atom_site_refinement_flags_posn
_atom_site_refinement_flags_adp
C1 C 0.4631(8) 0.9225(6) 0.7589(3) 0.0476(13) Uani 1 1 d . .
H1 H 0.3363 1.0279 0.7534 0.057 Uiso 1 1 calc R U
C2 C 0.3802(9) 0.7873(6) 0.7206(3) 0.0525(13) Uani 1 1 d . .
H2A H 0.4053 0.6723 0.7521 0.063 Uiso 1 1 calc R U
H2B H 0.2068 0.8202 0.7080 0.063 Uiso 1 1 calc R U
C3 C 0.5446(9) 0.7920(6) 0.6524(3) 0.0518(13) Uani 1 1 d . .
C4 C 0.7900(8) 1.1118(5) 0.7102(3) 0.0445(12) Uani 1 1 d . .
C5 C 0.9509(9) 1.1673(6) 0.6516(3) 0.0563(14) Uani 1 1 d . .
H5 H 0.9834 1.1085 0.6118 0.068 Uiso 1 1 calc R U
C6 C 1.0615(11) 1.3100(7) 0.6531(3) 0.0726(17) Uani 1 1 d . .
H6 H 1.1672 1.3471 0.6136 0.087 Uiso 1 1 calc R U
C7 C 1.0206(11) 1.3976(7) 0.7104(4) 0.0747(18) Uani 1 1 d . .
H7 H 1.1005 1.4914 0.7112 0.090 Uiso 1 1 calc R U
C8 C 0.8591(11) 1.3453(6) 0.7674(3) 0.0652(16) Uani 1 1 d . .
H8 H 0.8277 1.4060 0.8065 0.078 Uiso 1 1 calc R U
C9 C 0.7412(9) 1.2039(6) 0.7679(3) 0.0562(14) Uani 1 1 d . .
H9 H 0.6304 1.1713 0.8067 0.067 Uiso 1 1 calc R U
C10 C 0.5159(9) 0.8572(5) 0.8401(3) 0.0425(12) Uani 1 1 d . .
C11 C 0.7378(9) 0.7574(6) 0.8628(3) 0.0543(13) Uani 1 1 d . .
H11 H 0.8611 0.7325 0.8272 0.065 Uiso 1 1 calc R U
C12 C 0.7834(10) 0.6923(6) 0.9377(3) 0.0640(15) Uani 1 1 d . .
H12 H 0.9361 0.6263 0.9524 0.077 Uiso 1 1 calc R U
C13 C 0.5978(11) 0.7276(6) 0.9897(3) 0.0581(14) Uani 1 1 d . .
C14 C 0.3763(11) 0.8286(7) 0.9687(3) 0.0716(16) Uani 1 1 d . .
H14 H 0.2532 0.8542 1.0043 0.086 Uiso 1 1 calc R U
C15 C 0.3371(9) 0.8923(6) 0.8937(3) 0.0618(15) Uani 1 1 d . .
H15 H 0.1857 0.9606 0.8792 0.074 Uiso 1 1 calc R U
C16 C 0.5295(10) 0.6905(7) 0.5923(3) 0.0714(16) Uani 1 1 d . .
H16A H 0.6690 0.7035 0.5573 0.086 Uiso 1 1 calc R U
H16B H 0.5429 0.5677 0.6145 0.086 Uiso 1 1 calc R U
C17 C 0.2933(11) 0.7477(7) 0.5506(3) 0.0758(18) Uani 1 1 d . .
H17A H 0.2993 0.6846 0.5099 0.091 Uiso 1 1 calc R U
H17B H 0.1543 0.7205 0.5838 0.091 Uiso 1 1 calc R U
N1 N 0.6870(7) 0.9605(4) 0.7132(2) 0.0480(10) Uani 1 1 d . .
N2 N 0.7104(7) 0.8900(5) 0.6483(2) 0.0557(11) Uani 1 1 d . .
O1 O 0.2588(12) 0.9269(6) 0.5222(2) 0.1256(18) Uani 1 1 d . .
H1O H 0.2865 0.9434 0.4770 0.188 Uiso 1 1 calc R U
Cl1 Cl 0.6552(3) 0.6482(2) 1.08345(8) 0.0925(7) Uani 1 1 d . .
loop_
_atom_site_aniso_label
_atom_site_aniso_U_11
_atom_site_aniso_U_22
_atom_site_aniso_U_33
_atom_site_aniso_U_23
_atom_site_aniso_U_13
_atom_site_aniso_U_12
C1 0.038(3) 0.048(3) 0.060(3) -0.016(3) -0.001(3) -0.011(2)
C2 0.051(3) 0.046(3) 0.066(4) -0.016(3) -0.008(3) -0.015(2)
C3 0.048(3) 0.042(3) 0.069(4) -0.020(3) -0.009(3) -0.005(3)
C4 0.046(3) 0.036(3) 0.053(3) -0.008(2) -0.014(3) -0.007(2)
C5 0.067(4) 0.051(3) 0.050(3) 0.000(3) -0.008(3) -0.016(3)
C6 0.083(5) 0.056(4) 0.080(4) 0.004(3) -0.003(3) -0.033(3)
C7 0.081(5) 0.052(4) 0.096(5) -0.004(4) -0.016(4) -0.031(3)
C8 0.084(4) 0.048(3) 0.070(4) -0.021(3) -0.014(4) -0.012(3)
C9 0.062(4) 0.043(3) 0.068(4) -0.014(3) -0.006(3) -0.017(3)
C10 0.041(3) 0.034(3) 0.058(3) -0.017(2) 0.004(3) -0.014(2)
C11 0.046(3) 0.054(3) 0.060(4) -0.014(3) 0.010(3) 0.000(3)
C12 0.060(4) 0.056(3) 0.072(4) -0.009(3) -0.011(3) 0.002(3)
C13 0.073(4) 0.048(3) 0.054(4) -0.014(3) 0.009(3) -0.011(3)
C14 0.063(4) 0.085(4) 0.069(4) -0.032(3) 0.019(3) -0.005(3)
C15 0.046(3) 0.064(4) 0.074(4) -0.019(3) 0.002(3) -0.001(3)
C16 0.061(4) 0.063(4) 0.097(5) -0.029(3) -0.008(3) -0.012(3)
C17 0.098(5) 0.051(4) 0.076(4) -0.003(3) -0.020(4) -0.010(3)
N1 0.056(3) 0.042(2) 0.054(3) -0.019(2) 0.004(2) -0.020(2)
N2 0.054(3) 0.057(3) 0.062(3) -0.023(2) 0.001(2) -0.014(2)
O1 0.210(6) 0.093(4) 0.074(3) -0.010(3) -0.015(4) -0.029(3)
Cl1 0.1279(16) 0.0861(12) 0.0555(10) -0.0129(8) -0.0010(9) 0.0025(10)
loop_
_atom_type_symbol
_atom_type_description
_atom_type_scat_dispersion_real
_atom_type_scat_dispersion_imag
_atom_type_scat_source
C C 0.0033 0.0016 'International Tables Vol C Tables 4.2.6.8 and 6.1.1.4'
H H 0.0000 0.0000 'International Tables Vol C Tables 4.2.6.8 and 6.1.1.4'
N N 0.0061 0.0033 'International Tables Vol C Tables 4.2.6.8 and 6.1.1.4'
O O 0.0106 0.0060 'International Tables Vol C Tables 4.2.6.8 and 6.1.1.4'
Cl Cl 0.1484 0.1585 'International Tables Vol C Tables 4.2.6.8 and 6.1.1.4'
loop_
_geom_angle_atom_site_label_1
_geom_angle_atom_site_label_2
_geom_angle_atom_site_label_3
_geom_angle
N1 C1 C10 112.8(4)
N1 C1 C2 101.4(3)
C10 C1 C2 113.8(4)
N1 C1 H1 109.5
C10 C1 H1 109.5
C2 C1 H1 109.5
C3 C2 C1 102.8(4)
C3 C2 H2A 111.2
C1 C2 H2A 111.2
C3 C2 H2B 111.2
C1 C2 H2B 111.2
H2A C2 H2B 109.1
N2 C3 C2 114.7(4)
N2 C3 C16 120.6(5)
C2 C3 C16 124.7(4)
C9 C4 C5 119.0(4)
C9 C4 N1 119.7(5)
C5 C4 N1 121.2(4)
C6 C5 C4 119.5(5)
C6 C5 H5 120.2
C4 C5 H5 120.2
C7 C6 C5 121.9(6)
C7 C6 H6 119.1
C5 C6 H6 119.1
C6 C7 C8 118.7(5)
C6 C7 H7 120.7
C8 C7 H7 120.7
C7 C8 C9 121.5(5)
C7 C8 H8 119.2
C9 C8 H8 119.2
C4 C9 C8 119.4(5)
C4 C9 H9 120.3
C8 C9 H9 120.3
C11 C10 C15 118.1(5)
C11 C10 C1 121.6(5)
C15 C10 C1 120.2(4)
C10 C11 C12 121.6(5)
C10 C11 H11 119.2
C12 C11 H11 119.2
C13 C12 C11 118.5(5)
C13 C12 H12 120.7
C11 C12 H12 120.7
C14 C13 C12 121.0(5)
C14 C13 Cl1 120.3(5)
C12 C13 Cl1 118.6(4)
C13 C14 C15 119.0(5)
C13 C14 H14 120.5
C15 C14 H14 120.5
C10 C15 C14 121.6(5)
C10 C15 H15 119.2
C14 C15 H15 119.2
C17 C16 C3 113.0(4)
C17 C16 H16A 109.0
C3 C16 H16A 109.0
C17 C16 H16B 109.0
C3 C16 H16B 109.0
H16A C16 H16B 107.8
O1 C17 C16 110.6(5)
O1 C17 H17A 109.5
C16 C17 H17A 109.5
O1 C17 H17B 109.5
C16 C17 H17B 109.5
H17A C17 H17B 108.1
N2 N1 C4 116.6(4)
N2 N1 C1 112.3(3)
C4 N1 C1 123.8(4)
C3 N2 N1 107.7(4)
C17 O1 H1O 109.5
loop_
_geom_bond_atom_site_label_1
_geom_bond_atom_site_label_2
_geom_bond_distance
C1 N1 1.481(5)
C1 C10 1.503(6)
C1 C2 1.535(6)
C1 H1 0.9800
C2 C3 1.489(7)
C2 H2A 0.9700
C2 H2B 0.9700
C3 N2 1.285(5)
C3 C16 1.499(6)
C4 C9 1.384(6)
C4 C5 1.395(6)
C4 N1 1.404(5)
C5 C6 1.381(6)
C5 H5 0.9300
C6 C7 1.354(7)
C6 H6 0.9300
C7 C8 1.371(7)
C7 H7 0.9300
C8 C9 1.387(6)
C8 H8 0.9300
C9 H9 0.9300
C10 C11 1.368(6)
C10 C15 1.371(6)
C11 C12 1.389(6)
C11 H11 0.9300
C12 C13 1.375(7)
C12 H12 0.9300
C13 C14 1.362(7)
C13 Cl1 1.737(5)
C14 C15 1.383(7)
C14 H14 0.9300
C15 H15 0.9300
C16 C17 1.499(7)
C16 H16A 0.9700
C16 H16B 0.9700
C17 O1 1.397(6)
C17 H17A 0.9700
C17 H17B 0.9700
N1 N2 1.399(5)
O1 H1O 0.8200
loop_
_geom_hbond_atom_site_label_D
_geom_hbond_atom_site_label_H
_geom_hbond_atom_site_label_A
_geom_hbond_distance_DH
_geom_hbond_distance_HA
_geom_hbond_distance_DA
_geom_hbond_angle_DHA
_geom_hbond_site_symmetry_A
O1 H1O N2 0.82 2.41 3.177(6) 156.3 2_676
loop_
_geom_torsion_atom_site_label_1
_geom_torsion_atom_site_label_2
_geom_torsion_atom_site_label_3
_geom_torsion_atom_site_label_4
_geom_torsion
N1 C1 C2 C3 -8.9(4)
C10 C1 C2 C3 -130.3(4)
C1 C2 C3 N2 5.0(5)
C1 C2 C3 C16 -176.2(4)
C9 C4 C5 C6 1.3(7)
N1 C4 C5 C6 -175.7(4)
C4 C5 C6 C7 0.7(8)
C5 C6 C7 C8 -1.9(8)
C6 C7 C8 C9 1.1(8)
C5 C4 C9 C8 -2.1(7)
N1 C4 C9 C8 175.0(4)
C7 C8 C9 C4 0.9(8)
N1 C1 C10 C11 -33.1(6)
C2 C1 C10 C11 81.8(5)
N1 C1 C10 C15 149.1(4)
C2 C1 C10 C15 -96.1(5)
C15 C10 C11 C12 0.1(7)
C1 C10 C11 C12 -177.8(4)
C10 C11 C12 C13 1.1(7)
C11 C12 C13 C14 -2.0(8)
C11 C12 C13 Cl1 -179.4(3)
C12 C13 C14 C15 1.6(8)
Cl1 C13 C14 C15 179.0(4)
C11 C10 C15 C14 -0.5(7)
C1 C10 C15 C14 177.5(4)
C13 C14 C15 C10 -0.4(8)
N2 C3 C16 C17 -115.2(5)
C2 C3 C16 C17 66.1(6)
C3 C16 C17 O1 54.5(7)
C9 C4 N1 N2 170.0(4)
C5 C4 N1 N2 -13.0(6)
C9 C4 N1 C1 22.3(6)
C5 C4 N1 C1 -160.8(4)
C10 C1 N1 N2 133.0(4)
C2 C1 N1 N2 10.9(5)
C10 C1 N1 C4 -78.0(5)
C2 C1 N1 C4 159.9(4)
C2 C3 N2 N1 1.7(5)
C16 C3 N2 N1 -177.1(4)
C4 N1 N2 C3 -159.7(4)
C1 N1 N2 C3 -8.4(5)
