#------------------------------------------------------------------------------
#$Date: 2017-01-09 05:02:49 +0200 (Mon, 09 Jan 2017) $
#$Revision: 190064 $
#$URL: file:///home/coder/svn-repositories/cod/cif/7/22/68/7226833.cif $
#------------------------------------------------------------------------------
#
# This file is available in the Crystallography Open Database (COD),
# http://www.crystallography.net/
#
# All data on this site have been placed in the public domain by the
# contributors.
#
data_7226833
loop_
_publ_author_name
'Collings, Ines E.'
'Bykov, Maxim'
'Bykova, Elena'
'Tucker, Matthew G.'
'Petitgirard, Sylvain'
'Hanfland, Michael'
'Glazyrin, Konstantin'
'van Smaalen, Sander'
'Goodwin, Andrew L.'
'Dubrovinsky, Leonid'
'Dubrovinskaia, Natalia'
_publ_section_title
;
 Structural distortions in the high-pressure polar phases of ammonium
 metal formates
;
_journal_issue                   46
_journal_name_full               CrystEngComm
_journal_page_first              8849
_journal_paper_doi               10.1039/C6CE01891B
_journal_volume                  18
_journal_year                    2016
_chemical_formula_sum            'C3 H7 N Ni O6'
_chemical_formula_weight         211.78
_chemical_name_systematic        'ammonium nickel formate'
_space_group_IT_number           4
_symmetry_cell_setting           monoclinic
_symmetry_Int_Tables_number      4
_symmetry_space_group_name_Hall  'P 2yb'
_symmetry_space_group_name_H-M   'P 1 21 1'
_audit_update_record
;
2016-08-29 deposited with the CCDC.
2016-10-19 downloaded from the CCDC.
;
_cell_angle_alpha                90
_cell_angle_beta                 115.6(2)
_cell_angle_gamma                90
_cell_formula_units_Z            2
_cell_length_a                   6.306(13)
_cell_length_b                   8.0599(14)
_cell_length_c                   7.250(13)
_cell_measurement_reflns_used    541
_cell_measurement_temperature    293
_cell_measurement_theta_max      13.24
_cell_measurement_theta_min      2.32
_cell_volume                     332.3(11)
_computing_cell_refinement       'CrysAlisPro 1.171.38.41 (Rigaku OD, 2015)'
_computing_data_collection       'CrysAlisPro 1.171.38.41 (Rigaku OD, 2015)'
_computing_data_reduction        'CrysAlisPro 1.171.38.41 (Rigaku OD, 2015)'
_computing_structure_refinement  JANA2006
_computing_structure_solution    JANA2006
_diffrn_ambient_temperature      293
_diffrn_detector                 'CCD plate'
_diffrn_measured_fraction_theta_full 0.95
_diffrn_measured_fraction_theta_max 0.94
_diffrn_measurement_device       'ID09A beamline, ESRF'
_diffrn_measurement_method       '\w scans'
_diffrn_radiation_monochromator  synchrotron
_diffrn_radiation_probe          x-ray
_diffrn_radiation_source         synchrotron
_diffrn_radiation_type           synchrotron
_diffrn_radiation_wavelength     0.41168
_diffrn_reflns_av_R_equivalents  0.077
_diffrn_reflns_av_unetI/netI     0.1098
_diffrn_reflns_limit_h_max       7
_diffrn_reflns_limit_h_min       -6
_diffrn_reflns_limit_k_max       8
_diffrn_reflns_limit_k_min       -8
_diffrn_reflns_limit_l_max       7
_diffrn_reflns_limit_l_min       -7
_diffrn_reflns_number            3401
_diffrn_reflns_theta_full        11.46
_diffrn_reflns_theta_max         13.24
_diffrn_reflns_theta_min         2.32
_diffrn_source                   synchrotron
_exptl_absorpt_coefficient_mu    0.642
_exptl_absorpt_correction_T_max  1
_exptl_absorpt_correction_T_min  0.236
_exptl_absorpt_correction_type   multi-scan
_exptl_absorpt_process_details
;
CrysAlisPro 1.171.38.41 (Rigaku Oxford Diffraction, 2015)
Empirical absorption correction using spherical harmonics,
 implemented in SCALE3 ABSPACK scaling algorithm.
;
_exptl_crystal_colour            green
_exptl_crystal_density_diffrn    2.0812
_exptl_crystal_description       'hexagonal bipyramid'
_exptl_crystal_F_000             208
_exptl_crystal_size_max          0.055
_exptl_crystal_size_mid          0.055
_exptl_crystal_size_min          0.055
_refine_diff_density_max         1.00
_refine_diff_density_min         -0.93
_refine_ls_abs_structure_details
'  453 of Friedel pairs used in the refinement'
_refine_ls_extinction_method     none
_refine_ls_goodness_of_fit_gt    2.97
_refine_ls_goodness_of_fit_ref   2.19
_refine_ls_hydrogen_treatment    constr
_refine_ls_number_constraints    21
_refine_ls_number_parameters     46
_refine_ls_number_reflns         2542
_refine_ls_number_restraints     0
_refine_ls_R_factor_all          0.1801
_refine_ls_R_factor_gt           0.1111
_refine_ls_shift/su_max          0.0476
_refine_ls_shift/su_mean         0.0088
_refine_ls_structure_factor_coef F
_refine_ls_weighting_details     w=1/(\s^2^(F)+0.0001F^2^)
_refine_ls_weighting_scheme      sigma
_refine_ls_wR_factor_gt          0.1271
_refine_ls_wR_factor_ref         0.1417
_reflns_number_gt                1110
_reflns_number_total             2542
_reflns_threshold_expression     I>3\s(I)
_cod_data_source_file            c6ce01891b2.cif
_cod_data_source_block           I
_cod_depositor_comments
;
The following automatic conversions were performed:

'_diffrn_radiation_probe' value 'X-ray' changed to 'x-ray' according
to
/usr/data/users/saulius/crontab/automatic-downloads/rss-feeds/RSC/lib/dictionaries/cif_core.dic
dictionary named 'cif_core.dic' version 2.4.2 from 2011-04-26.

Automatic conversion script
Id: cif_fix_values 4268 2015-11-12 08:31:59Z antanas 

 Adding full bibliography for 7226831--7226836.cif.
;
_cod_original_formula_sum        'C3 H7 N1 Ni1 O6'
_cod_database_code               7226833
loop_
_space_group_symop_id
_space_group_symop_operation_xyz
1 x,y,z
2 -x,y+1/2,-z
loop_
_atom_site_label
_atom_site_type_symbol
_atom_site_fract_x
_atom_site_fract_y
_atom_site_fract_z
_atom_site_adp_type
_atom_site_U_iso_or_equiv
_atom_site_site_symmetry_multiplicity
_atom_site_occupancy
_atom_site_calc_flag
Ni1 Ni 0.6598(5) 0.75 0.3190(4) Uani 0.0789(13) 2 1 d
O1 O 0.921(2) 0.6169(16) 0.294(2) Uiso 0.0717(12) 2 1 d
O2 O 0.679(2) 0.6117(16) 0.555(2) Uiso 0.0717(12) 2 1 d
O3 O 0.409(2) 0.6080(16) 0.109(2) Uiso 0.0717(12) 2 1 d
O4 O 0.884(2) 0.8873(16) 0.558(2) Uiso 0.0717(12) 2 1 d
O5 O 0.381(2) 0.8843(16) 0.292(2) Uiso 0.0717(12) 2 1 d
O6 O 0.696(2) 0.8967(15) 0.108(2) Uiso 0.0717(12) 2 1 d
N1 N 0.030(2) 0.249(3) 0.055(2) Uiso 0.070(3) 2 1 d
C1 C 1.064(3) 0.5375(19) 0.439(3) Uiso 0.0717(12) 2 1 d
C2 C 0.613(3) 0.4648(19) 0.544(3) Uiso 0.0717(12) 2 1 d
C3 C 0.449(4) 0.510(3) 0.002(4) Uiso 0.0717(12) 2 1 d
H1 H 1.146151 0.597697 0.564371 Uiso 0.086 2 1 d
H2 H 0.556015 0.408129 0.414871 Uiso 0.086 2 1 d
H3 H 0.599517 0.516363 -0.001869 Uiso 0.086 2 1 d
loop_
_atom_site_aniso_label
_atom_site_aniso_type_symbol
_atom_site_aniso_U_11
_atom_site_aniso_U_22
_atom_site_aniso_U_33
_atom_site_aniso_U_12
_atom_site_aniso_U_13
_atom_site_aniso_U_23
Ni1 Ni 0.110(2) 0.0281(8) 0.0794(17) 0.0002(15) 0.0225(17) 0.0007(17)
loop_
_atom_type_symbol
_atom_type_scat_dispersion_real
_atom_type_scat_dispersion_imag
_atom_type_scat_source
C -0.0001 0.0005 'International Tables Vol C tables 4.2.6.8 and 6.1.1.1'
H 0.0000 0.0000 'International Tables Vol C tables 4.2.6.8 and 6.1.1.1'
N 0.0006 0.0010 'International Tables Vol C tables 4.2.6.8 and 6.1.1.1'
Ni 0.2312 0.4101 'International Tables Vol C tables 4.2.6.8 and 6.1.1.1'
O 0.0018 0.0018 'International Tables Vol C tables 4.2.6.8 and 6.1.1.1'
loop_
_geom_angle_atom_site_label_1
_geom_angle_atom_site_label_2
_geom_angle_atom_site_label_3
_geom_angle_site_symmetry_1
_geom_angle_site_symmetry_3
_geom_angle
O1 Ni1 O2 . . 91.7(6)
O1 Ni1 O3 . . 91.9(6)
O1 Ni1 O4 . . 94.0(6)
O1 Ni1 O5 . . 170.3(7)
O1 Ni1 O6 . . 83.1(7)
O2 Ni1 O3 . . 93.9(6)
O2 Ni1 O4 . . 79.2(6)
O2 Ni1 O5 . . 96.3(7)
O2 Ni1 O6 . . 170.7(5)
O3 Ni1 O4 . . 171.0(8)
O3 Ni1 O5 . . 82.3(6)
O3 Ni1 O6 . . 94.0(6)
O4 Ni1 O5 . . 92.7(6)
O4 Ni1 O6 . . 93.4(6)
O5 Ni1 O6 . . 89.6(7)
Ni1 O1 C1 . . 121.4(18)
Ni1 O2 C2 . . 125.3(14)
Ni1 O3 C3 . . 123.0(15)
Ni1 O4 C1 . 2_756 128.7(13)
Ni1 O5 C2 . 2_656 119.3(11)
Ni1 O6 C3 . 2_655 126.5(18)
O1 C1 O4 . 2_746 127.5(19)
O1 C1 H1 . . 116.24
O4 C1 H1 2_746 . 116.24
O2 C2 O5 . 2_646 121.4(19)
O2 C2 H2 . . 119.3
O5 C2 H2 2_646 . 119.3
O3 C3 O6 . 2_645 124(3)
O3 C3 H3 . . 117.76
O6 C3 H3 2_645 . 117.76
loop_
_geom_bond_atom_site_label_1
_geom_bond_atom_site_label_2
_geom_bond_site_symmetry_2
_geom_bond_distance
Ni1 O1 . 2.038(17)
Ni1 O2 . 2.002(15)
Ni1 O3 . 2.011(15)
Ni1 O4 . 2.026(15)
Ni1 O5 . 2.000(16)
Ni1 O6 . 2.023(16)
O1 C1 . 1.23(2)
O2 C2 . 1.25(2)
O3 C3 . 1.21(3)
O4 C1 2_756 1.25(2)
O5 C2 2_656 1.34(3)
O6 C3 2_655 1.30(3)
C1 H1 . 0.96
C2 H2 . 0.96
C3 H3 . 0.96
loop_
_twin_individual_id
_twin_individual_mass_fraction_refined
_twin_individual_twin_matrix_11
_twin_individual_twin_matrix_12
_twin_individual_twin_matrix_13
_twin_individual_twin_matrix_21
_twin_individual_twin_matrix_22
_twin_individual_twin_matrix_23
_twin_individual_twin_matrix_31
_twin_individual_twin_matrix_32
_twin_individual_twin_matrix_33
1 0.176(6) 1 0 0 0 1 0 0 0 1
2 0.202(3) 1 0 0 0 -1 0 0.7516 0 -1
3 0.144(2) -0.0851 0 -1.1041 0 1 0 0.8353 0 -0.9149
4 0.141(2) -0.9149 0 1.1041 0 -1 0 0.1477 0 0.9149
5 0.174(3) -0.9149 0 1.1041 0 1 0 -0.8353 0 -0.0851
6 0.163(3) -0.0851 0 -1.1041 0 -1 0 -0.8993 0 0.0851
loop_
_twin_refln_datum_id
_twin_refln_individual_id
_twin_refln_index_h
_twin_refln_index_k
_twin_refln_index_l
_twin_refln_f_squared_calc
_twin_refln_f_squared_meas
_twin_refln_f_squared_sigma
_twin_refln_include_status
1 1 0 0 2 3.72 1.73 0.55 o
2 1 0 0 3 152.81 145.12 6.01 o
3 2 3 0 -4 20.10 21.93 1.88 o
3 1 0 0 4 20.10 21.93 1.88 o
4 1 0 0 5 60.04 83.19 6.87 o
5 1 0 0 6 1.38 4.04 1.72 <
6 1 0 0 7 3.51 2.27 2.29 <
7 1 0 1 1 724.59 519.86 15.26 o
8 1 0 -1 1 725.15 523.23 14.88 o
9 1 0 1 2 92.94 100.00 7.85 o
10 1 0 -1 2 93.55 92.58 6.99 o
11 1 0 1 3 64.01 54.97 6.61 o
12 1 0 -1 3 63.89 51.43 5.36 o
13 2 3 -1 -4 228.99 255.34 7.47 o
13 1 0 1 4 228.99 255.34 7.47 o
14 2 3 1 -4 227.60 223.98 6.17 o
14 1 0 -1 4 227.60 223.98 6.17 o
15 1 0 1 5 26.19 25.81 4.08 o
16 1 0 -1 5 26.22 17.17 3.09 o
17 1 0 1 6 9.24 9.14 2.69 o
18 1 0 -1 6 9.20 7.23 3.12 <
19 1 0 1 7 1.05 7.19 2.35 o
20 1 0 -1 7 1.02 -0.54 2.50 <
21 6 0 -2 0 396.52 507.04 5.72 o
21 5 0 2 0 396.52 507.04 5.72 o
21 4 0 -2 0 396.52 507.04 5.72 o
21 3 0 2 0 396.52 507.04 5.72 o
21 2 0 -2 0 396.52 507.04 5.72 o
21 1 0 2 0 396.52 507.04 5.72 o
22 6 0 2 0 396.45 537.52 5.78 o
22 5 0 -2 0 396.45 537.52 5.78 o
22 4 0 2 0 396.45 537.52 5.78 o
22 3 0 -2 0 396.45 537.52 5.78 o
22 2 0 2 0 396.45 537.52 5.78 o
22 1 0 -2 0 396.45 537.52 5.78 o
23 1 0 2 1 4.83 0.52 0.49 <
24 1 0 -2 1 4.59 1.03 0.61 <
25 1 0 2 2 218.32 159.73 12.30 o
26 1 0 -2 2 217.97 172.61 11.90 o
27 1 0 2 3 164.64 171.16 14.43 o
28 1 0 -2 3 164.88 175.90 12.36 o
29 2 3 -2 -4 6.37 2.61 1.47 <
29 1 0 2 4 6.37 2.61 1.47 <
30 2 3 2 -4 6.39 3.32 1.07 o
30 1 0 -2 4 6.39 3.32 1.07 o
31 1 0 2 5 20.72 34.09 8.28 o
32 1 0 -2 5 20.66 25.47 5.44 o
33 1 0 2 6 5.94 7.30 3.87 <
34 1 0 -2 6 5.95 5.81 2.88 <
35 1 0 2 7 0.53 0.24 1.49 <
36 1 0 -2 7 0.53 2.00 1.66 <
37 1 0 3 1 30.97 14.51 2.38 o
38 1 0 -3 1 31.08 20.01 2.93 o
39 1 0 3 2 303.66 270.54 17.99 o
40 1 0 -3 2 303.44 325.53 11.85 o
41 1 0 3 3 10.74 3.32 2.00 <
42 1 0 -3 3 10.74 4.36 1.97 <
43 2 3 -3 -4 10.04 12.47 3.43 o
43 1 0 3 4 10.04 12.47 3.43 o
44 2 3 3 -4 9.11 13.12 2.74 o
44 1 0 -3 4 9.11 13.12 2.74 o
45 1 0 3 5 5.91 3.44 2.57 <
46 1 0 -3 5 5.93 3.07 2.02 <
47 1 0 3 6 0.38 0.18 1.02 <
48 1 0 -3 6 0.40 2.11 1.93 <
49 6 0 -4 0 147.28 120.89 4.10 o
49 5 0 4 0 147.28 120.89 4.10 o
49 4 0 -4 0 147.28 120.89 4.10 o
49 3 0 4 0 147.28 120.89 4.10 o
49 2 0 -4 0 147.28 120.89 4.10 o
49 1 0 4 0 147.28 120.89 4.10 o
50 6 0 4 0 147.30 150.26 4.28 o
50 5 0 -4 0 147.30 150.26 4.28 o
50 4 0 4 0 147.30 150.26 4.28 o
50 3 0 -4 0 147.30 150.26 4.28 o
50 2 0 4 0 147.30 150.26 4.28 o
50 1 0 -4 0 147.30 150.26 4.28 o
51 1 0 4 1 1.77 0.05 0.47 <
52 1 0 -4 1 1.85 0.68 0.66 <
53 1 0 4 2 18.00 18.25 4.96 o
54 1 0 -4 2 18.24 26.42 3.60 o
55 1 0 4 3 111.48 103.38 14.30 o
56 1 0 -4 3 111.12 129.23 8.12 o
57 2 3 -4 -4 1.81 1.20 1.48 <
57 1 0 4 4 1.81 1.20 1.48 <
58 2 3 4 -4 1.81 1.59 0.59 <
58 1 0 -4 4 1.81 1.59 0.59 <
59 1 0 4 5 0.91 1.30 0.49 <
60 1 0 -4 5 1.07 2.72 2.86 <
61 1 0 4 6 8.49 8.24 6.54 <
62 1 0 -4 6 8.50 12.49 5.26 <
63 1 0 5 1 87.78 75.68 7.69 o
64 1 0 -5 1 87.84 133.72 10.39 o
65 1 0 5 2 101.25 79.90 12.51 o
66 1 0 -5 2 101.22 114.01 9.33 o
67 1 0 5 3 0.47 0.11 1.43 <
68 1 0 -5 3 0.48 2.02 1.47 <
69 2 3 -5 -4 14.29 13.45 4.64 <
69 1 0 5 4 14.29 13.45 4.64 <
70 2 3 5 -4 15.08 25.16 2.84 o
70 1 0 -5 4 15.08 25.16 2.84 o
71 1 0 5 5 2.31 6.67 4.27 <
72 1 0 -5 5 2.30 5.30 3.86 <
73 1 0 5 6 2.38 2.89 3.44 <
74 1 0 -5 6 2.37 3.77 3.38 <
75 1 0 6 1 14.49 10.67 3.33 o
76 1 0 -6 1 14.38 25.62 5.17 o
77 1 0 6 2 26.94 23.52 7.55 o
78 1 0 -6 2 26.84 40.00 5.83 o
79 1 0 6 3 33.54 18.95 7.56 <
80 1 0 -6 3 33.82 32.71 5.20 o
81 2 3 -6 -4 2.74 4.72 3.01 <
81 1 0 6 4 2.74 4.72 3.01 <
82 2 3 6 -4 2.71 4.43 1.51 <
82 1 0 -6 4 2.71 4.43 1.51 <
83 1 0 6 5 12.25 11.78 8.38 <
84 1 0 -6 5 12.14 16.58 4.05 o
85 1 0 7 1 68.93 44.95 7.96 o
86 1 0 -7 1 68.83 104.23 12.85 o
87 1 0 7 2 11.96 3.14 3.64 <
88 1 0 -7 2 12.04 4.94 2.60 <
89 1 0 7 3 9.34 7.04 6.39 <
90 1 0 -7 3 9.35 12.37 3.92 o
91 2 3 -7 -4 49.41 70.91 12.00 o
91 1 0 7 4 49.41 70.91 12.00 o
92 2 3 7 -4 49.39 119.03 8.15 o
92 1 0 -7 4 49.39 119.03 8.15 o
93 1 0 8 1 5.14 1.70 3.33 <
94 1 0 -8 1 5.22 5.40 3.52 <
95 1 0 8 2 9.49 2.92 2.37 <
96 1 0 -8 2 9.52 5.97 3.05 <
97 1 0 8 3 20.76 15.30 8.23 <
98 1 0 -8 3 20.65 34.49 6.77 o
99 1 1 0 -7 1.28 2.59 1.33 <
100 1 1 0 -6 4.87 3.80 1.38 <
101 1 1 0 -5 97.78 75.50 6.91 o
102 2 -2 0 4 169.78 124.95 7.01 o
102 1 1 0 -4 169.78 124.95 7.01 o
103 1 1 0 2 1.74 1.21 0.16 o
104 1 1 0 3 103.44 111.35 8.42 o
105 2 4 0 -4 158.25 160.42 7.40 o
105 1 1 0 4 158.25 160.42 7.40 o
106 1 1 0 5 2.98 2.17 1.30 <
107 1 1 0 6 3.18 4.60 1.77 <
108 1 1 1 -7 1.90 3.14 1.61 <
109 1 1 -1 -7 1.78 2.04 1.64 <
110 1 1 1 -6 11.81 15.58 2.64 o
111 1 1 -1 -6 11.20 19.47 4.19 o
112 1 1 1 -5 20.18 9.30 1.95 o
113 1 1 -1 -5 19.53 14.41 3.40 o
114 2 -2 -1 4 97.71 46.45 5.03 o
114 1 1 1 -4 97.71 46.45 5.03 o
115 2 -2 1 4 96.17 76.94 6.50 o
115 1 1 -1 -4 96.17 76.94 6.50 o
116 2 1 -1 0 1107.63 1814.76 34.42 o
116 1 1 1 0 1107.63 1814.76 34.42 o
117 2 1 1 0 1107.75 1672.79 32.94 o
117 1 1 -1 0 1107.75 1672.79 32.94 o
118 6 -1 -1 -1 441.18 571.71 25.19 o
118 1 1 1 1 441.18 571.71 25.19 o
119 6 -1 1 -1 441.01 546.29 23.89 o
119 1 1 -1 1 441.01 546.29 23.89 o
120 1 1 1 2 60.16 50.26 7.54 o
121 1 1 -1 2 55.69 46.26 7.66 o
122 1 1 1 3 81.92 86.92 10.41 o
123 1 1 -1 3 82.44 79.99 7.08 o
124 2 4 -1 -4 75.18 85.95 6.91 o
124 1 1 1 4 75.18 85.95 6.91 o
125 2 4 1 -4 76.54 64.06 4.40 o
125 1 1 -1 4 76.54 64.06 4.40 o
126 1 1 1 5 14.88 26.90 5.87 o
127 1 1 -1 5 15.70 19.42 3.42 o
128 1 1 1 6 2.74 0.69 1.04 <
129 1 1 -1 6 2.94 1.77 1.49 <
130 1 1 -2 -7 4.74 8.24 3.38 <
131 1 1 -2 -6 0.87 2.75 2.23 <
132 1 1 -2 -5 23.02 25.58 5.18 o
133 2 -2 2 4 72.40 73.11 7.04 o
133 1 1 -2 -4 72.40 73.11 7.04 o
134 1 1 2 -2 569.69 664.20 22.17 o
135 1 1 2 -1 10.69 4.44 1.93 <
136 1 1 -2 -1 12.48 6.58 2.75 <
137 2 1 -2 0 19.00 13.81 2.44 o
137 1 1 2 0 19.00 13.81 2.44 o
138 2 1 2 0 19.23 13.04 2.55 o
138 1 1 -2 0 19.23 13.04 2.55 o
139 6 -1 -2 -1 1096.49 1490.50 40.81 o
139 1 1 2 1 1096.49 1490.50 40.81 o
140 6 -1 2 -1 1096.41 1475.88 41.83 o
140 1 1 -2 1 1096.41 1475.88 41.83 o
141 1 1 2 2 138.86 130.17 11.90 o
142 1 1 -2 2 142.35 135.29 13.67 o
143 1 1 2 3 22.46 16.96 4.41 o
144 1 1 -2 3 23.16 16.38 5.07 o
145 2 4 -2 -4 34.60 35.20 4.71 o
145 1 1 2 4 34.60 35.20 4.71 o
146 2 4 2 -4 35.61 21.28 2.61 o
146 1 1 -2 4 35.61 21.28 2.61 o
147 1 1 2 5 0.54 -0.34 1.93 <
148 1 1 -2 5 0.55 0.07 0.69 <
149 1 1 2 6 4.80 14.31 5.72 <
150 1 1 -2 6 4.72 5.84 2.09 <
151 1 1 -3 -7 2.52 2.99 1.71 <
152 1 1 -3 -6 6.34 11.29 4.36 <
153 1 1 -3 -5 8.67 7.58 3.41 <
154 2 -2 3 4 53.60 60.36 6.76 o
154 1 1 -3 -4 53.60 60.36 6.76 o
155 1 1 3 -3 180.38 146.07 7.25 o
156 1 1 -3 -3 180.30 167.40 17.61 o
157 1 1 3 -2 21.05 23.94 3.64 o
158 1 1 -3 -2 21.61 23.43 5.29 o
159 1 1 3 -1 103.63 100.62 9.24 o
160 1 1 -3 -1 102.81 100.30 11.64 o
161 2 1 -3 0 233.48 218.46 10.26 o
161 1 1 3 0 233.48 218.46 10.26 o
162 2 1 3 0 233.38 244.66 12.76 o
162 1 1 -3 0 233.38 244.66 12.76 o
163 6 -1 -3 -1 39.51 45.08 6.86 o
163 1 1 3 1 39.51 45.08 6.86 o
164 6 -1 3 -1 39.47 53.37 8.24 o
164 1 1 -3 1 39.47 53.37 8.24 o
165 1 1 3 2 206.46 211.49 16.62 o
166 1 1 -3 2 206.43 198.46 17.60 o
167 1 1 3 3 50.31 45.64 8.22 o
168 1 1 -3 3 52.02 48.05 9.24 o
169 2 4 -3 -4 11.93 9.82 2.91 o
169 1 1 3 4 11.93 9.82 2.91 o
170 2 4 3 -4 12.14 10.78 5.06 <
170 1 1 -3 4 12.14 10.78 5.06 <
171 1 1 3 5 9.39 9.52 5.02 <
172 1 1 -3 5 9.33 8.08 2.82 <
173 1 1 3 6 3.32 3.78 2.16 <
174 1 1 -3 6 3.35 2.68 2.03 <
175 1 1 -4 -6 0.32 0.64 0.36 <
176 1 1 -4 -5 5.13 4.05 2.87 <
177 2 -2 -4 4 129.79 101.20 7.37 o
177 1 1 4 -4 129.79 101.20 7.37 o
178 2 -2 4 4 129.30 185.44 13.71 o
178 1 1 -4 -4 129.30 185.44 13.71 o
179 1 1 4 -3 21.87 17.94 2.84 o
180 1 1 -4 -3 22.18 21.13 3.90 o
181 1 1 4 -2 223.54 213.82 12.03 o
182 1 1 -4 -2 221.95 269.06 20.18 o
183 1 1 4 -1 28.30 27.24 4.63 o
184 1 1 -4 -1 27.22 24.04 6.68 o
185 2 1 -4 0 64.25 67.24 5.90 o
185 1 1 4 0 64.25 67.24 5.90 o
186 2 1 4 0 64.13 72.84 7.62 o
186 1 1 -4 0 64.13 72.84 7.62 o
187 6 -1 -4 -1 501.95 557.40 27.29 o
187 1 1 4 1 501.95 557.40 27.29 o
188 6 -1 4 -1 502.15 659.32 33.50 o
188 1 1 -4 1 502.15 659.32 33.50 o
189 1 1 4 2 27.81 27.88 6.06 o
190 1 1 -4 2 27.38 25.15 6.39 o
191 1 1 4 3 37.52 47.47 8.65 o
192 1 1 -4 3 36.88 36.10 8.66 o
193 2 4 -4 -4 6.98 8.05 3.03 <
193 1 1 4 4 6.98 8.05 3.03 <
194 2 4 4 -4 6.94 4.36 2.24 <
194 1 1 -4 4 6.94 4.36 2.24 <
195 1 1 4 5 0.16 0.25 1.08 <
196 1 1 -4 5 0.16 -0.08 1.68 <
197 1 1 -5 -6 5.00 9.61 4.47 <
198 1 1 5 -5 5.82 1.93 1.77 <
199 1 1 -5 -5 6.01 2.70 1.46 <
200 2 -2 -5 4 41.12 25.27 3.93 o
200 1 1 5 -4 41.12 25.27 3.93 o
201 2 -2 5 4 42.32 44.46 4.75 o
201 1 1 -5 -4 42.32 44.46 4.75 o
202 1 1 5 -3 73.47 56.26 7.21 o
203 1 1 -5 -3 72.85 78.16 9.30 o
204 1 1 5 -2 27.79 23.53 4.25 o
205 1 1 -5 -2 27.29 29.68 5.58 o
206 1 1 5 -1 57.31 56.33 7.92 o
207 1 1 -5 -1 57.14 83.72 13.18 o
208 2 1 -5 0 139.72 174.31 10.73 o
208 1 1 5 0 139.72 174.31 10.73 o
209 2 1 5 0 139.68 194.46 14.28 o
209 1 1 -5 0 139.68 194.46 14.28 o
210 6 -1 -5 -1 55.72 65.14 9.50 o
210 1 1 5 1 55.72 65.14 9.50 o
211 6 -1 5 -1 55.76 73.62 11.58 o
211 1 1 -5 1 55.76 73.62 11.58 o
212 1 1 5 2 78.94 88.60 12.23 o
213 1 1 -5 2 79.55 89.40 13.62 o
214 1 1 5 3 31.20 33.13 8.33 o
215 1 1 -5 3 30.22 27.61 7.90 o
216 2 4 -5 -4 8.09 10.23 3.50 <
216 1 1 5 4 8.09 10.23 3.50 <
217 2 4 5 -4 7.73 2.64 1.78 <
217 1 1 -5 4 7.73 2.64 1.78 <
218 1 1 5 5 7.23 13.23 6.45 <
219 1 1 -5 5 7.19 8.01 2.70 <
220 1 1 6 -5 15.68 13.86 8.18 <
221 1 1 -6 -5 15.88 29.73 8.89 o
222 2 -2 -6 4 28.36 13.98 2.91 o
222 1 1 6 -4 28.36 13.98 2.91 o
223 2 -2 6 4 28.90 35.16 4.54 o
223 1 1 -6 -4 28.90 35.16 4.54 o
224 1 1 6 -3 14.51 6.60 2.71 <
225 1 1 -6 -3 15.30 15.79 4.16 o
226 1 1 6 -2 78.28 52.87 7.77 o
227 1 1 -6 -2 79.41 85.62 11.18 o
228 1 1 6 -1 18.92 13.40 4.06 o
229 1 1 -6 -1 19.56 18.46 7.27 <
230 2 1 -6 0 38.40 40.42 5.65 o
230 1 1 6 0 38.40 40.42 5.65 o
231 2 1 6 0 38.47 48.38 8.05 o
231 1 1 -6 0 38.47 48.38 8.05 o
232 6 -1 -6 -1 166.97 172.20 18.27 o
232 1 1 6 1 166.97 172.20 18.27 o
233 6 -1 6 -1 166.85 207.75 24.41 o
233 1 1 -6 1 166.85 207.75 24.41 o
234 1 1 6 2 13.95 11.94 4.45 <
235 1 1 -6 2 13.13 15.70 6.34 <
236 1 1 6 3 11.35 5.69 3.45 <
237 1 1 -6 3 11.57 10.79 3.78 <
238 2 4 -6 -4 23.39 27.47 6.47 o
238 1 1 6 4 23.39 27.47 6.47 o
239 2 4 6 -4 23.04 32.94 4.67 o
239 1 1 -6 4 23.04 32.94 4.67 o
240 2 -2 -7 4 10.09 3.50 2.44 <
240 1 1 7 -4 10.09 3.50 2.44 <
241 2 -2 7 4 10.09 7.47 3.05 <
241 1 1 -7 -4 10.09 7.47 3.05 <
242 1 1 7 -3 10.43 2.27 1.94 <
243 1 1 -7 -3 10.52 6.12 3.58 <
244 1 1 7 -2 0.64 1.16 1.16 <
245 1 1 -7 -2 0.57 1.61 2.50 <
246 1 1 7 -1 67.19 57.90 9.79 o
247 1 1 -7 -1 67.40 98.00 13.94 o
248 2 1 -7 0 148.40 161.98 13.21 o
248 1 1 7 0 148.40 161.98 13.21 o
249 2 1 7 0 148.43 252.69 17.73 o
249 1 1 -7 0 148.43 252.69 17.73 o
250 6 -1 -7 -1 1.61 0.83 1.81 <
250 1 1 7 1 1.61 0.83 1.81 <
251 6 -1 7 -1 1.62 1.25 1.72 <
251 1 1 -7 1 1.62 1.25 1.72 <
252 1 1 7 2 12.77 3.74 4.07 <
253 1 1 -7 2 12.80 4.50 3.51 <
254 1 1 7 3 11.51 3.75 3.87 <
255 1 1 8 -3 2.74 2.64 2.67 <
256 1 1 -8 -3 2.53 5.35 2.80 <
257 1 1 8 -2 23.97 3.37 2.28 <
258 1 1 -8 -2 23.86 21.00 7.08 <
259 1 1 8 -1 11.28 5.26 3.99 <
260 1 1 -8 -1 10.91 9.67 4.95 <
261 2 1 -8 0 23.49 17.48 4.77 o
261 1 1 8 0 23.49 17.48 4.77 o
262 2 1 8 0 23.46 31.05 5.83 o
262 1 1 -8 0 23.46 31.05 5.83 o
263 6 -1 -8 -1 48.16 38.01 9.47 o
263 1 1 8 1 48.16 38.01 9.47 o
264 6 -1 8 -1 48.19 59.16 10.93 o
264 1 1 -8 1 48.19 59.16 10.93 o
265 1 1 8 2 2.27 3.22 4.08 <
266 1 1 -8 2 2.46 6.39 4.17 <
267 1 2 0 3 0.89 0.22 1.92 <
268 2 5 0 -4 10.64 11.81 3.27 o
268 1 2 0 4 10.64 11.81 3.27 o
269 1 2 0 5 6.43 2.96 2.54 <
270 1 2 1 2 23.37 41.05 10.01 o
271 1 2 1 3 19.83 19.08 6.48 <
272 2 5 -1 -4 17.31 6.16 2.63 <
272 1 2 1 4 17.31 6.16 2.63 <
273 2 5 1 -4 17.04 6.72 2.92 <
273 1 2 -1 4 17.04 6.72 2.92 <
274 1 2 1 5 1.49 2.27 1.95 <
275 1 2 -1 5 1.34 3.06 3.39 <
276 1 2 2 -7 1.53 0.55 0.51 <
277 2 2 -2 0 109.31 130.18 13.29 o
277 1 2 2 0 109.31 130.18 13.29 o
278 2 2 2 0 109.53 114.52 12.22 o
278 1 2 -2 0 109.53 114.52 12.22 o
279 1 2 2 1 104.86 115.97 17.08 o
280 1 2 -2 1 100.27 103.84 15.44 o
281 1 2 2 2 69.01 145.98 18.60 o
282 1 2 -2 2 69.00 130.87 18.03 o
283 1 2 2 3 16.65 6.28 3.99 <
284 1 2 -2 3 16.27 6.78 4.42 <
285 2 5 -2 -4 33.81 44.35 6.67 o
285 1 2 2 4 33.81 44.35 6.67 o
286 2 5 2 -4 34.93 25.82 5.76 o
286 1 2 -2 4 34.93 25.82 5.76 o
287 1 2 2 5 2.56 4.95 3.17 <
288 1 2 -2 5 2.45 2.65 1.92 <
289 1 2 3 -3 103.60 119.29 13.75 o
290 1 2 3 -2 237.95 292.17 22.61 o
291 1 2 3 -1 7.68 4.50 2.93 <
292 1 2 -3 -1 7.67 2.57 2.57 <
293 2 2 -3 0 528.51 629.39 25.24 o
293 1 2 3 0 528.51 629.39 25.24 o
294 2 2 3 0 528.56 586.21 25.17 o
294 1 2 -3 0 528.56 586.21 25.17 o
295 1 2 3 1 128.39 183.14 20.65 o
296 1 2 -3 1 128.00 177.05 20.54 o
297 1 2 3 2 10.50 14.34 5.50 <
298 1 2 -3 2 10.38 14.32 5.93 <
299 1 2 3 3 35.93 37.64 9.55 o
300 1 2 -3 3 36.57 30.79 9.68 o
301 2 5 -3 -4 4.78 3.66 2.29 <
301 1 2 3 4 4.78 3.66 2.29 <
302 2 5 3 -4 4.57 3.46 2.21 <
302 1 2 -3 4 4.57 3.46 2.21 <
303 1 2 3 5 7.19 6.14 3.53 <
304 1 2 -3 5 7.12 5.62 5.07 <
305 1 2 4 -6 10.90 5.18 1.36 o
306 1 2 4 -5 0.07 0.06 0.54 <
307 2 -1 -4 4 122.04 104.77 7.15 o
307 1 2 4 -4 122.04 104.77 7.15 o
308 1 2 4 -3 52.73 45.01 7.77 o
309 1 2 4 -2 2.07 3.50 2.39 <
310 1 2 -4 -2 1.59 2.22 3.49 <
311 1 2 4 -1 282.44 224.52 22.05 o
312 1 2 -4 -1 282.01 222.33 26.23 o
313 2 2 -4 0 7.52 7.02 2.50 <
313 1 2 4 0 7.52 7.02 2.50 <
314 2 2 4 0 7.43 6.41 2.81 <
314 1 2 -4 0 7.43 6.41 2.81 <
315 1 2 4 1 61.35 68.99 12.18 o
316 1 2 -4 1 62.15 72.77 13.25 o
317 1 2 4 2 106.88 250.29 22.10 o
318 1 2 -4 2 106.05 255.03 26.59 o
319 1 2 4 3 0.11 0.98 0.63 <
320 1 2 -4 3 0.14 -1.98 2.07 <
321 2 5 -4 -4 22.31 29.38 5.76 o
321 1 2 4 4 22.31 29.38 5.76 o
322 2 5 4 -4 22.11 13.81 4.92 <
322 1 2 -4 4 22.11 13.81 4.92 <
323 1 2 4 5 4.40 7.69 5.05 <
324 1 2 -4 5 4.48 4.43 4.24 <
325 1 2 5 -6 3.17 2.09 0.83 <
326 1 2 5 -5 15.71 14.74 2.86 o
327 2 -1 -5 4 45.77 46.72 4.09 o
327 1 2 5 -4 45.77 46.72 4.09 o
328 1 2 5 -3 38.48 30.97 6.50 o
329 1 2 -5 -3 38.95 22.43 8.55 <
330 1 2 5 -2 72.80 48.38 9.03 o
331 1 2 -5 -2 73.06 51.25 12.51 o
332 1 2 5 -1 26.11 22.47 7.18 o
333 1 2 -5 -1 26.12 19.10 8.10 <
334 2 2 -5 0 171.87 138.78 11.61 o
334 1 2 5 0 171.87 138.78 11.61 o
335 2 2 5 0 171.91 105.19 13.45 o
335 1 2 -5 0 171.91 105.19 13.45 o
336 1 2 5 1 50.43 56.97 10.56 o
337 1 2 -5 1 49.94 55.40 12.56 o
338 1 2 5 2 11.79 23.96 6.93 o
339 1 2 -5 2 11.99 14.86 7.62 <
340 1 2 5 3 23.89 29.71 8.09 o
341 1 2 -5 3 23.27 19.37 7.65 <
342 2 5 -5 -4 6.69 6.61 3.24 <
342 1 2 5 4 6.69 6.61 3.24 <
343 2 5 5 -4 6.89 4.70 3.22 <
343 1 2 -5 4 6.89 4.70 3.22 <
344 1 2 6 -5 4.03 1.93 1.13 <
345 2 -1 -6 4 27.76 22.69 2.98 o
345 1 2 6 -4 27.76 22.69 2.98 o
346 2 -1 6 4 27.28 16.87 5.27 o
346 1 2 -6 -4 27.28 16.87 5.27 o
347 1 2 6 -3 15.99 9.65 3.09 o
348 1 2 -6 -3 14.91 3.30 4.55 <
349 1 2 6 -2 9.22 5.98 3.75 <
350 1 2 -6 -2 9.04 7.83 5.23 <
351 1 2 6 -1 52.24 29.01 7.39 o
352 1 2 -6 -1 52.41 27.36 11.20 <
353 2 2 -6 0 23.02 27.49 5.34 o
353 1 2 6 0 23.02 27.49 5.34 o
354 2 2 6 0 23.02 16.89 5.85 <
354 1 2 -6 0 23.02 16.89 5.85 <
355 1 2 6 1 17.70 9.92 6.05 <
356 1 2 -6 1 18.71 6.10 6.97 <
357 1 2 6 2 21.57 64.35 13.20 o
358 1 2 -6 2 22.20 60.43 14.84 o
359 1 2 6 3 3.25 5.61 4.11 <
360 1 2 -6 3 3.38 1.19 1.48 <
361 1 2 7 -5 3.23 2.16 1.30 <
362 2 -1 -7 4 11.17 6.69 1.89 o
362 1 2 7 -4 11.17 6.69 1.89 o
363 2 -1 7 4 11.16 8.44 4.47 <
363 1 2 -7 -4 11.16 8.44 4.47 <
364 1 2 7 -3 13.75 5.67 2.60 <
365 1 2 -7 -3 13.85 8.60 6.08 <
366 1 2 7 -2 12.88 6.38 3.38 <
367 1 2 -7 -2 12.94 4.48 4.18 <
368 1 2 7 -1 0.24 -0.14 0.67 <
369 1 2 -7 -1 0.24 0.10 2.67 <
370 2 2 -7 0 35.08 21.19 5.37 o
370 1 2 7 0 35.08 21.19 5.37 o
371 2 2 7 0 35.09 12.55 5.64 <
371 1 2 -7 0 35.09 12.55 5.64 <
372 1 2 7 1 15.96 8.59 5.75 <
373 1 2 -7 1 15.85 7.62 7.11 <
374 1 2 7 2 0.96 -1.37 3.45 <
375 1 2 -7 2 0.94 -1.37 3.89 <
376 1 2 7 3 4.99 2.42 3.33 <
377 1 2 -7 3 5.08 2.12 1.21 <
378 1 2 8 -3 3.31 2.01 2.21 <
379 1 2 -8 -3 3.69 0.57 3.29 <
380 1 2 8 -2 2.34 -0.14 1.39 <
381 1 2 -8 -2 2.40 0.71 2.16 <
382 1 2 8 -1 22.83 9.76 5.43 <
383 1 2 -8 -1 22.79 10.51 9.53 <
384 2 2 -8 0 4.84 1.70 2.09 <
384 1 2 8 0 4.84 1.70 2.09 <
385 2 2 8 0 4.84 -2.10 3.03 <
385 1 2 -8 0 4.84 -2.10 3.03 <
386 1 2 8 1 3.48 3.55 3.77 <
387 1 2 -8 1 3.16 2.36 5.75 <
388 1 3 0 5 7.33 4.36 4.47 <
389 2 6 -1 -4 5.48 7.84 4.00 <
389 1 3 1 4 5.48 7.84 4.00 <
390 1 3 1 5 1.48 0.92 0.91 <
391 1 3 2 3 27.94 69.39 15.86 o
392 2 6 -2 -4 0.82 0.32 2.31 <
392 1 3 2 4 0.82 0.32 2.31 <
393 1 3 3 1 9.24 10.05 6.08 <
394 1 3 -3 1 8.26 5.39 4.52 <
395 1 3 3 2 31.35 20.66 8.53 <
396 1 3 -3 2 30.91 26.85 9.83 <
397 1 3 3 3 5.31 1.44 2.83 <
398 1 3 -3 3 5.56 4.93 4.44 <
399 2 6 -3 -4 4.86 10.41 4.69 <
399 1 3 3 4 4.86 10.41 4.69 <
400 2 6 3 -4 4.83 1.31 1.91 <
400 1 3 -3 4 4.83 1.31 1.91 <
401 1 3 4 -2 23.34 8.58 7.65 <
402 1 3 4 -1 26.37 14.01 7.27 <
403 1 3 -4 -1 25.81 11.29 6.96 <
404 2 3 -4 0 57.81 62.37 10.27 o
404 1 3 4 0 57.81 62.37 10.27 o
405 2 3 4 0 57.79 43.79 8.90 o
405 1 3 -4 0 57.79 43.79 8.90 o
406 1 3 4 1 2.38 0.66 2.78 <
407 1 3 -4 1 2.31 1.93 1.14 <
408 1 3 4 2 3.41 2.22 2.68 <
409 1 3 -4 2 3.35 3.97 3.96 <
410 1 3 4 3 10.39 19.89 8.43 <
411 1 3 -4 3 10.47 14.28 7.42 <
412 2 6 -4 -4 1.72 3.20 2.53 <
412 1 3 4 4 1.72 3.20 2.53 <
413 2 6 4 -4 1.71 1.10 2.04 <
413 1 3 -4 4 1.71 1.10 2.04 <
414 1 3 5 -6 3.19 1.55 1.55 <
415 1 3 5 -5 6.74 4.50 3.53 <
416 2 0 -5 4 15.04 9.15 3.27 <
416 1 3 5 -4 15.04 9.15 3.27 <
417 1 3 5 -3 0.75 1.98 2.83 <
418 1 3 5 -2 44.48 17.87 8.99 <
419 1 3 -5 -2 43.81 20.60 10.72 <
420 1 3 5 -1 44.69 26.20 10.08 <
421 1 3 -5 -1 45.11 21.14 11.44 <
422 2 3 -5 0 0.72 -1.85 2.56 <
422 1 3 5 0 0.72 -1.85 2.56 <
423 2 3 5 0 0.72 0.51 1.78 <
423 1 3 -5 0 0.72 0.51 1.78 <
424 1 3 5 1 10.97 4.19 4.17 <
425 1 3 -5 1 11.78 4.62 3.74 <
426 1 3 5 2 8.38 7.41 5.03 <
427 1 3 -5 2 8.75 6.04 3.47 <
428 1 3 5 3 4.16 7.25 4.75 <
429 1 3 -5 3 3.95 9.67 6.24 <
430 1 3 6 -5 4.27 4.69 2.92 <
431 2 0 -6 4 3.01 2.75 1.73 <
431 1 3 6 -4 3.01 2.75 1.73 <
432 1 3 6 -3 29.62 13.26 6.69 <
433 1 3 -6 -3 29.71 8.19 6.77 <
434 1 3 6 -2 8.12 1.76 2.93 <
435 1 3 -6 -2 8.91 2.74 3.83 <
436 1 3 6 -1 7.39 0.42 1.58 <
437 1 3 -6 -1 6.67 1.47 3.65 <
438 2 3 -6 0 81.59 73.77 11.90 o
438 1 3 6 0 81.59 73.77 11.90 o
439 2 3 6 0 81.62 39.30 11.70 o
439 1 3 -6 0 81.62 39.30 11.70 o
440 1 3 6 1 0.67 2.17 3.45 <
441 1 3 -6 1 0.69 1.73 2.56 <
442 1 3 6 2 6.53 8.30 4.88 <
443 1 3 -6 2 6.48 4.57 3.37 <
444 2 0 -7 4 51.79 78.27 7.52 o
444 1 3 7 -4 51.79 78.27 7.52 o
445 1 3 7 -3 0.63 -1.01 1.34 <
446 1 3 -7 -3 0.63 1.78 3.73 <
447 1 3 7 -2 5.27 1.50 2.37 <
448 1 3 -7 -2 5.11 1.12 4.46 <
449 1 3 7 -1 7.56 2.19 3.52 <
450 1 3 -7 -1 7.74 1.98 4.19 <
451 2 3 -7 0 2.33 1.36 1.53 <
451 1 3 7 0 2.33 1.36 1.53 <
452 2 3 7 0 2.33 2.75 4.35 <
452 1 3 -7 0 2.33 2.75 4.35 <
453 1 3 7 1 19.07 14.98 8.56 <
454 1 3 -7 1 19.00 6.06 5.63 <
455 1 3 8 -2 2.58 1.14 2.21 <
456 1 3 -8 -2 2.41 1.79 4.79 <
457 1 3 8 -1 2.48 3.36 3.88 <
458 1 3 -8 -1 2.63 1.35 5.77 <
459 1 4 4 2 1.59 1.93 4.74 <
460 1 4 4 3 1.47 1.86 2.93 <
461 2 4 -5 0 8.42 8.06 4.87 <
461 1 4 5 0 8.42 8.06 4.87 <
462 1 4 5 1 2.42 -0.05 0.38 <
463 1 4 -5 1 2.49 -6.50 7.86 <
464 1 4 5 2 3.55 2.76 1.97 <
465 1 4 -5 2 3.55 4.69 1.46 o
466 2 1 -6 4 25.42 14.29 5.58 <
466 1 4 6 -4 25.42 14.29 5.58 <
467 1 4 6 -3 1.19 0.76 3.77 <
468 1 4 6 -2 7.21 3.07 5.44 <
469 1 4 6 -1 2.19 0.49 14.78 <
470 1 4 -6 -1 2.07 -1.05 5.05 <
471 2 4 -6 0 8.76 9.02 5.67 <
471 1 4 6 0 8.76 9.02 5.67 <
472 2 4 6 0 8.76 3.43 3.04 <
472 1 4 -6 0 8.76 3.43 3.04 <
473 1 4 6 1 7.21 11.24 8.64 <
474 1 4 -6 1 7.20 5.13 5.92 <
475 1 4 7 -3 5.18 3.25 5.01 <
476 1 4 7 -2 0.07 -1.42 4.70 <
477 1 4 -7 -2 0.07 -1.13 3.92 <
478 1 4 7 -1 7.29 4.05 4.99 <
479 1 4 -7 -1 7.35 2.89 3.33 <
480 2 0 2 1 5.53 0.87 0.72 <
481 2 0 -2 1 5.25 0.27 0.36 <
482 2 0 3 1 35.46 26.22 4.27 o
483 2 0 -3 1 35.58 21.87 3.40 o
484 2 0 3 2 347.66 403.29 28.44 o
485 2 0 -3 2 347.41 341.80 19.23 o
486 2 0 4 1 2.03 0.11 1.13 <
487 2 0 -4 1 2.12 25.76 5.33 o
488 2 0 4 2 20.61 20.66 5.60 o
489 2 0 -4 2 20.88 24.58 4.24 o
490 2 0 -4 3 127.22 110.08 12.81 o
491 2 0 5 1 100.50 140.60 11.52 o
492 2 0 -5 1 100.57 81.80 8.08 o
493 2 0 5 2 115.92 63.50 11.77 o
494 2 0 -5 2 115.89 96.09 9.30 o
495 2 0 5 3 0.54 0.04 2.30 <
496 2 0 -5 3 0.55 1.24 1.29 <
497 2 0 6 1 16.59 28.61 5.36 o
498 2 0 -6 1 16.46 13.15 3.22 o
499 2 0 6 2 30.85 18.84 6.27 o
500 2 0 -6 2 30.73 23.74 5.31 o
501 2 0 6 3 38.40 12.97 6.59 <
502 2 0 -6 3 38.72 25.61 5.16 o
503 2 0 -6 5 13.90 8.81 4.35 <
504 2 0 7 1 78.92 117.34 11.70 o
505 2 0 -7 1 78.80 59.94 11.30 o
506 2 0 7 2 13.69 2.20 2.35 <
507 2 0 -7 2 13.78 3.52 2.70 <
508 2 0 7 3 10.70 4.43 3.91 <
509 2 0 -7 3 10.70 7.63 2.77 <
510 2 0 8 1 5.89 4.25 2.40 <
511 2 0 -8 1 5.98 2.16 3.27 <
512 2 0 8 2 10.86 3.74 2.98 <
513 2 0 -8 2 10.90 2.70 2.18 <
514 2 0 8 3 23.76 10.23 5.95 <
515 2 0 -8 3 23.64 20.54 5.62 o
516 2 1 0 -2 68.09 50.36 5.36 o
517 2 1 1 -2 246.48 185.08 12.32 o
518 2 1 -1 -2 248.99 167.93 14.16 o
519 2 1 1 -1 586.62 521.93 14.05 o
520 2 1 -1 -1 587.20 492.95 13.51 o
521 2 1 2 -2 652.25 575.57 25.79 o
522 2 1 -2 -2 651.85 509.35 26.97 o
523 2 1 2 -1 12.24 5.61 1.44 o
524 2 1 -2 -1 14.29 7.03 1.99 o
525 2 1 -3 -3 206.42 208.67 10.14 o
526 2 1 3 -2 24.10 29.94 3.45 o
527 2 1 -3 -2 24.74 22.32 3.23 o
528 2 1 3 -1 118.64 122.31 7.60 o
529 2 1 -3 -1 117.71 112.52 9.76 o
530 3 -1 -3 -1 40.29 58.09 9.90 o
530 2 1 3 1 40.29 58.09 9.90 o
531 3 -1 3 -1 40.11 53.60 8.55 o
531 2 1 -3 1 40.11 53.60 8.55 o
532 2 1 4 -3 25.03 20.97 5.49 o
533 2 1 -4 -3 25.40 27.11 3.57 o
534 2 1 4 -2 255.93 345.40 14.15 o
535 2 1 -4 -2 254.11 226.61 12.73 o
536 2 1 4 -1 32.40 43.08 4.65 o
537 2 1 -4 -1 31.16 25.53 3.84 o
538 3 -1 -4 -1 510.68 497.22 31.84 o
538 2 1 4 1 510.68 497.22 31.84 o
539 3 -1 4 -1 511.56 515.52 26.64 o
539 2 1 -4 1 511.56 515.52 26.64 o
540 2 1 -4 2 31.35 25.27 7.37 o
541 2 1 -5 -5 6.88 1.75 1.18 <
542 2 1 5 -3 84.12 70.51 10.48 o
543 2 1 -5 -3 83.41 78.86 7.29 o
544 2 1 5 -2 31.82 48.78 5.63 o
545 2 1 -5 -2 31.25 22.18 4.04 o
546 2 1 5 -1 65.61 110.66 8.50 o
547 2 1 -5 -1 65.42 58.82 7.03 o
548 3 -1 -5 -1 56.67 40.04 9.27 o
548 2 1 5 1 56.67 40.04 9.27 o
549 3 -1 5 -1 56.83 53.93 8.17 o
549 2 1 -5 1 56.83 53.93 8.17 o
550 2 1 5 2 90.38 64.47 15.47 o
551 2 1 -5 2 91.08 87.82 12.78 o
552 2 1 -5 3 34.60 24.17 8.03 o
553 2 1 -6 -5 18.19 27.47 4.81 o
554 2 1 6 -3 16.61 12.34 4.43 <
555 2 1 -6 -3 17.52 14.20 3.40 o
556 2 1 6 -2 89.62 125.75 10.74 o
557 2 1 -6 -2 90.91 63.85 8.15 o
558 2 1 6 -1 21.66 28.98 5.06 o
559 2 1 -6 -1 22.40 12.76 3.71 o
560 3 -1 -6 -1 170.19 124.98 18.13 o
560 2 1 6 1 170.19 124.98 18.13 o
561 3 -1 6 -1 169.67 135.86 14.69 o
561 2 1 -6 1 169.67 135.86 14.69 o
562 2 1 6 2 15.97 6.94 5.78 <
563 2 1 -6 2 15.03 20.14 5.58 o
564 2 1 -6 3 13.25 5.33 3.12 <
565 2 1 7 -3 11.95 3.30 3.59 <
566 2 1 -7 -3 12.05 6.37 3.49 <
567 2 1 7 -2 0.73 1.28 1.56 <
568 2 1 -7 -2 0.65 1.54 1.25 <
569 2 1 7 -1 76.93 131.77 12.77 o
570 2 1 -7 -1 77.17 61.77 9.86 o
571 3 -1 -7 -1 1.63 1.21 1.67 <
571 2 1 7 1 1.63 1.21 1.67 <
572 3 -1 7 -1 1.65 1.05 1.78 <
572 2 1 -7 1 1.65 1.05 1.78 <
573 2 1 7 2 14.62 2.10 1.69 <
574 2 1 -7 2 14.66 3.41 2.29 <
575 2 1 7 3 13.18 3.64 4.37 <
576 2 1 -7 3 13.13 6.73 4.34 <
577 2 1 8 -3 3.14 1.73 2.48 <
578 2 1 -8 -3 2.89 3.08 2.99 <
579 2 1 8 -2 27.44 37.24 6.88 o
580 2 1 -8 -2 27.32 6.71 3.14 <
581 2 1 8 -1 12.92 19.41 5.09 o
582 2 1 -8 -1 12.49 4.73 5.85 <
583 3 -1 -8 -1 48.98 20.95 9.00 <
583 2 1 8 1 48.98 20.95 9.00 <
584 3 -1 8 -1 49.10 29.51 7.62 o
584 2 1 -8 1 49.10 29.51 7.62 o
585 2 1 8 2 2.60 1.03 0.77 <
586 2 1 -8 2 2.82 3.45 2.27 <
587 2 2 0 -3 6.87 -0.10 0.35 <
588 2 2 0 -2 0.30 0.83 0.65 <
589 2 2 1 -3 148.63 129.53 8.59 o
590 2 2 -1 -3 142.85 113.76 11.40 o
591 2 2 1 -2 62.04 45.79 5.86 o
592 2 2 -1 -2 56.95 51.94 5.63 o
593 2 2 1 -1 541.40 483.47 27.95 o
594 2 2 -1 -1 541.30 513.94 28.48 o
595 2 2 2 -3 104.44 100.24 9.15 o
596 2 2 -2 -3 108.77 90.50 11.62 o
597 2 2 2 -2 50.95 46.01 5.98 o
598 2 2 -2 -2 52.72 46.37 5.87 o
599 2 2 2 -1 359.09 375.90 21.49 o
600 2 2 -2 -1 359.84 441.25 22.67 o
601 2 2 -3 -5 26.83 28.34 4.80 o
602 2 2 3 -3 118.61 149.70 12.83 o
603 2 2 -3 -3 119.11 119.42 15.13 o
604 2 2 3 -2 272.43 313.44 17.82 o
605 2 2 -3 -2 272.66 301.84 17.98 o
606 2 2 3 -1 8.79 5.69 2.61 <
607 2 2 -3 -1 8.78 6.57 2.39 <
608 2 2 -4 -6 12.45 5.92 2.16 <
609 2 2 -4 -5 0.08 -0.35 0.40 <
610 2 2 4 -3 60.37 87.76 6.48 o
611 2 2 -4 -3 59.82 64.42 12.11 o
612 2 2 4 -2 2.37 3.36 1.35 <
613 2 2 -4 -2 1.83 4.78 2.59 <
614 2 2 4 -1 323.37 323.54 21.70 o
615 2 2 -4 -1 322.88 350.03 20.40 o
616 2 2 4 1 70.24 67.03 16.54 o
617 2 2 -4 1 71.16 89.31 16.24 o
618 2 2 -5 -6 3.44 4.51 1.45 o
619 2 2 -5 -5 18.49 19.99 2.86 o
620 2 2 5 -3 44.05 79.56 7.06 o
621 2 2 -5 -3 44.59 47.29 11.16 o
622 2 2 5 -2 83.35 88.99 8.68 o
623 2 2 -5 -2 83.65 82.96 12.10 o
624 2 2 5 -1 29.89 35.47 7.40 o
625 2 2 -5 -1 29.91 37.99 7.00 o
626 2 2 5 1 57.73 37.17 13.67 <
627 2 2 -5 1 57.17 67.65 13.63 o
628 2 2 -5 2 13.72 14.15 7.90 <
629 2 2 -6 -5 4.49 0.80 0.68 <
630 2 2 6 -3 18.30 25.49 4.12 o
631 2 2 -6 -3 17.07 10.98 6.06 <
632 2 2 6 -2 10.56 20.18 4.23 o
633 2 2 -6 -2 10.35 8.70 4.16 <
634 2 2 6 -1 59.81 50.15 10.64 o
635 2 2 -6 -1 60.00 57.14 10.44 o
636 2 2 6 1 20.26 6.91 5.87 <
637 2 2 -6 1 21.42 17.20 6.66 <
638 2 2 6 2 24.70 14.20 9.44 <
639 2 2 -6 2 25.42 33.10 11.11 <
640 2 2 -7 -5 3.62 3.53 2.02 <
641 2 2 7 -3 15.75 19.17 4.39 o
642 2 2 -7 -3 15.86 7.14 5.97 <
643 2 2 7 -2 14.74 21.26 5.03 o
644 2 2 -7 -2 14.81 14.83 6.62 <
645 2 2 7 -1 0.28 0.81 2.53 <
646 2 2 -7 -1 0.28 0.17 0.41 <
647 2 2 7 1 18.28 4.98 5.55 <
648 2 2 -7 1 18.15 11.95 5.71 <
649 2 2 7 2 1.10 0.37 5.03 <
650 2 2 -7 2 1.08 2.04 2.81 <
651 2 2 -7 3 5.82 5.31 6.20 <
652 2 2 8 -3 3.79 4.45 2.20 <
653 2 2 -8 -3 4.23 1.24 4.25 <
654 2 2 8 -2 2.68 0.90 1.24 <
655 2 2 -8 -2 2.75 -0.54 1.55 <
656 2 2 8 -1 26.14 19.27 7.53 <
657 2 2 -8 -1 26.09 18.88 7.32 <
658 2 2 8 1 3.98 3.03 3.28 <
659 2 2 -8 1 3.62 5.82 3.43 <
660 2 3 0 -6 0.41 0.47 0.15 o
661 2 3 0 -5 18.06 29.85 3.88 o
662 2 3 0 -3 268.69 260.60 10.92 o
663 2 3 1 -6 10.79 4.94 2.49 <
664 2 3 -1 -6 10.49 2.23 1.22 <
665 2 3 1 -5 29.22 24.81 4.26 o
666 2 3 -1 -5 30.52 27.37 2.92 o
667 2 3 1 -3 0.81 0.38 0.79 <
668 2 3 -1 -3 0.89 1.49 1.05 <
669 2 3 1 -2 98.86 95.51 14.45 o
670 2 3 -1 -2 102.43 106.88 13.40 o
671 2 3 2 -6 20.44 30.86 7.16 o
672 2 3 -2 -6 20.87 10.46 1.96 o
673 2 3 2 -5 11.16 22.39 4.74 o
674 2 3 -2 -5 11.16 9.19 5.81 <
675 2 3 2 -3 72.96 79.58 9.52 o
676 2 3 -2 -3 73.02 95.15 9.75 o
677 2 3 2 -2 86.35 47.29 9.38 o
678 2 3 -2 -2 82.67 54.72 9.03 o
679 2 3 2 -1 93.92 49.55 13.32 o
680 2 3 -2 -1 97.89 75.31 15.74 o
681 2 3 3 -6 3.25 5.71 3.24 <
682 2 3 3 -5 21.97 29.49 6.12 o
683 2 3 -3 -5 22.22 18.75 7.74 <
684 2 3 3 -3 21.73 15.14 4.17 o
685 2 3 -3 -3 21.54 22.15 5.19 o
686 2 3 3 -2 50.44 40.00 8.58 o
687 2 3 -3 -2 51.17 65.76 9.83 o
688 2 3 3 -1 54.74 47.74 10.99 o
689 2 3 -3 -1 54.40 72.12 12.49 o
690 2 3 4 -6 7.15 9.00 4.65 <
691 2 3 4 -5 1.07 4.03 2.50 <
692 2 3 -4 -5 1.13 6.10 4.73 <
693 2 3 4 -3 25.99 33.02 7.06 o
694 2 3 -4 -3 25.90 31.93 7.00 o
695 2 3 4 -2 26.72 23.86 6.67 o
696 2 3 -4 -2 27.09 32.03 6.81 o
697 2 3 4 -1 30.19 16.06 6.85 <
698 2 3 -4 -1 29.55 23.62 6.72 o
699 2 3 5 -6 3.65 4.93 3.62 <
700 2 3 5 -5 7.72 8.21 4.65 <
701 2 3 -5 -5 7.44 3.25 4.02 <
702 2 3 5 -3 0.85 0.35 0.24 <
703 2 3 -5 -3 0.93 0.30 0.59 <
704 2 3 5 -2 50.93 46.28 9.98 o
705 2 3 -5 -2 50.15 59.36 9.83 o
706 2 3 5 -1 51.16 35.77 9.85 o
707 2 3 -5 -1 51.65 72.38 11.96 o
708 2 3 -5 1 13.49 7.10 5.38 <
709 2 3 6 -5 4.89 7.22 3.04 <
710 2 3 -6 -5 4.86 3.92 3.69 <
711 2 3 6 -3 33.91 51.34 7.15 o
712 2 3 -6 -3 34.01 40.19 9.86 o
713 2 3 6 -2 9.30 2.21 2.63 <
714 2 3 -6 -2 10.21 4.21 3.18 <
715 2 3 6 -1 8.46 1.54 3.70 <
716 2 3 -6 -1 7.64 3.54 2.38 <
717 2 3 6 1 0.77 5.15 6.97 <
718 2 3 -6 1 0.79 1.59 2.29 <
719 2 3 7 -3 0.72 1.17 1.09 <
720 2 3 -7 -3 0.72 1.48 2.75 <
721 2 3 7 -2 6.03 2.31 2.21 <
722 2 3 -7 -2 5.85 2.24 2.61 <
723 2 3 7 -1 8.66 1.99 2.52 <
724 2 3 -7 -1 8.86 2.99 2.67 <
725 2 3 7 1 21.83 10.85 9.62 <
726 2 3 -7 1 21.75 26.00 8.96 <
727 2 3 8 -2 2.95 1.97 3.70 <
728 2 3 -8 -2 2.76 3.27 2.99 <
729 2 3 8 -1 2.84 0.45 1.45 <
730 2 3 -8 -1 3.01 2.63 2.70 <
731 2 4 0 -7 1.63 4.29 1.64 <
732 2 4 0 -6 2.45 1.47 0.91 <
733 2 4 0 -5 60.22 62.69 5.41 o
734 2 4 0 -3 1.32 0.37 0.97 <
735 2 4 1 -7 1.21 0.85 1.06 <
736 2 4 -1 -7 1.12 2.21 1.08 <
737 2 4 1 -6 2.16 9.23 2.68 o
738 2 4 -1 -6 2.34 8.11 3.07 <
739 2 4 1 -5 8.30 5.86 1.39 o
740 2 4 -1 -5 8.25 6.77 3.17 <
741 2 4 1 -3 31.47 27.98 8.52 o
742 2 4 -1 -3 31.58 40.38 8.09 o
743 2 4 2 -7 1.86 6.36 2.90 <
744 2 4 -2 -7 1.77 1.55 0.76 <
745 2 4 2 -6 0.21 0.35 1.02 <
746 2 4 -2 -6 0.22 -4.57 4.06 <
747 2 4 2 -5 6.54 11.47 3.58 o
748 2 4 -2 -5 6.93 13.28 4.91 <
749 2 4 2 -3 13.72 4.80 3.76 <
750 2 4 -2 -3 13.15 6.05 3.44 <
751 2 4 2 -2 77.71 57.70 14.78 o
752 2 4 -2 -2 77.69 66.08 14.95 o
753 2 4 3 -7 2.79 6.19 2.99 <
754 2 4 3 -6 1.84 9.55 3.47 <
755 2 4 -3 -6 1.80 11.30 6.60 <
756 2 4 3 -5 1.67 0.37 1.28 <
757 2 4 -3 -5 1.78 0.43 0.32 <
758 2 4 3 -3 15.74 10.30 5.36 <
759 2 4 -3 -3 14.71 20.69 5.93 o
760 2 4 3 -2 0.10 -3.72 3.52 <
761 2 4 -3 -2 0.10 0.68 0.93 <
762 2 4 4 -6 1.51 1.48 1.43 <
763 2 4 -4 -6 1.50 3.14 4.15 <
764 2 4 4 -5 1.76 4.85 2.11 <
765 2 4 -4 -5 1.57 6.73 4.77 <
766 2 4 4 -3 0.92 -0.11 1.13 <
767 2 4 -4 -3 1.08 2.06 1.91 <
768 2 4 4 -2 41.79 25.71 9.12 <
769 2 4 -4 -2 41.77 55.26 11.60 o
770 2 4 4 -1 0.52 1.53 2.93 <
771 2 4 -4 -1 0.39 4.12 4.53 <
772 2 4 5 -6 2.50 7.33 4.44 <
773 2 4 -5 -6 2.49 11.64 6.63 <
774 2 4 5 -5 1.75 2.71 2.63 <
775 2 4 -5 -5 1.69 2.19 2.62 <
776 2 4 5 -3 8.28 5.89 4.69 <
777 2 4 -5 -3 8.93 8.91 4.36 <
778 2 4 5 -2 0.60 -0.13 1.36 <
779 2 4 -5 -2 0.60 -0.01 1.78 <
780 2 4 5 -1 8.11 5.79 5.77 <
781 2 4 -5 -1 7.45 7.74 5.15 <
782 2 4 6 -5 5.41 8.64 2.87 o
783 2 4 -6 -5 5.41 3.15 3.94 <
784 2 4 6 -3 1.36 2.29 2.88 <
785 2 4 -6 -3 1.44 2.25 2.28 <
786 2 4 6 -2 8.26 3.89 3.78 <
787 2 4 -6 -2 8.28 13.34 5.74 <
788 2 4 6 -1 2.50 0.80 4.06 <
789 2 4 -6 -1 2.37 2.80 2.14 <
790 2 4 7 -3 5.94 6.06 4.38 <
791 2 4 -7 -3 5.89 8.41 4.75 <
792 2 4 7 -2 0.08 -2.18 2.85 <
793 2 4 -7 -2 0.08 -0.88 3.04 <
794 2 4 7 -1 8.34 0.78 3.04 <
795 2 4 -7 -1 8.41 9.17 5.66 <
796 2 5 0 -7 0.09 -1.04 1.27 <
797 3 5 0 -6 1.26 0.99 1.28 <
797 2 5 0 -6 1.26 0.99 1.28 <
798 2 5 0 -5 1.61 -1.05 0.85 <
799 2 5 1 -7 2.87 1.48 1.25 <
800 2 5 -1 -7 2.94 2.41 1.87 <
801 3 5 -1 -6 4.24 5.19 1.78 <
801 2 5 1 -6 4.24 5.19 1.78 <
802 3 5 1 -6 4.23 4.86 2.27 <
802 2 5 -1 -6 4.23 4.86 2.27 <
803 2 5 1 -5 5.65 6.82 2.19 o
804 2 5 -1 -5 5.32 13.02 3.99 o
805 2 5 -1 -3 2.06 1.00 2.90 <
806 2 5 2 -7 1.12 1.59 1.72 <
807 2 5 -2 -7 1.07 3.54 3.26 <
808 3 5 -2 -6 2.50 1.70 1.17 <
808 2 5 2 -6 2.50 1.70 1.17 <
809 3 5 2 -6 2.52 3.99 3.28 <
809 2 5 -2 -6 2.52 3.99 3.28 <
810 2 5 2 -5 0.01 0.16 0.76 <
811 2 5 -2 -5 0.01 0.79 0.74 <
812 2 5 -2 -3 2.54 2.79 2.94 <
813 3 5 -3 -6 1.14 4.07 2.52 <
813 2 5 3 -6 1.14 4.07 2.52 <
814 3 5 3 -6 1.14 9.07 5.25 <
814 2 5 -3 -6 1.14 9.07 5.25 <
815 2 5 3 -5 0.99 3.19 1.57 <
816 2 5 -3 -5 1.11 9.13 4.17 <
817 2 5 3 -3 20.13 7.04 5.59 <
818 2 5 -3 -3 19.72 20.07 7.39 <
819 2 5 -3 -2 24.68 12.18 7.70 <
820 3 5 -4 -6 4.15 6.56 3.28 <
820 2 5 4 -6 4.15 6.56 3.28 <
821 3 5 4 -6 4.13 9.91 6.06 <
821 2 5 -4 -6 4.13 9.91 6.06 <
822 2 5 4 -5 0.63 1.25 1.76 <
823 2 5 -4 -5 0.63 3.39 2.59 <
824 2 5 4 -3 1.46 7.99 5.91 <
825 2 5 -4 -3 1.50 2.66 3.40 <
826 2 5 4 -2 0.80 4.28 4.69 <
827 2 5 -4 -2 0.76 2.17 3.21 <
828 2 5 5 -5 0.77 3.71 3.38 <
829 2 5 -5 -5 0.75 11.59 6.03 <
830 2 5 5 -3 7.89 6.11 5.30 <
831 2 5 -5 -3 8.23 10.09 5.72 <
832 2 5 5 -2 6.79 3.64 4.48 <
833 2 5 -5 -2 6.46 6.77 4.95 <
834 2 5 6 -3 1.45 3.80 3.86 <
835 2 5 -6 -3 1.33 1.06 1.32 <
836 2 5 6 -2 1.64 -2.72 4.14 <
837 2 5 -6 -2 1.77 2.51 3.86 <
838 2 6 0 -6 0.03 0.71 1.10 <
839 2 6 0 -5 0.09 2.38 2.76 <
840 2 6 1 -6 1.57 -0.64 0.96 <
841 2 6 -1 -6 1.54 0.34 0.80 <
842 2 6 1 -5 1.15 2.45 1.86 <
843 2 6 -1 -5 1.22 -0.31 1.30 <
844 2 6 2 -6 1.59 2.19 1.36 <
845 2 6 -2 -6 1.63 3.82 2.74 <
846 2 6 2 -5 1.46 2.44 2.39 <
847 2 6 -2 -5 1.38 0.42 0.68 <
848 2 6 3 -5 1.31 1.30 1.36 <
849 2 6 -3 -5 1.36 1.76 1.11 <
850 2 6 -3 -3 0.20 0.81 3.71 <
851 2 6 4 -3 4.69 2.45 3.99 <
852 2 6 -4 -3 4.70 4.59 3.39 <
853 3 0 1 1 590.88 576.50 16.58 o
854 3 0 -1 1 591.33 575.83 16.16 o
855 3 0 2 1 3.94 0.36 0.36 <
856 3 0 -2 1 3.74 0.27 0.76 <
857 3 0 2 2 178.03 131.67 12.14 o
858 3 0 -2 2 177.74 135.46 12.06 o
859 3 0 3 1 25.25 17.88 3.35 o
860 3 0 -3 1 25.34 16.88 3.51 o
861 3 0 3 2 247.62 226.62 15.79 o
862 3 0 -3 2 247.44 267.77 17.67 o
863 3 0 3 3 8.75 4.22 2.77 <
864 3 0 -3 3 8.76 5.22 2.90 <
865 3 0 4 1 1.44 0.71 0.80 <
866 3 0 -4 1 1.51 -0.24 1.45 <
867 3 0 4 2 14.68 12.43 3.54 o
868 3 0 -4 2 14.87 16.89 4.99 o
869 3 0 4 3 90.91 80.46 11.08 o
870 3 0 -4 3 90.61 75.50 11.42 o
871 4 3 -4 -4 1.29 -1.98 1.96 <
871 3 0 4 4 1.29 -1.98 1.96 <
872 4 3 4 -4 1.29 1.61 1.97 <
872 3 0 -4 4 1.29 1.61 1.97 <
873 3 0 5 1 71.58 88.10 9.65 o
874 3 0 -5 1 71.63 95.44 7.79 o
875 3 0 5 2 82.57 57.14 9.06 o
876 3 0 -5 2 82.54 58.23 11.06 o
877 3 0 5 3 0.39 0.78 2.49 <
878 3 0 -5 3 0.39 0.23 2.03 <
879 4 3 -5 -4 10.78 2.37 1.89 <
879 3 0 5 4 10.78 2.37 1.89 <
880 4 3 5 -4 11.33 7.13 3.27 <
880 3 0 -5 4 11.33 7.13 3.27 <
881 3 0 6 1 11.81 14.78 4.75 o
882 3 0 -6 1 11.72 15.64 3.48 o
883 3 0 6 2 21.97 17.04 5.18 o
884 3 0 -6 2 21.89 14.39 6.20 <
885 3 0 6 3 27.35 5.00 3.88 <
886 3 0 -6 3 27.58 6.98 6.44 <
887 4 3 -6 -4 2.18 1.78 2.04 <
887 3 0 6 4 2.18 1.78 2.04 <
888 4 3 6 -4 2.17 1.28 1.93 <
888 3 0 -6 4 2.17 1.28 1.93 <
889 3 0 6 5 9.99 7.18 4.98 <
890 3 0 -6 5 9.90 3.03 6.94 <
891 3 0 7 1 56.21 62.79 12.83 o
892 3 0 -7 1 56.13 51.28 6.94 o
893 3 0 7 2 9.75 1.24 1.97 <
894 3 0 -7 2 9.81 0.45 1.83 <
895 3 0 7 3 7.62 3.05 2.50 <
896 3 0 -7 3 7.62 3.47 4.80 <
897 4 3 -7 -4 38.20 29.20 7.05 o
897 3 0 7 4 38.20 29.20 7.05 o
898 4 3 7 -4 38.18 20.99 7.66 <
898 3 0 -7 4 38.18 20.99 7.66 <
899 3 0 8 1 4.19 3.34 5.32 <
900 3 0 -8 1 4.26 2.00 1.97 <
901 3 0 8 2 7.73 2.78 2.74 <
902 3 0 -8 2 7.76 0.28 3.73 <
903 3 0 8 3 16.93 8.34 3.91 <
904 3 0 -8 3 16.84 28.05 29.17 <
905 3 1 0 -2 48.50 82.52 6.19 o
906 3 1 1 -3 34.97 41.43 6.59 o
907 3 1 -1 -3 37.80 38.05 5.96 o
908 3 1 1 -2 175.55 180.59 10.18 o
909 3 1 -1 -2 177.34 179.88 10.08 o
910 3 1 1 -1 417.82 333.69 11.30 o
911 3 1 -1 -1 418.23 333.63 11.00 o
912 4 -2 -2 4 52.24 70.67 7.45 o
912 3 1 2 -4 52.24 70.67 7.45 o
913 4 -2 2 4 51.81 56.23 9.02 o
913 3 1 -2 -4 51.81 56.23 9.02 o
914 3 1 2 -3 111.86 110.90 10.70 o
915 3 1 -2 -3 109.29 109.98 10.66 o
916 3 1 2 -2 464.56 536.07 19.59 o
917 3 1 -2 -2 464.28 539.63 20.39 o
918 3 1 2 -1 8.72 3.07 0.72 o
919 3 1 -2 -1 10.18 4.93 0.97 o
920 4 1 -2 0 14.39 8.27 1.38 o
920 3 1 2 0 14.39 8.27 1.38 o
921 4 1 2 0 14.37 9.61 1.73 o
921 3 1 -2 0 14.37 9.61 1.73 o
922 3 1 3 -5 7.12 2.81 2.94 <
923 4 -2 -3 4 43.32 42.04 5.64 o
923 3 1 3 -4 43.32 42.04 5.64 o
924 4 -2 3 4 42.04 36.21 5.07 o
924 3 1 -3 -4 42.04 36.21 5.07 o
925 3 1 3 -3 147.10 173.02 13.82 o
926 3 1 -3 -3 147.02 187.88 15.38 o
927 3 1 3 -2 17.16 23.47 4.09 o
928 3 1 -3 -2 17.62 21.86 4.24 o
929 3 1 3 -1 84.50 91.63 5.48 o
930 3 1 -3 -1 83.84 83.04 4.87 o
931 4 1 -3 0 175.59 184.13 7.02 o
931 3 1 3 0 175.59 184.13 7.02 o
932 4 1 3 0 175.60 189.57 8.25 o
932 3 1 -3 0 175.60 189.57 8.25 o
933 3 1 3 1 40.11 35.14 5.88 o
933 2 -1 -3 -1 40.11 35.14 5.88 o
934 3 1 -3 1 40.29 35.84 6.79 o
934 2 -1 3 -1 40.29 35.84 6.79 o
935 3 1 4 -5 4.01 1.88 3.38 <
936 3 1 -4 -5 4.18 1.71 1.89 <
937 4 -2 -4 4 94.40 106.48 8.91 o
937 3 1 4 -4 94.40 106.48 8.91 o
938 4 -2 4 4 94.08 105.88 9.33 o
938 3 1 -4 -4 94.08 105.88 9.33 o
939 3 1 4 -3 17.83 20.79 4.59 o
940 3 1 -4 -3 18.09 21.60 5.57 o
941 3 1 4 -2 182.29 253.44 15.76 o
942 3 1 -4 -2 180.99 268.11 17.72 o
943 3 1 4 -1 23.08 30.07 3.45 o
944 3 1 -4 -1 22.20 27.73 2.90 o
945 4 1 -4 0 48.28 59.04 4.41 o
945 3 1 4 0 48.28 59.04 4.41 o
946 4 1 4 0 48.30 58.80 4.98 o
946 3 1 -4 0 48.30 58.80 4.98 o
947 3 1 4 1 511.56 544.83 22.72 o
947 2 -1 -4 -1 511.56 544.83 22.72 o
948 3 1 -4 1 510.68 510.48 28.03 o
948 2 -1 4 -1 510.68 510.48 28.03 o
949 3 1 4 2 22.68 9.51 3.99 <
950 3 1 -4 2 22.33 12.71 5.39 <
951 3 1 5 -6 4.04 7.74 5.70 <
952 3 1 -5 -6 4.08 2.01 4.59 <
953 3 1 5 -5 4.75 1.46 1.90 <
954 3 1 -5 -5 4.90 1.54 1.59 <
955 4 -2 -5 4 32.38 24.50 4.45 o
955 3 1 5 -4 32.38 24.50 4.45 o
956 4 -2 5 4 33.33 25.60 4.98 o
956 3 1 -5 -4 33.33 25.60 4.98 o
957 3 1 5 -3 59.91 69.42 9.42 o
958 3 1 -5 -3 59.41 75.44 11.16 o
959 3 1 5 -2 22.66 25.17 5.02 o
960 3 1 -5 -2 22.26 30.34 3.85 o
961 3 1 5 -1 46.73 78.20 6.91 o
962 3 1 -5 -1 46.60 72.74 5.69 o
963 4 1 -5 0 105.09 154.05 8.66 o
963 3 1 5 0 105.09 154.05 8.66 o
964 4 1 5 0 105.09 152.49 7.13 o
964 3 1 -5 0 105.09 152.49 7.13 o
965 3 1 5 1 56.83 69.39 8.77 o
965 2 -1 -5 -1 56.83 69.39 8.77 o
966 3 1 -5 1 56.67 48.39 9.18 o
966 2 -1 5 -1 56.67 48.39 9.18 o
967 3 1 5 2 64.37 29.98 8.05 o
968 3 1 -5 2 64.87 35.50 10.30 o
969 3 1 5 3 25.44 8.29 4.91 <
970 3 1 -5 3 24.65 7.84 5.18 <
971 3 1 6 -5 12.78 7.52 5.33 <
972 3 1 -6 -5 12.95 5.07 5.52 <
973 4 -2 -6 4 20.86 9.73 3.71 <
973 3 1 6 -4 20.86 9.73 3.71 <
974 4 -2 6 4 21.24 7.22 4.00 <
974 3 1 -6 -4 21.24 7.22 4.00 <
975 3 1 6 -3 11.83 10.17 3.37 o
976 3 1 -6 -3 12.48 7.91 4.54 <
977 3 1 6 -2 63.83 74.93 11.00 o
978 3 1 -6 -2 64.75 65.33 7.35 o
979 3 1 6 -1 15.43 18.50 4.17 o
980 3 1 -6 -1 15.95 14.93 3.18 o
981 4 1 -6 0 28.92 37.98 4.59 o
981 3 1 6 0 28.92 37.98 4.59 o
982 4 1 6 0 28.91 33.00 3.60 o
982 3 1 -6 0 28.91 33.00 3.60 o
983 3 1 6 1 169.67 195.40 16.04 o
983 2 -1 -6 -1 169.67 195.40 16.04 o
984 3 1 -6 1 170.19 154.65 18.74 o
984 2 -1 6 -1 170.19 154.65 18.74 o
985 3 1 6 2 11.38 6.06 3.73 <
986 3 1 -6 2 10.71 3.58 3.05 <
987 3 1 6 3 9.25 2.56 3.62 <
988 3 1 -6 3 9.44 1.37 4.50 <
989 4 4 -6 -4 18.64 9.07 4.41 <
989 3 1 6 4 18.64 9.07 4.41 <
990 4 -2 -7 4 8.06 3.15 2.41 <
990 3 1 7 -4 8.06 3.15 2.41 <
991 4 -2 7 4 8.06 0.89 2.01 <
991 3 1 -7 -4 8.06 0.89 2.01 <
992 3 1 7 -3 8.51 5.15 4.07 <
993 3 1 -7 -3 8.58 1.45 2.40 <
994 3 1 7 -2 0.52 0.07 1.72 <
995 3 1 -7 -2 0.46 1.76 2.35 <
996 3 1 7 -1 54.79 91.01 10.85 o
997 3 1 -7 -1 54.96 67.63 8.45 o
998 4 1 -7 0 111.65 178.81 11.29 o
998 3 1 7 0 111.65 178.81 11.29 o
999 4 1 7 0 111.65 150.98 8.48 o
999 3 1 -7 0 111.65 150.98 8.48 o
1000 3 1 7 1 1.65 1.57 2.19 <
1000 2 -1 -7 -1 1.65 1.57 2.19 <
1001 3 1 -7 1 1.63 1.62 2.04 <
1001 2 -1 7 -1 1.63 1.62 2.04 <
1002 3 1 7 2 10.41 2.47 2.71 <
1003 3 1 -7 2 10.44 0.79 2.68 <
1004 3 1 7 3 9.39 5.14 4.34 <
1005 3 1 -7 3 9.35 1422.86 91.25 o
1006 3 1 8 -3 2.24 3.59 3.26 <
1007 3 1 -8 -3 2.06 0.24 1.82 <
1008 3 1 8 -2 19.55 17.68 5.48 o
1009 3 1 -8 -2 19.46 10.40 3.48 <
1010 3 1 8 -1 9.20 11.48 4.65 <
1011 3 1 -8 -1 8.90 7.53 3.65 <
1012 4 1 -8 0 17.65 21.26 4.29 o
1012 3 1 8 0 17.65 21.26 4.29 o
1013 4 1 8 0 17.66 16.65 2.95 o
1013 3 1 -8 0 17.66 16.65 2.95 o
1014 3 1 8 1 49.10 33.79 7.45 o
1014 2 -1 -8 -1 49.10 33.79 7.45 o
1015 3 1 -8 1 48.98 19.54 8.57 <
1015 2 -1 8 -1 48.98 19.54 8.57 <
1016 3 1 8 2 1.85 2.56 1.21 <
1017 3 1 -8 2 2.01 1.64 4.42 <
1018 4 -1 0 4 130.28 196.46 9.87 o
1018 3 2 0 -4 130.28 196.46 9.87 o
1019 3 2 0 -3 4.89 0.55 0.62 <
1020 3 2 0 -2 0.21 0.50 0.21 <
1021 3 2 1 -5 8.92 17.33 5.49 o
1022 4 -1 -1 4 74.60 79.21 6.02 o
1022 3 2 1 -4 74.60 79.21 6.02 o
1023 4 -1 1 4 75.77 69.63 5.61 o
1023 3 2 -1 -4 75.77 69.63 5.61 o
1024 3 2 1 -3 105.86 107.64 8.48 o
1025 3 2 -1 -3 101.74 106.18 5.58 o
1026 3 2 1 -2 44.19 36.56 4.40 o
1027 3 2 -1 -2 40.56 35.55 4.18 o
1028 3 2 2 -6 11.81 11.34 5.40 <
1029 3 2 2 -5 9.30 4.38 3.09 <
1030 3 2 -2 -5 9.51 5.73 3.30 <
1031 4 -1 -2 4 52.55 66.35 5.76 o
1031 3 2 2 -4 52.55 66.35 5.76 o
1032 4 -1 2 4 52.97 67.17 6.12 o
1032 3 2 -2 -4 52.97 67.17 6.12 o
1033 3 2 2 -3 74.39 78.11 7.89 o
1034 3 2 -2 -3 77.47 81.10 8.75 o
1035 3 2 2 -2 36.29 30.50 4.74 o
1036 3 2 -2 -2 37.55 30.08 4.53 o
1037 3 2 2 -1 255.76 191.94 9.00 o
1038 3 2 3 -6 2.86 3.51 3.56 <
1039 3 2 -3 -6 3.00 6.15 4.47 <
1040 3 2 3 -5 19.54 29.26 7.05 o
1041 3 2 -3 -5 19.11 23.63 6.57 o
1042 4 -1 -3 4 41.59 43.76 4.79 o
1042 3 2 3 -4 41.59 43.76 4.79 o
1043 4 -1 3 4 42.85 44.69 5.12 o
1043 3 2 -3 -4 42.85 44.69 5.12 o
1044 3 2 3 -3 84.48 113.37 10.40 o
1045 3 2 -3 -3 84.83 113.54 11.40 o
1046 3 2 3 -2 194.04 224.12 15.16 o
1047 3 2 -3 -2 194.20 213.69 8.04 o
1048 3 2 3 -1 6.26 3.56 1.23 <
1049 3 2 -3 -1 6.26 4.11 1.75 <
1050 4 2 -3 0 397.60 386.08 11.33 o
1050 3 2 3 0 397.60 386.08 11.33 o
1051 3 2 4 -7 1.86 0.75 2.41 <
1052 3 2 4 -6 8.89 9.16 5.71 <
1053 3 2 -4 -6 8.87 11.55 6.04 <
1054 3 2 4 -5 0.06 0.39 1.62 <
1055 3 2 -4 -5 0.06 0.37 1.77 <
1056 4 -1 -4 4 95.00 136.57 9.07 o
1056 3 2 4 -4 95.00 136.57 9.07 o
1057 4 -1 4 4 95.33 121.42 9.45 o
1057 3 2 -4 -4 95.33 121.42 9.45 o
1058 3 2 4 -3 43.00 55.52 7.78 o
1059 3 2 -4 -3 42.61 55.99 8.72 o
1060 3 2 4 -2 1.69 2.43 1.95 <
1061 3 2 -4 -2 1.30 1.47 0.86 <
1062 3 2 4 -1 230.32 242.92 12.05 o
1063 3 2 -4 -1 229.97 259.28 12.40 o
1064 4 2 -4 0 5.62 4.94 1.49 o
1064 3 2 4 0 5.62 4.94 1.49 o
1065 4 2 4 0 5.63 4.26 1.86 <
1065 3 2 -4 0 5.63 4.26 1.86 <
1066 3 2 4 1 50.03 36.98 7.59 o
1067 3 2 5 -6 2.58 5.79 4.42 <
1068 3 2 -5 -6 2.45 6.90 5.88 <
1069 3 2 5 -5 12.81 14.23 5.22 <
1070 3 2 -5 -5 13.17 14.20 6.23 <
1071 4 -1 -5 4 32.93 37.42 4.88 o
1071 3 2 5 -4 32.93 37.42 4.88 o
1072 4 -1 5 4 32.00 34.09 5.43 o
1072 3 2 -5 -4 32.00 34.09 5.43 o
1073 3 2 5 -3 31.38 44.87 7.77 o
1074 3 2 -5 -3 31.76 43.84 5.22 o
1075 3 2 5 -2 59.37 57.55 6.04 o
1076 3 2 -5 -2 59.58 62.08 5.27 o
1077 3 2 5 -1 21.29 23.51 4.58 o
1078 3 2 -5 -1 21.30 22.33 4.11 o
1079 4 2 -5 0 129.31 82.73 6.25 o
1079 3 2 5 0 129.31 82.73 6.25 o
1080 4 2 5 0 129.31 87.03 8.53 o
1080 3 2 -5 0 129.31 87.03 8.53 o
1081 3 2 5 1 41.12 31.87 6.71 o
1082 3 2 -5 1 40.72 31.32 8.96 o
1083 3 2 5 2 9.61 10.58 5.15 <
1084 3 2 6 -5 3.29 7.11 4.73 <
1085 3 2 -6 -5 3.19 0.71 3.26 <
1086 4 -1 -6 4 21.38 24.57 4.24 o
1086 3 2 6 -4 21.38 24.57 4.24 o
1087 4 -1 6 4 21.00 22.50 5.02 o
1087 3 2 -6 -4 21.00 22.50 5.02 o
1088 3 2 6 -3 13.04 9.80 4.64 <
1089 3 2 -6 -3 12.16 12.28 2.98 o
1090 3 2 6 -2 7.52 9.05 2.52 o
1091 3 2 -6 -2 7.37 10.31 2.45 o
1092 3 2 6 -1 42.60 40.24 6.53 o
1093 3 2 -6 -1 42.73 25.57 5.32 o
1094 4 2 -6 0 17.32 14.62 2.94 o
1094 3 2 6 0 17.32 14.62 2.94 o
1095 4 2 6 0 17.32 10.28 3.32 o
1095 3 2 -6 0 17.32 10.28 3.32 o
1096 3 2 6 1 14.43 5.31 3.51 <
1097 3 2 -6 1 15.25 2.45 3.79 <
1098 3 2 6 2 17.59 26.68 8.45 o
1099 3 2 -6 2 18.11 12.59 7.59 <
1100 4 -1 -7 4 7.93 5.06 2.35 <
1100 3 2 7 -4 7.93 5.06 2.35 <
1101 4 -1 7 4 7.93 3.65 3.26 <
1101 3 2 -7 -4 7.93 3.65 3.26 <
1102 3 2 7 -3 11.21 8.54 5.34 <
1103 3 2 -7 -3 11.30 4.59 2.56 <
1104 3 2 7 -2 10.50 7.60 4.94 <
1105 3 2 -7 -2 10.55 8.62 2.82 o
1106 3 2 7 -1 0.20 0.62 1.39 <
1107 3 2 -7 -1 0.20 -0.08 0.96 <
1108 4 2 -7 0 26.39 9.44 2.45 o
1108 3 2 7 0 26.39 9.44 2.45 o
1109 4 2 7 0 26.39 14.67 4.32 o
1109 3 2 -7 0 26.39 14.67 4.32 o
1110 3 2 7 1 13.02 5.66 3.63 <
1111 3 2 -7 1 12.92 2.73 4.37 <
1112 3 2 7 2 0.78 1.52 2.21 <
1113 3 2 -7 2 0.77 0.47 5.23 <
1114 3 2 7 3 4.07 0.43 2.81 <
1115 3 2 8 -3 2.70 4.18 2.98 <
1116 3 2 -8 -3 3.01 2.80 1.70 <
1117 3 2 8 -2 1.91 -1.50 3.48 <
1118 3 2 -8 -2 1.96 0.39 2.47 <
1119 3 2 8 -1 18.61 14.24 4.99 <
1120 3 2 -8 -1 18.58 5.55 3.68 <
1121 4 2 -8 0 3.64 0.84 1.30 <
1121 3 2 8 0 3.64 0.84 1.30 <
1122 4 2 8 0 3.64 -0.25 1.88 <
1122 3 2 -8 0 3.64 -0.25 1.88 <
1123 3 2 8 1 2.84 1.67 1.76 <
1124 3 2 -8 1 2.58 -1.22 2.13 <
1125 3 3 0 -6 0.29 3.21 3.41 <
1126 3 3 0 -5 12.86 21.41 5.08 o
1127 4 0 0 4 14.36 9.37 1.13 o
1127 3 3 0 -4 14.36 9.37 1.13 o
1128 3 3 0 -3 191.37 197.04 6.94 o
1129 3 3 1 -7 1.08 4.00 3.73 <
1130 3 3 1 -6 7.68 7.47 4.20 <
1131 3 3 1 -5 20.81 15.29 4.51 o
1132 3 3 -1 -5 21.74 14.50 2.88 o
1133 4 0 -1 4 175.27 188.69 7.66 o
1133 3 3 1 -4 175.27 188.69 7.66 o
1134 4 0 1 4 176.27 172.24 4.95 o
1134 3 3 -1 -4 176.27 172.24 4.95 o
1135 3 3 1 -3 0.58 2.86 1.36 <
1136 3 3 -1 -3 0.63 -0.62 1.02 <
1137 3 3 2 -7 0.38 2.71 3.87 <
1138 3 3 2 -6 14.56 26.11 7.52 o
1139 3 3 -2 -6 14.87 10.23 4.16 <
1140 3 3 2 -5 7.95 13.46 4.29 o
1141 3 3 -2 -5 7.95 12.84 4.78 <
1142 4 0 -2 4 4.96 2.97 1.25 <
1142 3 3 2 -4 4.96 2.97 1.25 <
1143 4 0 2 4 4.94 1.62 0.75 <
1143 3 3 -2 -4 4.94 1.62 0.75 <
1144 3 3 2 -3 51.97 67.60 8.58 o
1145 3 3 -2 -3 52.01 63.58 7.43 o
1146 3 3 3 -7 2.08 9.59 5.91 <
1147 3 3 -3 -7 2.16 3.14 2.63 <
1148 3 3 3 -6 2.32 18.27 8.59 <
1149 3 3 -3 -6 2.21 1.64 2.42 <
1150 3 3 3 -5 15.65 19.72 5.72 o
1151 3 3 -3 -5 15.82 13.41 5.47 <
1152 4 0 -3 4 6.73 9.17 2.23 o
1152 3 3 3 -4 6.73 9.17 2.23 o
1153 4 0 3 4 7.39 9.37 2.51 o
1153 3 3 -3 -4 7.39 9.37 2.51 o
1154 3 3 3 -3 15.48 9.77 3.54 <
1155 3 3 -3 -3 15.34 9.93 3.14 o
1156 3 3 3 -2 35.93 25.93 2.87 o
1157 3 3 -3 -2 36.45 31.13 6.14 o
1158 3 3 3 -1 38.99 29.42 4.68 o
1159 3 3 4 -7 0.03 -0.43 2.10 <
1160 3 3 -4 -7 0.03 -4.46 4.61 <
1161 3 3 4 -6 5.09 6.75 4.53 <
1162 3 3 -4 -6 5.05 7.60 5.07 <
1163 3 3 4 -5 0.76 2.06 2.20 <
1164 3 3 -4 -5 0.80 1.03 1.71 <
1165 4 0 -4 4 1.31 3.56 1.71 <
1165 3 3 4 -4 1.31 3.56 1.71 <
1166 4 0 4 4 1.32 0.90 0.63 <
1166 3 3 -4 -4 1.32 0.90 0.63 <
1167 3 3 4 -3 18.51 22.66 6.43 o
1168 3 3 -4 -3 18.44 21.21 3.00 o
1169 3 3 4 -2 19.03 17.64 2.58 o
1170 3 3 -4 -2 19.29 17.62 3.23 o
1171 3 3 4 -1 21.50 11.42 2.88 o
1172 4 3 -4 0 43.48 30.68 3.92 o
1172 3 3 4 0 43.48 30.68 3.92 o
1173 3 3 5 -6 2.60 1.40 2.44 <
1174 3 3 -5 -6 2.71 3.49 3.90 <
1175 3 3 5 -5 5.50 5.16 3.16 <
1176 3 3 -5 -5 5.30 2.12 3.15 <
1177 4 0 -5 4 11.33 11.57 3.08 o
1177 3 3 5 -4 11.33 11.57 3.08 o
1178 4 0 5 4 10.77 10.25 1.73 o
1178 3 3 -5 -4 10.77 10.25 1.73 o
1179 3 3 5 -3 0.61 3.66 3.42 <
1180 3 3 -5 -3 0.66 0.61 1.03 <
1181 3 3 5 -2 36.27 44.76 5.10 o
1182 3 3 -5 -2 35.72 37.30 5.31 o
1183 3 3 5 -1 36.44 29.64 4.80 o
1184 3 3 -5 -1 36.79 33.08 7.33 o
1185 4 3 -5 0 0.54 0.30 0.86 <
1185 3 3 5 0 0.54 0.30 0.86 <
1186 3 3 6 -5 3.48 5.56 3.99 <
1187 3 3 -6 -5 3.46 5.68 4.27 <
1188 4 0 -6 4 2.13 3.02 1.83 <
1188 3 3 6 -4 2.13 3.02 1.83 <
1189 4 0 6 4 2.15 0.47 0.86 <
1189 3 3 -6 -4 2.15 0.47 0.86 <
1190 3 3 6 -3 24.15 33.78 9.22 o
1191 3 3 -6 -3 24.23 31.05 4.73 o
1192 3 3 6 -2 6.62 2.88 1.76 <
1193 3 3 -6 -2 7.27 4.34 2.19 <
1194 3 3 6 -1 6.03 2.11 1.60 <
1195 3 3 -6 -1 5.44 3.52 1.87 <
1196 4 3 -6 0 61.39 44.84 6.23 o
1196 3 3 6 0 61.39 44.84 6.23 o
1197 4 3 6 0 61.38 48.20 9.73 o
1197 3 3 -6 0 61.38 48.20 9.73 o
1198 3 3 6 1 0.55 0.40 1.75 <
1199 4 0 -7 4 37.93 59.14 9.15 o
1199 3 3 7 -4 37.93 59.14 9.15 o
1200 4 0 7 4 37.95 67.26 5.05 o
1200 3 3 -7 -4 37.95 67.26 5.05 o
1201 3 3 7 -3 0.51 0.38 2.36 <
1202 3 3 -7 -3 0.51 0.29 1.57 <
1203 3 3 7 -2 4.30 2.51 1.66 <
1204 3 3 -7 -2 4.17 2.07 1.69 <
1205 3 3 7 -1 6.17 1.92 1.83 <
1206 3 3 -7 -1 6.31 4.72 3.74 <
1207 4 3 -7 0 1.75 0.04 0.73 <
1207 3 3 7 0 1.75 0.04 0.73 <
1208 4 3 7 0 1.75 1.68 2.57 <
1208 3 3 -7 0 1.75 1.68 2.57 <
1209 3 3 7 1 15.55 2.57 2.81 <
1210 3 3 8 -2 2.10 2.07 1.70 <
1211 3 3 -8 -2 1.96 0.74 1.31 <
1212 3 3 8 -1 2.02 5.64 3.11 <
1213 3 3 -8 -1 2.15 1.46 3.20 <
1214 3 4 0 -7 1.16 4.50 3.52 <
1215 3 4 0 -6 1.75 2.02 1.11 <
1216 3 4 0 -5 42.89 45.22 4.20 o
1217 4 1 0 4 121.25 111.71 4.02 o
1217 3 4 0 -4 121.25 111.71 4.02 o
1218 3 4 0 -3 0.94 1.15 0.96 <
1219 3 4 1 -7 0.86 11.13 5.74 <
1220 3 4 -1 -7 0.80 4.59 4.17 <
1221 3 4 1 -6 1.54 17.59 5.11 o
1222 3 4 -1 -6 1.67 8.32 2.79 <
1223 3 4 1 -5 5.91 8.36 3.04 <
1224 3 4 -1 -5 5.88 3.95 1.46 <
1225 4 1 -1 4 56.82 45.16 2.73 o
1225 3 4 1 -4 56.82 45.16 2.73 o
1226 4 1 1 4 55.79 51.29 4.11 o
1226 3 4 -1 -4 55.79 51.29 4.11 o
1227 3 4 1 -3 22.41 11.06 1.99 o
1228 3 4 -1 -3 22.49 14.25 3.15 o
1229 3 4 2 -7 1.32 1.77 2.15 <
1230 3 4 -2 -7 1.26 3.26 2.57 <
1231 3 4 2 -6 0.15 2.42 2.32 <
1232 3 4 -2 -6 0.16 2.84 1.78 <
1233 3 4 2 -5 4.66 10.86 3.57 o
1234 3 4 -2 -5 4.94 6.43 2.07 o
1235 4 1 -2 4 28.43 26.32 3.52 o
1235 3 4 2 -4 28.43 26.32 3.52 o
1236 4 1 2 4 27.62 23.27 3.02 o
1236 3 4 -2 -4 27.62 23.27 3.02 o
1237 3 4 -2 -3 9.37 2.39 1.60 <
1238 3 4 3 -7 1.99 4.50 2.80 <
1239 3 4 -3 -7 1.98 8.10 4.97 <
1240 3 4 3 -6 1.31 9.42 4.09 <
1241 3 4 -3 -6 1.28 4.88 2.21 <
1242 3 4 3 -5 1.19 1.44 1.79 <
1243 3 4 -3 -5 1.27 2.91 1.91 <
1244 4 1 -3 4 9.62 9.01 2.37 o
1244 3 4 3 -4 9.62 9.01 2.37 o
1245 4 1 3 4 9.47 8.53 2.20 o
1245 3 4 -3 -4 9.47 8.53 2.20 o
1246 3 4 -3 -3 10.47 6.43 2.98 <
1247 3 4 4 -6 1.08 2.07 2.42 <
1248 3 4 -4 -6 1.07 1.58 3.08 <
1249 3 4 4 -5 1.25 7.15 3.93 <
1250 3 4 -4 -5 1.12 1.96 1.34 <
1251 4 1 -4 4 5.46 2.70 1.99 <
1251 3 4 4 -4 5.46 2.70 1.99 <
1252 4 1 4 4 5.50 2.24 1.28 <
1252 3 4 -4 -4 5.50 2.24 1.28 <
1253 3 4 4 -3 0.66 0.48 0.35 <
1254 3 4 -4 -3 0.77 1.14 1.21 <
1255 3 4 4 -2 29.76 12.79 2.94 o
1256 3 4 5 -6 1.78 12.72 5.83 <
1257 3 4 -5 -6 1.78 5.74 3.32 <
1258 3 4 5 -5 1.24 2.71 3.21 <
1259 3 4 -5 -5 1.21 0.51 1.51 <
1260 4 1 -5 4 6.01 6.25 2.62 <
1260 3 4 5 -4 6.01 6.25 2.62 <
1261 4 1 5 4 6.28 5.06 1.17 o
1261 3 4 -5 -4 6.28 5.06 1.17 o
1262 3 4 5 -3 5.90 2.10 0.94 <
1263 3 4 -5 -3 6.36 5.41 3.24 <
1264 3 4 5 -2 0.43 -0.25 0.74 <
1265 3 4 5 -1 5.77 2.26 1.79 <
1266 3 4 6 -5 3.85 5.84 4.55 <
1267 3 4 -6 -5 3.85 5.15 2.43 <
1268 4 1 -6 4 18.10 20.90 5.54 o
1268 3 4 6 -4 18.10 20.90 5.54 o
1269 4 1 6 4 18.38 23.57 3.09 o
1269 3 4 -6 -4 18.38 23.57 3.09 o
1270 3 4 6 -3 0.97 0.17 0.79 <
1271 3 4 -6 -3 1.02 1.36 1.77 <
1272 3 4 6 -2 5.88 5.77 2.26 <
1273 3 4 6 -1 1.78 -0.29 0.97 <
1274 4 4 -6 0 6.59 3.42 1.44 <
1274 3 4 6 0 6.59 3.42 1.44 <
1275 3 4 7 -3 4.23 3.83 1.52 <
1276 3 4 -7 -3 4.20 8.26 3.87 <
1277 3 4 7 -2 0.06 0.25 0.88 <
1278 3 4 -7 -2 0.06 -7.90 3.58 <
1279 3 4 7 -1 5.94 2.51 1.80 <
1280 3 5 0 -7 0.06 0.42 1.77 <
1281 3 5 0 -6 1.26 0.31 0.65 <
1281 2 5 0 -6 1.26 0.31 0.65 <
1282 3 5 0 -5 1.15 1.43 1.25 <
1283 4 2 0 4 7.70 6.49 1.43 o
1283 3 5 0 -4 7.70 6.49 1.43 o
1284 3 5 1 -7 2.05 -0.10 2.09 <
1285 3 5 -1 -7 2.10 3.21 1.95 <
1286 3 5 1 -6 4.23 5.38 2.26 <
1286 2 5 -1 -6 4.23 5.38 2.26 <
1287 3 5 -1 -6 4.24 7.19 2.24 o
1287 2 5 1 -6 4.24 7.19 2.24 o
1288 3 5 1 -5 4.02 8.24 2.08 o
1289 3 5 -1 -5 3.79 12.36 3.67 o
1290 4 2 -1 4 13.50 5.72 1.11 o
1290 3 5 1 -4 13.50 5.72 1.11 o
1291 4 2 1 4 13.71 7.82 1.81 o
1291 3 5 -1 -4 13.71 7.82 1.81 o
1292 3 5 2 -7 0.80 6.57 3.13 <
1293 3 5 -2 -7 0.76 -0.11 0.99 <
1294 3 5 2 -6 2.52 3.70 2.70 <
1294 2 5 -2 -6 2.52 3.70 2.70 <
1295 3 5 -2 -6 2.50 3.77 1.85 <
1295 2 5 2 -6 2.50 3.77 1.85 <
1296 3 5 2 -5 0.01 -1.23 1.51 <
1297 3 5 -2 -5 0.00 0.77 0.99 <
1298 4 2 -2 4 26.77 7.79 1.57 o
1298 3 5 2 -4 26.77 7.79 1.57 o
1299 4 2 2 4 25.92 22.15 3.34 o
1299 3 5 -2 -4 25.92 22.15 3.34 o
1300 3 5 3 -6 1.14 11.42 4.95 <
1300 2 5 -3 -6 1.14 11.42 4.95 <
1301 3 5 -3 -6 1.14 4.76 3.06 <
1301 2 5 3 -6 1.14 4.76 3.06 <
1302 3 5 3 -5 0.71 8.45 4.36 <
1303 3 5 -3 -5 0.79 8.04 3.51 <
1304 4 2 3 4 3.81 3.65 1.83 <
1304 3 5 -3 -4 3.81 3.65 1.83 <
1305 3 5 4 -6 4.13 10.81 5.14 <
1305 2 5 -4 -6 4.13 10.81 5.14 <
1306 3 5 -4 -6 4.15 9.61 4.16 <
1306 2 5 4 -6 4.15 9.61 4.16 <
1307 3 5 4 -5 0.45 5.86 4.70 <
1308 3 5 -4 -5 0.45 1.08 1.73 <
1309 4 2 4 4 17.29 16.06 3.86 o
1309 3 5 -4 -4 17.29 16.06 3.86 o
1310 3 5 4 -3 1.04 19.60 3.19 o
1311 3 5 5 -5 0.55 7.73 5.14 <
1312 3 5 -5 -5 0.53 6.01 3.88 <
1313 4 2 5 4 5.33 3.92 2.17 <
1313 3 5 -5 -4 5.33 3.92 2.17 <
1314 3 5 5 -3 5.62 3.90 1.34 <
1315 3 5 5 -2 4.84 3.60 1.94 <
1316 3 5 6 -3 1.04 2.34 1.26 <
1317 3 5 6 -2 1.17 -0.99 1.54 <
1318 3 6 0 -6 0.02 -0.23 1.06 <
1319 3 6 0 -5 0.06 -0.18 1.13 <
1320 3 6 1 -6 1.12 1.64 1.62 <
1321 3 6 -1 -6 1.10 1.57 1.80 <
1322 3 6 1 -5 0.82 4.05 1.85 <
1323 3 6 -1 -5 0.87 0.04 0.96 <
1324 3 6 -2 -6 1.16 3.18 2.36 <
1325 3 6 2 -5 1.04 1.87 0.98 <
1326 3 6 -2 -5 0.99 4.47 2.42 <
1327 3 6 -3 -5 0.97 1.25 1.70 <
1328 4 0 0 2 2.97 1.83 0.45 o
1329 4 0 0 3 121.96 106.16 3.98 o
1330 4 0 0 5 47.92 55.75 3.73 o
1331 4 0 0 6 1.10 1.78 0.79 <
1332 4 0 0 7 2.80 0.25 0.97 <
1333 4 0 1 1 578.28 456.96 9.97 o
1334 4 0 -1 1 578.73 413.83 9.61 o
1335 4 0 1 2 74.18 82.93 5.24 o
1336 4 0 -1 2 74.66 80.71 4.72 o
1337 4 0 1 3 51.09 42.23 2.54 o
1338 4 0 -1 3 50.99 41.62 3.78 o
1339 4 0 1 5 20.90 14.27 1.88 o
1340 4 0 -1 5 20.93 20.26 3.22 o
1341 4 0 1 6 7.37 6.03 1.62 o
1342 4 0 -1 6 7.35 7.08 2.17 o
1343 4 0 1 7 0.84 3.60 1.31 <
1344 4 0 -1 7 0.82 2.18 1.16 <
1345 4 0 2 1 3.86 0.74 0.45 <
1346 4 0 -2 1 3.66 0.28 0.47 <
1347 4 0 2 2 174.24 146.39 8.02 o
1348 4 0 -2 2 173.96 141.99 7.43 o
1349 4 0 2 3 131.40 136.53 9.36 o
1350 4 0 -2 3 131.59 146.66 8.36 o
1351 4 0 2 5 16.54 12.33 1.95 o
1352 4 0 -2 5 16.49 21.39 3.82 o
1353 4 0 2 6 4.74 5.22 1.57 o
1354 4 0 -2 6 4.75 7.74 2.67 <
1355 4 0 2 7 0.42 1.16 1.43 <
1356 4 0 -2 7 0.42 1.90 1.41 <
1357 4 0 3 1 24.72 16.91 1.76 o
1358 4 0 -3 1 24.80 18.75 2.16 o
1359 4 0 3 2 242.35 246.88 7.26 o
1360 4 0 -3 2 242.17 259.18 11.61 o
1361 4 0 3 3 8.57 5.09 2.08 <
1362 4 0 -3 3 8.57 2.37 0.97 <
1363 4 0 3 5 4.72 2.72 1.17 <
1364 4 0 -3 5 4.73 4.64 2.36 <
1365 4 0 3 6 0.30 0.77 1.00 <
1366 4 0 -3 6 0.32 -1.55 1.96 <
1367 4 0 4 1 1.41 0.88 0.58 <
1368 4 0 -4 1 1.48 0.19 0.77 <
1369 4 0 4 2 14.37 16.39 1.91 o
1370 4 0 -4 2 14.56 18.69 3.12 o
1371 4 0 4 3 88.97 87.10 5.21 o
1372 4 0 -4 3 88.68 100.98 8.79 o
1373 4 0 4 5 0.73 0.55 2.19 <
1374 4 0 -4 5 0.85 18.89 4.99 o
1375 4 0 4 6 6.78 6.86 3.23 <
1376 4 0 -4 6 6.78 14.17 4.61 o
1377 4 0 5 1 70.06 91.57 5.24 o
1378 4 0 -5 1 70.10 102.07 6.83 o
1379 4 0 5 2 80.81 75.35 5.03 o
1380 4 0 -5 2 80.78 88.08 8.53 o
1381 4 0 5 3 0.38 -1.21 1.40 <
1382 4 0 -5 3 0.38 1.75 1.73 <
1383 4 0 5 5 1.84 0.44 1.13 <
1384 4 0 -5 5 1.83 2.89 2.64 <
1385 4 0 5 6 1.90 2.33 2.08 <
1386 4 0 -5 6 1.89 3.97 2.35 <
1387 4 0 6 1 11.56 13.32 2.39 o
1388 4 0 -6 1 11.47 19.34 3.20 o
1389 4 0 6 2 21.50 20.78 2.99 o
1390 4 0 -6 2 21.42 23.81 5.55 o
1391 4 0 6 3 26.77 15.57 2.68 o
1392 4 0 -6 3 26.99 15.67 4.56 o
1393 4 0 6 5 9.78 10.42 2.84 o
1394 4 0 -6 5 9.69 18.79 6.34 <
1395 4 0 7 1 55.01 64.02 6.31 o
1396 4 0 -7 1 54.93 67.96 7.61 o
1397 4 0 7 2 9.54 2.45 1.13 <
1398 4 0 -7 2 9.61 2.41 1.82 <
1399 4 0 7 3 7.46 4.94 1.81 <
1400 4 0 -7 3 7.46 5.88 3.47 <
1401 4 0 8 1 4.10 2.65 1.93 <
1402 4 0 -8 1 4.17 1.34 1.85 <
1403 4 0 8 2 7.57 2.71 1.67 <
1404 4 0 -8 2 7.60 1.85 2.07 <
1405 4 0 8 3 16.56 16.38 3.87 o
1406 4 0 -8 3 16.48 12.11 5.37 <
1407 4 1 0 -7 1.02 3.10 2.17 <
1408 4 1 0 -6 3.88 6.41 3.29 <
1409 4 1 0 -5 78.04 89.94 9.06 o
1410 4 1 0 2 1.39 0.07 0.45 <
1411 4 1 0 3 82.55 83.90 4.85 o
1412 4 1 0 5 2.38 1.48 0.67 <
1413 4 1 0 6 2.54 1.11 1.06 <
1414 4 1 1 -7 1.52 2.72 2.45 <
1415 4 1 -1 -7 1.42 2.83 2.54 <
1416 4 1 1 -6 9.43 8.11 2.18 o
1417 4 1 -1 -6 8.94 14.72 4.32 o
1418 4 1 1 -5 16.11 11.37 2.53 o
1419 4 1 -1 -5 15.59 10.02 3.11 o
1420 4 1 1 -3 34.23 35.35 5.66 o
1421 4 1 -1 -3 36.99 37.85 5.97 o
1422 4 1 1 -2 171.81 216.26 11.80 o
1423 4 1 -1 -2 173.56 238.69 12.77 o
1424 4 1 -1 -1 409.32 644.77 20.25 o
1425 4 1 1 2 48.01 45.15 4.90 o
1426 4 1 -1 2 44.45 32.95 4.36 o
1427 4 1 1 3 65.38 66.13 5.24 o
1428 4 1 -1 3 65.79 38.99 3.13 o
1429 4 1 1 5 11.88 15.63 3.34 o
1430 4 1 -1 5 12.53 9.62 1.73 o
1431 4 1 1 6 2.19 0.79 1.23 <
1432 4 1 -1 6 2.34 1.82 1.14 <
1433 4 1 2 -7 3.72 4.90 1.99 <
1434 4 1 -2 -7 3.79 6.02 2.64 <
1435 4 1 2 -6 0.70 -0.13 1.56 <
1436 4 1 -2 -6 0.70 -1.06 1.75 <
1437 4 1 2 -5 19.25 14.21 3.83 o
1438 4 1 -2 -5 18.37 20.96 4.84 o
1439 4 1 2 -3 109.48 106.75 8.72 o
1440 4 1 -2 -3 106.96 116.75 9.09 o
1441 4 1 2 -2 454.66 460.31 17.55 o
1442 4 1 -2 -2 454.39 481.01 17.88 o
1443 4 1 2 -1 8.53 3.81 1.44 <
1444 4 1 -2 -1 9.96 3.17 1.43 <
1445 5 -1 -2 -1 1014.58 1309.92 30.43 o
1445 4 1 2 1 1014.58 1309.92 30.43 o
1446 5 -1 2 -1 1014.80 1086.24 14.03 o
1446 4 1 -2 1 1014.80 1086.24 14.03 o
1447 4 1 2 2 110.82 125.59 8.71 o
1448 4 1 -2 2 113.61 107.16 8.99 o
1449 4 1 2 3 17.92 17.33 3.17 o
1450 4 1 -2 3 18.48 13.41 2.99 o
1451 4 1 2 5 0.43 1.25 1.05 <
1452 4 1 -2 5 0.44 2.08 1.59 <
1453 4 1 2 6 3.83 7.52 2.57 <
1454 4 1 -2 6 3.76 7.81 3.21 <
1455 4 1 3 -7 2.05 0.46 1.70 <
1456 4 1 -3 -7 2.01 1.47 1.92 <
1457 4 1 3 -6 5.06 3.64 3.08 <
1458 4 1 -3 -6 5.06 6.09 2.95 <
1459 4 1 3 -5 6.97 1.90 1.70 <
1460 4 1 -3 -5 6.92 7.02 3.06 <
1461 4 1 3 -3 143.96 155.17 10.96 o
1462 4 1 -3 -3 143.89 182.73 12.20 o
1463 4 1 3 -2 16.80 17.98 3.37 o
1464 4 1 -3 -2 17.24 18.58 3.36 o
1465 4 1 3 -1 82.70 72.90 6.74 o
1466 4 1 -3 -1 82.05 80.64 6.76 o
1467 5 -1 -3 -1 36.49 52.31 3.66 o
1467 4 1 3 1 36.49 52.31 3.66 o
1468 5 -1 3 -1 36.59 36.58 3.14 o
1468 4 1 -3 1 36.59 36.58 3.14 o
1469 4 1 3 2 164.78 211.35 7.64 o
1470 4 1 -3 2 164.75 148.34 6.43 o
1471 4 1 3 3 40.16 41.13 5.74 o
1472 4 1 -3 3 41.51 39.91 5.84 o
1473 4 1 3 5 7.49 8.55 3.00 <
1474 4 1 -3 5 7.45 7.32 2.88 <
1475 4 1 3 6 2.65 -0.69 1.48 <
1476 4 1 -3 6 2.67 6.79 2.97 <
1477 4 1 4 -6 0.25 1.46 2.11 <
1478 4 1 -4 -6 0.25 1.97 2.38 <
1479 4 1 4 -5 3.93 2.81 2.05 <
1480 4 1 -4 -5 4.09 4.15 2.69 <
1481 4 1 4 -3 17.45 11.62 3.00 o
1482 4 1 -4 -3 17.71 20.01 3.96 o
1483 4 1 4 -2 178.40 200.64 13.20 o
1484 4 1 -4 -2 177.13 220.70 12.04 o
1485 4 1 4 -1 22.58 17.64 3.79 o
1486 4 1 -4 -1 21.72 20.90 3.79 o
1487 5 -1 -4 -1 464.86 609.16 14.67 o
1487 4 1 4 1 464.86 609.16 14.67 o
1488 5 -1 4 -1 464.37 470.12 13.00 o
1488 4 1 -4 1 464.37 470.12 13.00 o
1489 4 1 4 2 22.19 19.05 2.47 o
1490 4 1 -4 2 21.86 18.83 2.56 o
1491 4 1 4 3 29.94 33.46 3.43 o
1492 4 1 -4 3 29.43 30.69 5.69 o
1493 4 1 4 5 0.13 1.54 2.28 <
1494 4 1 -4 5 0.13 1.16 1.82 <
1495 4 1 5 -6 3.95 13.52 5.36 <
1496 4 1 -5 -6 3.99 12.01 4.60 <
1497 4 1 5 -5 4.65 3.31 2.60 <
1498 4 1 -5 -5 4.80 3.59 2.46 <
1499 4 1 5 -3 58.64 61.13 7.89 o
1500 4 1 -5 -3 58.14 69.15 7.66 o
1501 4 1 5 -2 22.18 19.89 4.09 o
1502 4 1 -5 -2 21.78 22.67 4.09 o
1503 4 1 5 -1 45.73 55.48 7.42 o
1504 4 1 -5 -1 45.60 62.48 6.36 o
1505 5 -1 -5 -1 51.63 67.89 5.22 o
1505 4 1 5 1 51.63 67.89 5.22 o
1506 5 -1 5 -1 51.54 64.47 5.10 o
1506 4 1 -5 1 51.54 64.47 5.10 o
1507 4 1 5 2 63.00 75.23 5.37 o
1508 4 1 -5 2 63.49 76.22 5.67 o
1509 4 1 5 3 24.90 25.37 3.36 o
1510 4 1 -5 3 24.12 22.64 5.07 o
1511 4 1 5 5 5.77 7.56 4.00 <
1512 4 1 -5 5 5.74 6.24 3.41 <
1513 4 1 6 -5 12.51 12.64 5.13 <
1514 4 1 -6 -5 12.68 24.39 5.86 o
1515 4 1 6 -3 11.58 6.59 2.65 <
1516 4 1 -6 -3 12.21 9.26 2.94 o
1517 4 1 6 -2 62.47 52.51 8.74 o
1518 4 1 -6 -2 63.37 57.78 8.02 o
1519 4 1 6 -1 15.10 11.20 3.68 o
1520 4 1 -6 -1 15.61 13.89 4.09 o
1521 5 -1 -6 -1 154.32 185.33 9.81 o
1521 4 1 6 1 154.32 185.33 9.81 o
1522 5 -1 6 -1 154.61 160.42 9.39 o
1522 4 1 -6 1 154.61 160.42 9.39 o
1523 4 1 6 2 11.13 10.17 2.12 o
1524 4 1 -6 2 10.48 10.32 2.50 o
1525 4 1 6 3 9.06 7.01 2.22 o
1526 4 1 -6 3 9.23 3.68 3.33 <
1527 4 1 7 -3 8.33 1.89 2.50 <
1528 4 1 -7 -3 8.40 2.48 2.04 <
1529 4 1 7 -2 0.51 -0.01 2.22 <
1530 4 1 -7 -2 0.46 0.33 1.98 <
1531 4 1 7 -1 53.63 48.01 9.66 o
1532 4 1 -7 -1 53.79 71.00 8.69 o
1533 5 -1 -7 -1 1.50 -0.28 1.16 <
1533 4 1 7 1 1.50 -0.28 1.16 <
1534 5 -1 7 -1 1.49 1.07 1.27 <
1534 4 1 -7 1 1.49 1.07 1.27 <
1535 4 1 7 2 10.19 4.36 1.82 <
1536 4 1 -7 2 10.22 2.40 1.85 <
1537 4 1 7 3 9.19 6.24 2.13 <
1538 4 1 -7 3 9.15 6.73 4.29 <
1539 4 1 8 -3 2.19 5.03 3.36 <
1540 4 1 -8 -3 2.02 1.24 2.33 <
1541 4 1 8 -2 19.13 9.15 4.53 <
1542 4 1 -8 -2 19.04 11.62 4.51 <
1543 4 1 8 -1 9.00 5.53 3.80 <
1544 4 1 -8 -1 8.71 8.54 3.30 <
1545 5 -1 -8 -1 44.61 42.56 4.83 o
1545 4 1 8 1 44.61 42.56 4.83 o
1546 5 -1 8 -1 44.54 24.87 4.34 o
1546 4 1 -8 1 44.54 24.87 4.34 o
1547 4 1 8 2 1.81 1.78 1.58 <
1548 4 1 -8 2 1.97 1.00 1.76 <
1549 4 2 0 3 0.71 1.21 1.87 <
1550 4 2 0 5 5.13 1.34 1.54 <
1551 4 2 -1 -7 0.86 6.26 4.74 <
1552 4 2 -1 -6 9.33 3.08 2.49 <
1553 4 2 1 3 15.83 20.55 4.88 o
1554 4 2 1 5 1.19 1.42 1.55 <
1555 4 2 -1 5 1.07 0.44 0.88 <
1556 4 2 -2 -7 1.29 -0.48 2.63 <
1557 4 2 -2 -6 11.22 25.53 7.43 o
1558 4 2 -2 -5 9.30 11.54 4.85 <
1559 4 2 -2 -3 75.82 100.38 11.69 o
1560 4 2 2 3 13.29 10.17 3.87 <
1561 4 2 2 5 2.04 4.19 2.70 <
1562 4 2 3 -7 4.28 2.60 3.17 <
1563 4 2 -3 -7 4.31 11.06 5.72 <
1564 4 2 3 -6 2.80 1.92 2.02 <
1565 4 2 -3 -6 2.94 3.60 2.62 <
1566 4 2 3 -5 19.13 20.14 5.67 o
1567 4 2 -3 -5 18.70 32.59 7.19 o
1568 4 2 3 -3 82.68 90.63 10.22 o
1569 4 2 -3 -3 83.03 90.21 10.19 o
1570 4 2 3 -2 189.90 224.31 15.67 o
1571 4 2 -3 -2 190.06 209.84 14.04 o
1572 4 2 3 -1 6.13 3.03 1.61 <
1573 4 2 -3 -1 6.12 5.35 2.31 <
1574 4 2 -3 1 102.16 72.33 5.93 o
1575 4 2 -3 2 8.28 7.02 1.30 o
1576 4 2 3 3 28.68 33.58 7.12 o
1577 4 2 3 5 5.74 6.94 3.61 <
1578 4 2 4 -7 1.82 5.08 3.39 <
1579 4 2 -4 -7 1.75 0.05 3.26 <
1580 4 2 4 -6 8.70 12.41 5.11 <
1581 4 2 -4 -6 8.68 10.85 4.32 <
1582 4 2 4 -5 0.06 3.11 3.23 <
1583 4 2 -4 -5 0.06 0.77 2.26 <
1584 4 2 4 -3 42.09 42.19 6.96 o
1585 4 2 -4 -3 41.70 42.26 7.05 o
1586 4 2 4 -2 1.65 3.44 2.25 <
1587 4 2 -4 -2 1.27 1.04 1.02 <
1588 4 2 4 -1 225.41 188.13 15.01 o
1589 4 2 -4 -1 225.07 175.98 11.67 o
1590 4 2 -4 1 49.60 38.23 3.91 o
1591 4 2 -4 2 84.64 156.24 6.39 o
1592 4 2 4 3 0.09 0.40 2.01 <
1593 4 2 -4 3 0.12 0.12 0.33 <
1594 4 2 4 5 3.51 2.38 1.96 <
1595 4 2 5 -6 2.53 3.77 2.97 <
1596 4 2 -5 -6 2.40 2.80 2.75 <
1597 4 2 5 -5 12.53 11.83 4.81 <
1598 4 2 -5 -5 12.89 17.91 5.93 o
1599 4 2 5 -3 30.71 24.35 6.38 o
1600 4 2 -5 -3 31.08 26.69 6.50 o
1601 4 2 5 -2 58.10 29.86 6.57 o
1602 4 2 -5 -2 58.31 36.08 6.70 o
1603 4 2 5 -1 20.84 10.98 4.09 <
1604 4 2 -5 -1 20.85 13.12 3.42 o
1605 4 2 5 1 40.24 48.84 7.29 o
1606 4 2 -5 1 39.85 42.02 4.44 o
1607 4 2 -5 2 9.57 15.99 2.19 o
1608 4 2 5 3 19.07 21.88 6.70 o
1609 4 2 -5 3 18.57 13.74 2.30 o
1610 4 2 6 -5 3.22 3.22 3.02 <
1611 4 2 -6 -5 3.13 3.16 2.96 <
1612 4 2 6 -3 12.76 1.59 2.12 <
1613 4 2 -6 -3 11.90 4.32 3.29 <
1614 4 2 6 -2 7.36 4.68 3.32 <
1615 4 2 -6 -2 7.22 4.24 2.86 <
1616 4 2 6 -1 41.69 14.69 4.94 <
1617 4 2 -6 -1 41.82 19.87 4.92 o
1618 4 2 6 1 14.12 6.48 2.97 <
1619 4 2 -6 1 14.93 7.23 2.14 o
1620 4 2 6 2 17.22 50.81 6.64 o
1621 4 2 -6 2 17.72 34.82 3.89 o
1622 4 2 -6 3 2.70 3.22 1.72 <
1623 4 2 7 -5 2.58 3.28 4.45 <
1624 4 2 -7 -5 2.53 0.86 2.31 <
1625 4 2 7 -3 10.98 2.35 2.98 <
1626 4 2 -7 -3 11.06 3.08 2.39 <
1627 4 2 7 -2 10.28 1.64 1.45 <
1628 4 2 -7 -2 10.33 3.22 2.47 <
1629 4 2 7 -1 0.19 0.01 1.67 <
1630 4 2 -7 -1 0.19 0.07 1.21 <
1631 4 2 7 1 12.74 7.12 2.69 <
1632 4 2 -7 1 12.65 7.54 2.45 o
1633 4 2 7 2 0.77 3.46 2.43 <
1634 4 2 -7 2 0.75 2.52 1.81 <
1635 4 2 7 3 3.98 0.64 1.61 <
1636 4 2 -7 3 4.05 -4.24 2.43 <
1637 4 2 8 -3 2.65 2.45 3.13 <
1638 4 2 -8 -3 2.95 3.91 3.18 <
1639 4 2 8 -2 1.87 0.07 2.03 <
1640 4 2 -8 -2 1.91 -0.51 1.77 <
1641 4 2 8 -1 18.22 5.98 3.96 <
1642 4 2 -8 -1 18.19 7.79 3.31 <
1643 4 2 8 1 2.78 0.68 1.66 <
1644 4 2 -8 1 2.52 3.60 2.20 <
1645 4 3 0 5 5.85 15.48 4.00 o
1646 4 3 1 5 1.18 2.98 2.44 <
1647 4 3 -1 5 1.16 -1.91 0.86 <
1648 4 3 -3 -7 2.11 11.83 6.71 <
1649 4 3 -4 -7 0.03 2.24 4.07 <
1650 4 3 4 -6 4.98 -1.80 3.30 <
1651 4 3 -4 -6 4.94 7.75 5.50 <
1652 4 3 4 -5 0.75 4.23 1.98 <
1653 4 3 -4 -5 0.79 3.58 3.62 <
1654 4 3 -4 -3 18.05 10.85 4.37 <
1655 4 3 -4 -2 18.88 5.30 2.77 <
1656 4 3 -4 -1 20.60 5.88 2.99 <
1657 4 3 -4 1 1.84 -1.18 1.41 <
1658 4 3 -4 2 2.68 -1.01 0.96 <
1659 4 3 -4 3 8.35 6.30 1.23 o
1660 4 3 5 -6 2.55 5.26 4.62 <
1661 4 3 -5 -6 2.65 2.76 3.70 <
1662 4 3 5 -5 5.38 5.42 4.99 <
1663 4 3 -5 -5 5.19 -0.33 3.24 <
1664 4 3 5 -3 0.59 -1.35 3.04 <
1665 4 3 -5 -3 0.65 -0.82 2.18 <
1666 4 3 5 -2 35.50 16.02 6.32 <
1667 4 3 -5 -2 34.96 15.12 5.58 <
1668 4 3 -5 -1 36.01 12.39 4.07 o
1669 4 3 -5 1 9.40 4.10 1.96 <
1670 4 3 -5 2 6.99 1.68 1.01 <
1671 4 3 -5 3 3.15 1.77 0.72 <
1672 4 3 6 -5 3.41 5.12 5.13 <
1673 4 3 -6 -5 3.39 1.65 3.80 <
1674 4 3 6 -3 23.64 2.58 2.93 <
1675 4 3 -6 -3 23.71 7.63 4.07 <
1676 4 3 6 -2 6.48 -1.13 3.08 <
1677 4 3 -6 -2 7.11 2.47 2.57 <
1678 4 3 6 -1 5.90 3.41 3.27 <
1679 4 3 -6 -1 5.32 1.31 1.94 <
1680 4 3 -6 1 0.55 -1.14 1.41 <
1681 4 3 -6 2 5.17 2.94 1.13 <
1682 4 3 7 -3 0.50 1.07 2.67 <
1683 4 3 -7 -3 0.50 0.53 2.43 <
1684 4 3 7 -2 4.21 -0.07 2.09 <
1685 4 3 -7 -2 4.08 0.81 2.07 <
1686 4 3 7 -1 6.03 3.18 3.81 <
1687 4 3 -7 -1 6.18 -0.27 1.31 <
1688 4 3 -7 1 15.16 10.33 2.64 o
1689 4 3 8 -2 2.06 1.33 2.31 <
1690 4 3 -8 -2 1.92 0.80 1.99 <
1691 4 3 8 -1 1.98 -2.33 2.71 <
1692 4 3 -8 -1 2.10 0.32 1.65 <
1693 4 4 -5 2 2.83 4.59 2.06 <
1694 4 4 -6 -5 3.77 8.78 5.70 <
1695 4 4 -6 -3 1.00 -1.20 3.35 <
1696 4 4 -6 -2 5.77 2.57 3.21 <
1697 4 4 -6 -1 1.65 1.34 2.27 <
1698 4 4 -6 1 5.75 -3.76 1.19 <
1699 4 4 7 -3 4.14 -0.58 3.62 <
1700 4 4 -7 -3 4.11 1.64 2.30 <
1701 4 4 -7 -2 0.06 0.08 1.50 <
1702 4 4 -7 -1 5.87 1.49 2.86 <
1703 5 0 2 1 4.75 0.39 0.48 <
1704 5 0 -2 1 4.51 0.96 0.71 <
1705 5 0 3 1 30.47 19.13 2.60 o
1706 5 0 -3 1 30.58 25.64 3.60 o
1707 5 0 3 2 298.77 352.15 13.53 o
1708 5 0 -3 2 298.56 381.73 17.95 o
1709 5 0 4 1 1.74 0.34 0.65 <
1710 5 0 -4 1 1.82 0.91 0.88 <
1711 5 0 4 2 17.71 18.34 3.17 o
1712 5 0 -4 2 17.95 27.63 4.70 o
1713 5 0 4 3 109.69 91.46 8.58 o
1714 5 0 5 1 86.37 91.82 8.16 o
1715 5 0 -5 1 86.42 97.62 6.86 o
1716 5 0 5 2 99.62 58.04 7.10 o
1717 5 0 -5 2 99.59 88.10 10.28 o
1718 5 0 5 3 0.47 1.71 1.32 <
1719 5 0 -5 3 0.47 3.27 2.87 <
1720 6 3 -5 -4 12.77 9.14 2.26 o
1720 5 0 5 4 12.77 9.14 2.26 o
1721 5 0 6 1 14.25 15.58 3.97 o
1722 5 0 -6 1 14.15 15.74 2.78 o
1723 5 0 6 2 26.51 14.45 3.90 o
1724 5 0 -6 2 26.41 20.66 5.47 o
1725 5 0 6 3 33.00 9.93 3.28 o
1726 5 0 -6 3 33.28 11.74 4.70 <
1727 6 3 -6 -4 2.62 2.43 1.71 <
1727 5 0 6 4 2.62 2.43 1.71 <
1728 5 0 7 1 67.82 72.99 9.68 o
1729 5 0 -7 1 67.72 77.70 7.21 o
1730 5 0 7 2 11.76 2.18 1.29 <
1731 5 0 -7 2 11.84 2.40 2.17 <
1732 5 0 7 3 9.19 2.20 1.78 <
1733 5 0 -7 3 9.20 4.90 4.03 <
1734 6 3 -7 -4 45.51 33.56 5.25 o
1734 5 0 7 4 45.51 33.56 5.25 o
1735 5 0 8 1 5.06 4.20 3.98 <
1736 5 0 -8 1 5.14 4.45 2.27 <
1737 5 0 8 2 9.33 2.47 2.00 <
1738 5 0 -8 2 9.37 4.92 3.33 <
1739 5 0 8 3 20.42 11.72 4.08 <
1740 5 0 -8 3 20.32 14.78 5.61 <
1741 5 1 1 -1 504.13 623.30 16.00 o
1742 5 1 -1 -1 504.63 640.22 16.22 o
1743 6 1 -1 0 986.15 767.74 10.90 o
1743 5 1 1 0 986.15 767.74 10.90 o
1744 6 1 1 0 986.10 777.04 10.77 o
1744 5 1 -1 0 986.10 777.04 10.77 o
1745 5 1 2 -2 560.53 679.18 22.64 o
1746 5 1 2 -1 10.52 4.10 1.46 <
1747 5 1 -2 -1 12.28 7.48 1.93 o
1748 6 1 -2 0 17.06 8.89 1.45 o
1748 5 1 2 0 17.06 8.89 1.45 o
1749 6 1 2 0 16.97 11.33 1.07 o
1749 5 1 -2 0 16.97 11.33 1.07 o
1750 5 1 2 1 1014.80 992.91 14.29 o
1750 4 -1 -2 -1 1014.80 992.91 14.29 o
1751 5 1 -2 1 1014.58 1139.80 29.32 o
1751 4 -1 2 -1 1014.58 1139.80 29.32 o
1752 5 1 3 -2 20.71 26.95 4.25 o
1753 5 1 -3 -2 21.26 29.82 4.78 o
1754 5 1 3 -1 101.96 92.18 6.98 o
1755 5 1 -3 -1 101.16 87.82 8.23 o
1756 6 1 -3 0 207.79 176.50 5.62 o
1756 5 1 3 0 207.79 176.50 5.62 o
1757 6 1 3 0 207.83 200.03 5.18 o
1757 5 1 -3 0 207.83 200.03 5.18 o
1758 5 1 3 1 36.59 38.14 3.45 o
1758 4 -1 -3 -1 36.59 38.14 3.45 o
1759 5 1 -3 1 36.49 47.57 3.69 o
1759 4 -1 3 -1 36.49 47.57 3.69 o
1760 5 1 3 2 203.14 172.33 8.60 o
1761 5 1 4 -3 21.51 19.72 4.55 o
1762 5 1 -4 -3 21.83 21.47 6.25 o
1763 5 1 4 -2 219.95 252.50 14.09 o
1764 5 1 -4 -2 218.38 282.02 17.12 o
1765 5 1 4 -1 27.84 27.65 4.05 o
1766 5 1 -4 -1 26.78 33.98 4.75 o
1767 6 1 -4 0 57.12 61.58 3.62 o
1767 5 1 4 0 57.12 61.58 3.62 o
1768 6 1 4 0 57.17 68.61 3.35 o
1768 5 1 -4 0 57.17 68.61 3.35 o
1769 5 1 4 1 464.37 511.40 14.70 o
1769 4 -1 -4 -1 464.37 511.40 14.70 o
1770 5 1 -4 1 464.86 566.53 14.80 o
1770 4 -1 4 -1 464.86 566.53 14.80 o
1771 5 1 4 2 27.36 22.74 2.98 o
1772 5 1 -4 2 26.94 26.70 4.86 o
1773 5 1 4 3 36.91 31.53 4.19 o
1774 6 -2 -5 4 38.76 28.70 4.91 o
1774 5 1 5 -4 38.76 28.70 4.91 o
1775 5 1 5 -3 72.29 66.66 9.01 o
1776 5 1 -5 -3 71.68 72.29 11.80 o
1777 5 1 5 -2 27.34 21.80 4.25 o
1778 5 1 -5 -2 26.85 25.84 5.87 o
1779 5 1 5 -1 56.38 60.97 7.51 o
1780 5 1 -5 -1 56.22 66.33 8.50 o
1781 6 1 -5 0 124.36 169.24 7.07 o
1781 5 1 5 0 124.36 169.24 7.07 o
1782 6 1 5 0 124.38 188.57 6.52 o
1782 5 1 -5 0 124.38 188.57 6.52 o
1783 5 1 5 1 51.54 65.96 5.77 o
1783 4 -1 -5 -1 51.54 65.96 5.77 o
1784 5 1 -5 1 51.63 68.48 5.28 o
1784 4 -1 5 -1 51.63 68.48 5.28 o
1785 5 1 5 2 77.67 58.27 5.62 o
1786 5 1 -5 2 78.27 96.55 9.87 o
1787 5 1 5 3 30.70 20.94 3.52 o
1788 6 4 -5 -4 7.57 2.18 1.00 <
1788 5 1 5 4 7.57 2.18 1.00 <
1789 6 -2 -6 4 24.55 17.11 3.86 o
1789 5 1 6 -4 24.55 17.11 3.86 o
1790 5 1 6 -3 14.27 5.36 2.61 <
1791 5 1 -6 -3 15.06 6.27 4.37 <
1792 5 1 6 -2 77.02 65.00 8.43 o
1793 5 1 -6 -2 78.13 64.27 10.64 o
1794 5 1 6 -1 18.61 12.48 4.29 <
1795 5 1 -6 -1 19.25 16.14 3.14 o
1796 6 1 -6 0 34.23 37.06 3.93 o
1796 5 1 6 0 34.23 37.06 3.93 o
1797 6 1 6 0 34.21 40.65 3.55 o
1797 5 1 -6 0 34.21 40.65 3.55 o
1798 5 1 6 1 154.61 166.97 10.59 o
1798 4 -1 -6 -1 154.61 166.97 10.59 o
1799 5 1 -6 1 154.32 194.44 10.45 o
1799 4 -1 6 -1 154.32 194.44 10.45 o
1800 5 1 6 2 13.73 12.52 2.67 o
1801 5 1 -6 2 12.92 19.64 4.63 o
1802 5 1 6 3 11.17 5.10 1.95 <
1803 6 4 -6 -4 22.37 16.08 2.82 o
1803 5 1 6 4 22.37 16.08 2.82 o
1804 6 -2 -7 4 9.67 3.90 2.17 <
1804 5 1 7 -4 9.67 3.90 2.17 <
1805 6 -2 7 4 9.68 3.50 2.94 <
1805 5 1 -7 -4 9.68 3.50 2.94 <
1806 5 1 7 -3 10.27 2.15 3.99 <
1807 5 1 -7 -3 10.35 2.17 2.23 <
1808 5 1 7 -2 0.63 -0.98 1.69 <
1809 5 1 -7 -2 0.56 0.09 1.36 <
1810 5 1 7 -1 66.11 78.29 10.40 o
1811 5 1 -7 -1 66.32 77.35 7.47 o
1812 6 1 -7 0 132.13 153.96 9.05 o
1812 5 1 7 0 132.13 153.96 9.05 o
1813 6 1 7 0 132.12 185.65 8.71 o
1813 5 1 -7 0 132.12 185.65 8.71 o
1814 5 1 7 1 1.49 1.54 1.53 <
1814 4 -1 -7 -1 1.49 1.54 1.53 <
1815 5 1 -7 1 1.50 -0.19 1.38 <
1815 4 -1 7 -1 1.50 -0.19 1.38 <
1816 5 1 7 2 12.56 4.73 2.11 <
1817 5 1 -7 2 12.60 6.80 3.56 <
1818 5 1 7 3 11.33 3.52 1.71 <
1819 5 1 -7 3 11.28 8.61 4.17 <
1820 5 1 8 -3 2.70 0.76 2.37 <
1821 5 1 -8 -3 2.49 2.33 2.45 <
1822 5 1 8 -2 23.58 8.05 4.99 <
1823 5 1 -8 -2 23.48 9.42 5.49 <
1824 5 1 8 -1 11.10 6.24 3.45 <
1825 5 1 -8 -1 10.74 6.95 2.47 <
1826 6 1 -8 0 20.89 15.73 3.29 o
1826 5 1 8 0 20.89 15.73 3.29 o
1827 6 1 8 0 20.90 25.91 3.44 o
1827 5 1 -8 0 20.90 25.91 3.44 o
1828 5 1 8 1 44.54 26.45 5.14 o
1828 4 -1 -8 -1 44.54 26.45 5.14 o
1829 5 1 -8 1 44.61 42.26 5.21 o
1829 4 -1 8 -1 44.61 42.26 5.21 o
1830 5 1 8 2 2.24 0.97 1.17 <
1831 5 1 -8 2 2.42 5.49 3.41 <
1832 6 2 0 0 1.21 2.52 0.93 <
1832 5 2 0 0 1.21 2.52 0.93 <
1833 5 2 0 1 0.08 0.88 0.73 <
1834 5 2 1 -1 465.27 387.22 14.69 o
1835 5 2 -1 -1 465.18 387.98 14.28 o
1836 6 2 -1 0 103.14 79.19 4.08 o
1836 5 2 1 0 103.14 79.19 4.08 o
1837 6 2 1 0 103.39 81.66 4.07 o
1837 5 2 -1 0 103.39 81.66 4.07 o
1838 5 2 -1 1 135.40 104.65 8.07 o
1839 5 2 2 -2 43.79 44.06 5.90 o
1840 5 2 -2 -2 45.31 43.68 6.32 o
1841 5 2 2 -1 308.60 353.39 14.40 o
1842 5 2 -2 -1 309.24 367.71 14.81 o
1843 6 2 -2 0 97.45 82.08 5.10 o
1843 5 2 2 0 97.45 82.08 5.10 o
1844 6 2 2 0 97.37 67.96 4.26 o
1844 5 2 -2 0 97.37 67.96 4.26 o
1845 5 2 2 1 103.17 64.71 8.76 o
1846 5 2 -2 1 98.66 94.72 7.95 o
1847 5 2 3 -2 234.12 276.26 15.60 o
1848 5 2 -3 -2 234.32 258.61 16.36 o
1849 5 2 3 -1 7.56 4.26 1.70 <
1850 5 2 -3 -1 7.55 5.22 1.98 <
1851 6 2 -3 0 470.54 541.08 14.68 o
1851 5 2 3 0 470.54 541.08 14.68 o
1852 6 2 3 0 470.52 465.89 7.83 o
1852 5 2 -3 0 470.52 465.89 7.83 o
1853 5 2 3 1 126.33 94.66 6.14 o
1854 5 2 -3 1 125.95 137.11 11.24 o
1855 5 2 3 2 10.33 7.18 1.30 o
1856 5 2 4 -3 51.88 63.39 8.60 o
1857 5 2 -4 -3 51.41 68.32 9.61 o
1858 5 2 4 -2 2.04 0.27 2.26 <
1859 5 2 -4 -2 1.57 1.28 1.10 <
1860 5 2 4 -1 277.90 270.73 14.76 o
1861 5 2 -4 -1 277.48 305.46 16.39 o
1862 6 2 -4 0 6.64 5.62 1.78 o
1862 5 2 4 0 6.64 5.62 1.78 o
1863 6 2 4 0 6.67 5.09 0.80 o
1863 5 2 -4 0 6.67 5.09 0.80 o
1864 5 2 4 1 60.36 56.85 4.95 o
1865 5 2 -4 1 61.15 85.47 5.58 o
1866 5 2 4 2 105.16 141.69 6.41 o
1867 5 2 4 3 0.11 0.32 0.77 <
1868 6 -1 -5 4 38.53 32.94 5.34 o
1868 5 2 5 -4 38.53 32.94 5.34 o
1869 5 2 5 -3 37.86 36.13 7.82 o
1870 5 2 -5 -3 38.32 34.36 8.82 o
1871 5 2 5 -2 71.63 57.61 7.60 o
1872 5 2 -5 -2 71.89 68.53 9.46 o
1873 5 2 5 -1 25.69 25.47 4.76 o
1874 5 2 -5 -1 25.70 32.13 5.64 o
1875 6 2 -5 0 153.04 138.91 9.75 o
1875 5 2 5 0 153.04 138.91 9.75 o
1876 6 2 5 0 153.02 149.48 5.60 o
1876 5 2 -5 0 153.02 149.48 5.60 o
1877 5 2 5 1 49.62 46.42 4.95 o
1878 5 2 -5 1 49.13 73.98 5.64 o
1879 5 2 5 2 11.60 16.82 2.42 o
1880 5 2 5 3 23.51 16.51 2.85 o
1881 6 5 -5 -4 6.55 2.43 1.00 <
1881 5 2 5 4 6.55 2.43 1.00 <
1882 6 -1 -6 4 25.45 12.88 4.11 o
1882 5 2 6 -4 25.45 12.88 4.11 o
1883 6 -1 6 4 24.99 13.51 5.30 <
1883 5 2 -6 -4 24.99 13.51 5.30 <
1884 5 2 6 -3 15.73 5.42 3.02 <
1885 5 2 -6 -3 14.67 9.55 5.51 <
1886 5 2 6 -2 9.07 6.73 3.51 <
1887 5 2 -6 -2 8.90 5.57 4.20 <
1888 5 2 6 -1 51.40 43.58 7.71 o
1889 5 2 -6 -1 51.56 38.64 7.37 o
1890 6 2 -6 0 20.49 34.26 5.09 o
1890 5 2 6 0 20.49 34.26 5.09 o
1891 6 2 6 0 20.50 30.86 2.76 o
1891 5 2 -6 0 20.50 30.86 2.76 o
1892 5 2 6 1 17.41 10.96 3.17 o
1893 5 2 -6 1 18.40 19.14 2.97 o
1894 5 2 6 2 21.23 33.56 4.10 o
1895 5 2 -6 2 21.85 40.82 6.55 o
1896 5 2 6 3 3.20 1.95 1.15 <
1897 6 -1 -7 4 9.25 2.97 1.58 <
1897 5 2 7 -4 9.25 2.97 1.58 <
1898 6 -1 7 4 9.25 5.19 3.14 <
1898 5 2 -7 -4 9.25 5.19 3.14 <
1899 5 2 7 -3 13.53 4.18 2.79 <
1900 5 2 -7 -3 13.63 9.15 4.85 <
1901 5 2 7 -2 12.67 5.31 3.18 <
1902 5 2 -7 -2 12.73 8.20 4.83 <
1903 5 2 7 -1 0.24 -0.58 1.91 <
1904 5 2 -7 -1 0.24 -0.08 1.60 <
1905 6 2 -7 0 31.24 20.63 4.91 o
1905 5 2 7 0 31.24 20.63 4.91 o
1906 6 2 7 0 31.23 33.30 3.13 o
1906 5 2 -7 0 31.23 33.30 3.13 o
1907 5 2 7 1 15.71 8.43 3.31 <
1908 5 2 -7 1 15.59 11.07 3.16 o
1909 5 2 7 2 0.94 2.49 1.82 <
1910 5 2 -7 2 0.92 2.52 2.43 <
1911 5 2 7 3 4.91 0.59 1.05 <
1912 5 2 8 -3 3.26 1.26 1.71 <
1913 5 2 -8 -3 3.63 4.63 3.57 <
1914 5 2 8 -2 2.30 0.78 3.20 <
1915 5 2 -8 -2 2.36 -0.77 1.72 <
1916 5 2 8 -1 22.46 14.42 5.62 <
1917 5 2 -8 -1 22.42 17.61 3.92 o
1918 6 2 -8 0 4.31 1.52 1.12 <
1918 5 2 8 0 4.31 1.52 1.12 <
1919 6 2 8 0 4.31 -0.43 0.93 <
1919 5 2 -8 0 4.31 -0.43 0.93 <
1920 5 2 8 1 3.42 1.92 2.23 <
1921 5 2 -8 1 3.11 1.23 1.38 <
1922 5 3 0 -1 0.49 2.82 1.32 <
1923 6 3 0 0 527.78 430.91 6.44 o
1923 5 3 0 0 527.78 430.91 6.44 o
1924 5 3 0 1 24.65 21.55 2.80 o
1925 5 3 1 -2 84.96 102.46 10.58 o
1926 5 3 1 -1 90.38 103.09 8.08 o
1927 5 3 -1 -1 87.75 98.81 7.65 o
1928 6 3 -1 0 1.04 3.14 1.15 <
1928 5 3 1 0 1.04 3.14 1.15 <
1929 6 3 1 0 1.04 2.22 0.55 o
1929 5 3 -1 0 1.04 2.22 0.55 o
1930 5 3 1 1 87.93 45.64 4.24 o
1931 5 3 -1 1 86.92 87.53 6.73 o
1932 5 3 -1 2 27.38 13.84 4.06 o
1933 5 3 2 -2 74.21 60.65 7.87 o
1934 5 3 -2 -2 71.04 43.78 7.25 o
1935 5 3 2 -1 80.71 55.68 6.12 o
1936 5 3 -2 -1 84.12 53.57 6.54 o
1937 6 3 -2 0 148.18 183.16 8.52 o
1937 5 3 2 0 148.18 183.16 8.52 o
1938 6 3 2 0 148.20 167.93 7.66 o
1938 5 3 -2 0 148.20 167.93 7.66 o
1939 5 3 2 1 0.55 -0.09 0.98 <
1940 5 3 -2 1 0.57 -0.09 0.73 <
1941 5 3 -2 2 17.92 16.09 4.34 o
1942 5 3 3 -3 18.67 12.98 4.62 <
1943 5 3 -3 -3 18.51 9.89 3.69 <
1944 5 3 3 -2 43.35 49.98 7.30 o
1945 5 3 -3 -2 43.98 50.76 7.60 o
1946 5 3 3 -1 47.05 49.88 6.28 o
1947 5 3 -3 -1 46.75 53.95 7.00 o
1948 6 3 -3 0 42.23 34.97 3.98 o
1948 5 3 3 0 42.23 34.97 3.98 o
1949 6 3 3 0 42.24 27.69 3.22 o
1949 5 3 -3 0 42.24 27.69 3.22 o
1950 5 3 3 1 9.09 4.97 2.55 <
1951 5 3 -3 1 8.13 6.24 2.86 <
1952 5 3 -3 2 30.41 25.44 5.62 o
1953 5 3 4 -3 22.34 19.64 5.61 o
1954 5 3 -4 -3 22.26 21.29 5.95 o
1955 5 3 4 -2 22.96 19.69 4.79 o
1956 5 3 -4 -2 23.28 18.63 4.96 o
1957 5 3 4 -1 25.94 19.01 4.46 o
1958 5 3 -4 -1 25.39 20.78 4.59 o
1959 6 3 -4 0 51.45 80.66 6.92 o
1959 5 3 4 0 51.45 80.66 6.92 o
1960 6 3 4 0 51.46 60.12 3.34 o
1960 5 3 -4 0 51.46 60.12 3.34 o
1961 5 3 4 1 2.34 3.08 2.19 <
1962 5 3 -4 1 2.27 1.06 1.11 <
1963 5 3 -4 2 3.30 4.22 2.89 <
1964 5 3 4 3 10.22 6.90 1.34 o
1965 6 0 -5 4 13.41 6.05 2.76 <
1965 5 3 5 -4 13.41 6.05 2.76 <
1966 6 0 5 4 12.73 4.69 3.09 <
1966 5 3 -5 -4 12.73 4.69 3.09 <
1967 5 3 5 -3 0.73 -0.65 1.88 <
1968 5 3 -5 -3 0.80 1.52 2.09 <
1969 5 3 5 -2 43.77 40.86 6.73 o
1970 5 3 -5 -2 43.10 42.45 7.89 o
1971 5 3 5 -1 43.97 52.58 8.06 o
1972 5 3 -5 -1 44.39 51.98 8.08 o
1973 6 3 -5 0 0.64 1.75 1.58 <
1973 5 3 5 0 0.64 1.75 1.58 <
1974 6 3 5 0 0.64 1.21 0.76 <
1974 5 3 -5 0 0.64 1.21 0.76 <
1975 5 3 5 1 10.79 8.26 4.29 <
1976 5 3 -5 1 11.59 11.67 2.54 o
1977 5 3 5 2 8.24 2.97 1.18 <
1978 5 3 5 3 4.09 1.84 0.76 <
1979 6 0 -6 4 2.49 0.71 0.75 <
1979 5 3 6 -4 2.49 0.71 0.75 <
1980 6 0 6 4 2.51 1.99 1.72 <
1980 5 3 -6 -4 2.51 1.99 1.72 <
1981 5 3 6 -3 29.14 22.40 6.55 o
1982 5 3 -6 -3 29.23 16.75 8.01 <
1983 5 3 6 -2 7.99 0.69 1.17 <
1984 5 3 -6 -2 8.77 1.10 1.70 <
1985 5 3 6 -1 7.27 6.27 3.38 <
1986 5 3 -6 -1 6.56 4.48 3.03 <
1987 6 3 -6 0 72.65 107.57 10.53 o
1987 5 3 6 0 72.65 107.57 10.53 o
1988 6 3 6 0 72.64 89.86 5.16 o
1988 5 3 -6 0 72.64 89.86 5.16 o
1989 5 3 6 1 0.66 -1.08 2.60 <
1990 5 3 -6 1 0.68 -0.83 1.33 <
1991 5 3 6 2 6.43 10.48 2.80 o
1992 6 0 -7 4 44.59 48.91 7.54 o
1992 5 3 7 -4 44.59 48.91 7.54 o
1993 6 0 7 4 44.61 55.93 10.08 o
1993 5 3 -7 -4 44.61 55.93 10.08 o
1994 5 3 7 -3 0.62 3.03 2.06 <
1995 5 3 -7 -3 0.62 -1.52 2.96 <
1996 5 3 7 -2 5.18 2.72 2.12 <
1997 5 3 -7 -2 5.03 5.71 3.61 <
1998 5 3 7 -1 7.44 2.74 2.69 <
1999 5 3 -7 -1 7.61 5.44 3.61 <
2000 6 3 -7 0 2.07 1.96 2.28 <
2000 5 3 7 0 2.07 1.96 2.28 <
2001 6 3 7 0 2.07 2.54 1.16 <
2001 5 3 -7 0 2.07 2.54 1.16 <
2002 5 3 7 1 18.76 14.36 7.42 <
2003 5 3 -7 1 18.69 24.42 4.56 o
2004 5 3 8 -2 2.54 5.91 4.83 <
2005 5 3 -8 -2 2.37 2.83 4.00 <
2006 5 3 8 -1 2.44 0.85 3.18 <
2007 5 3 -8 -1 2.59 3.39 2.14 <
2008 5 4 0 -1 0.14 -1.80 1.54 <
2009 6 4 0 0 106.01 99.98 3.58 o
2009 5 4 0 0 106.01 99.98 3.58 o
2010 5 4 0 1 64.23 68.04 5.33 o
2011 5 4 0 2 1.40 0.27 0.92 <
2012 5 4 1 -2 2.72 0.82 2.11 <
2013 5 4 1 -1 33.64 35.38 5.12 o
2014 5 4 -1 -1 33.32 27.93 3.25 o
2015 6 4 -1 0 125.61 128.23 6.80 o
2015 5 4 1 0 125.61 128.23 6.80 o
2016 6 4 1 0 125.63 99.57 3.70 o
2016 5 4 -1 0 125.63 99.57 3.70 o
2017 5 4 1 1 7.31 3.28 1.23 <
2018 5 4 -1 1 7.38 6.16 1.98 o
2019 5 4 1 2 4.33 65.43 6.19 o
2020 5 4 -1 2 4.17 4.00 1.98 <
2021 5 4 2 -2 66.78 65.17 9.28 o
2022 5 4 -2 -2 66.77 48.98 8.08 o
2023 5 4 2 -1 12.04 5.85 2.55 <
2024 5 4 -2 -1 12.60 4.77 2.20 <
2025 6 4 -2 0 3.96 8.48 1.91 o
2025 5 4 2 0 3.96 8.48 1.91 o
2026 6 4 2 0 3.94 8.57 2.05 o
2026 5 4 -2 0 3.94 8.57 2.05 o
2027 5 4 2 1 11.26 7.48 3.92 <
2028 5 4 -2 1 10.75 7.34 2.56 <
2029 5 4 2 2 0.53 0.04 0.27 <
2030 5 4 -2 2 0.53 3.00 2.14 <
2031 5 4 3 -3 13.53 8.47 4.19 <
2032 5 4 -3 -3 12.64 8.15 3.49 <
2033 5 4 3 -2 0.08 0.12 1.78 <
2034 5 4 -3 -2 0.08 0.59 1.56 <
2035 5 4 3 -1 12.85 14.78 3.87 o
2036 5 4 -3 -1 13.75 9.91 3.38 <
2037 6 4 -3 0 1.78 5.13 1.81 <
2037 5 4 3 0 1.78 5.13 1.81 <
2038 6 4 3 0 1.79 4.30 1.64 <
2038 5 4 -3 0 1.79 4.30 1.64 <
2039 5 4 3 1 1.60 -2.80 2.86 <
2040 5 4 -3 1 1.48 -0.52 1.15 <
2041 5 4 -3 2 5.74 3.10 2.11 <
2042 5 4 4 -3 0.79 -0.23 2.58 <
2043 5 4 -4 -3 0.93 -1.24 1.70 <
2044 5 4 4 -2 35.91 45.35 7.84 o
2045 5 4 -4 -2 35.90 36.05 7.34 o
2046 5 4 4 -1 0.45 -0.55 1.31 <
2047 5 4 -4 -1 0.34 0.57 1.10 <
2048 6 4 -4 0 0.40 1.93 1.58 <
2048 5 4 4 0 0.40 1.93 1.58 <
2049 6 4 4 0 0.40 -1.39 1.31 <
2049 5 4 -4 0 0.40 -1.39 1.31 <
2050 5 4 4 1 3.83 5.86 3.64 <
2051 5 4 -4 1 4.10 4.30 2.67 <
2052 5 4 -4 2 1.59 2.10 1.44 <
2053 6 1 -5 4 7.04 3.04 1.69 <
2053 5 4 5 -4 7.04 3.04 1.69 <
2054 6 1 5 4 7.35 6.20 3.04 <
2054 5 4 -5 -4 7.35 6.20 3.04 <
2055 5 4 5 -3 7.12 5.36 3.46 <
2056 5 4 -5 -3 7.67 4.45 3.84 <
2057 5 4 5 -2 0.52 1.60 2.14 <
2058 5 4 -5 -2 0.52 2.64 2.52 <
2059 5 4 5 -1 6.97 8.52 3.88 <
2060 5 4 -5 -1 6.40 8.84 4.29 <
2061 6 4 -5 0 7.51 13.47 3.66 o
2061 5 4 5 0 7.51 13.47 3.66 o
2062 6 4 5 0 7.50 7.86 1.62 o
2062 5 4 -5 0 7.50 7.86 1.62 o
2063 5 4 5 1 2.38 3.62 3.60 <
2064 5 4 -5 1 2.45 4.56 2.91 <
2065 5 4 -5 2 3.49 4.55 3.04 <
2066 6 1 -6 4 21.11 18.44 4.75 o
2066 5 4 6 -4 21.11 18.44 4.75 o
2067 6 1 6 4 21.44 15.81 5.22 o
2067 5 4 -6 -4 21.44 15.81 5.22 o
2068 5 4 6 -3 1.17 1.28 2.61 <
2069 5 4 -6 -3 1.23 0.25 1.92 <
2070 5 4 6 -2 7.10 9.14 4.56 <
2071 5 4 -6 -2 7.12 10.01 4.62 <
2072 5 4 6 -1 2.15 -0.31 1.57 <
2073 5 4 -6 -1 2.04 -2.14 3.04 <
2074 6 4 -6 0 7.80 9.08 3.56 <
2074 5 4 6 0 7.80 9.08 3.56 <
2075 6 4 6 0 7.80 9.54 1.77 o
2075 5 4 -6 0 7.80 9.54 1.77 o
2076 5 4 6 1 7.09 12.00 5.88 <
2077 5 4 -6 1 7.08 9.03 4.74 <
2078 5 4 7 -3 5.10 3.86 3.03 <
2079 5 4 -7 -3 5.06 4.59 3.87 <
2080 5 4 7 -2 0.07 -0.60 1.90 <
2081 5 4 -7 -2 0.07 0.61 3.54 <
2082 5 4 7 -1 7.17 6.40 5.46 <
2083 5 4 -7 -1 7.23 4.23 4.62 <
2084 5 5 0 -2 0.02 -0.03 1.29 <
2085 5 5 0 -1 11.61 4.74 1.74 <
2086 6 5 0 0 3.22 1.80 0.60 o
2086 5 5 0 0 3.22 1.80 0.60 o
2087 5 5 0 1 0.01 1.70 1.45 <
2088 5 5 0 2 0.09 1.45 1.38 <
2089 5 5 1 -2 1.70 1.56 1.93 <
2090 5 5 1 -1 2.00 0.92 1.22 <
2091 5 5 -1 -1 1.98 0.94 0.84 <
2092 6 5 -1 0 9.74 17.45 2.89 o
2092 5 5 1 0 9.74 17.45 2.89 o
2093 6 5 1 0 9.76 49.61 3.55 o
2093 5 5 -1 0 9.76 49.61 3.55 o
2094 5 5 1 1 2.62 3.95 1.60 <
2095 5 5 -1 1 2.67 4.42 2.12 <
2096 5 5 1 2 3.09 0.14 0.82 <
2097 5 5 -1 2 2.99 1.98 1.62 <
2098 5 5 2 -3 2.02 0.47 2.68 <
2099 5 5 2 -2 2.48 5.45 3.25 <
2100 5 5 -2 -2 2.29 2.85 2.37 <
2101 5 5 2 -1 12.59 10.16 3.35 o
2102 5 5 -2 -1 13.10 7.57 1.82 o
2103 6 5 -2 0 0.24 3.18 1.52 <
2103 5 5 2 0 0.24 3.18 1.52 <
2104 6 5 2 0 0.24 1.19 0.69 <
2104 5 5 -2 0 0.24 1.19 0.69 <
2105 5 5 2 1 2.32 -0.41 1.63 <
2106 5 5 -2 1 2.16 6.53 2.85 <
2107 5 5 2 2 1.47 -0.16 0.29 <
2108 5 5 -2 2 1.55 1.40 1.37 <
2109 5 5 3 -3 17.30 8.51 5.04 <
2110 5 5 -3 -3 16.94 10.20 4.47 <
2111 5 5 3 -2 20.88 9.41 4.12 <
2112 5 5 -3 -2 21.21 16.34 5.17 o
2113 5 5 3 -1 0.02 1.46 1.66 <
2114 5 5 -3 -1 0.02 0.18 1.29 <
2115 6 5 -3 0 3.40 8.83 2.36 o
2115 5 5 3 0 3.40 8.83 2.36 o
2116 6 5 3 0 3.39 7.49 2.26 o
2116 5 5 -3 0 3.39 7.49 2.26 o
2117 5 5 3 1 2.20 1.20 2.45 <
2118 5 5 -3 1 2.22 4.62 2.57 <
2119 5 5 -3 2 0.96 2.74 2.44 <
2120 6 2 -4 4 20.09 24.75 5.87 o
2120 5 5 4 -4 20.09 24.75 5.87 o
2121 5 5 4 -3 1.26 0.08 1.70 <
2122 5 5 -4 -3 1.29 -1.42 2.23 <
2123 5 5 4 -2 0.69 0.66 1.35 <
2124 5 5 -4 -2 0.65 -1.07 1.71 <
2125 5 5 4 -1 5.92 5.28 2.63 <
2126 5 5 -4 -1 5.69 5.22 3.55 <
2127 6 5 -4 0 0.55 0.05 1.08 <
2127 5 5 4 0 0.55 0.05 1.08 <
2128 6 5 4 0 0.55 -3.40 1.87 <
2128 5 5 -4 0 0.55 -3.40 1.87 <
2129 5 5 4 1 4.31 7.04 4.24 <
2130 5 5 -4 1 4.37 3.33 2.50 <
2131 6 2 -5 4 6.38 5.14 3.06 <
2131 5 5 5 -4 6.38 5.14 3.06 <
2132 6 2 5 4 6.19 7.08 3.50 <
2132 5 5 -5 -4 6.19 7.08 3.50 <
2133 5 5 5 -3 6.78 5.63 3.32 <
2134 5 5 -5 -3 7.07 3.23 2.98 <
2135 5 5 5 -2 5.83 4.17 2.94 <
2136 5 5 -5 -2 5.55 5.47 4.39 <
2137 5 5 5 -1 0.09 1.85 2.28 <
2138 5 5 -5 -1 0.09 1.03 2.47 <
2139 6 5 -5 0 4.41 12.38 4.40 <
2139 5 5 5 0 4.41 12.38 4.40 <
2140 6 5 5 0 4.41 3.77 2.08 <
2140 5 5 -5 0 4.41 3.77 2.08 <
2141 5 5 6 -3 1.25 0.06 2.49 <
2142 5 5 -6 -3 1.14 1.54 2.24 <
2143 5 5 6 -2 1.41 -1.30 2.68 <
2144 5 5 -6 -2 1.52 -1.92 3.25 <
2145 5 5 6 -1 3.22 2.94 2.85 <
2146 5 5 -6 -1 3.21 4.03 3.50 <
2147 5 6 0 -2 0.47 -2.01 2.42 <
2148 5 6 0 -1 0.06 1.83 1.78 <
2149 6 6 0 0 0.05 0.72 0.67 <
2149 5 6 0 0 0.05 0.72 0.67 <
2150 5 6 1 -3 0.38 5.63 4.21 <
2151 5 6 1 -2 0.90 -1.61 1.35 <
2152 5 6 -1 -2 0.87 3.96 2.44 <
2153 5 6 1 -1 1.18 0.66 1.49 <
2154 5 6 -1 -1 1.12 -1.17 1.05 <
2155 6 6 -1 0 2.03 0.08 0.71 <
2155 5 6 1 0 2.03 0.08 0.71 <
2156 6 6 1 0 2.04 1.15 0.59 <
2156 5 6 -1 0 2.04 1.15 0.59 <
2157 5 6 2 -3 1.16 -1.79 3.47 <
2158 5 6 2 -2 0.32 -0.71 1.51 <
2159 5 6 -2 -2 0.29 -2.00 2.19 <
2160 5 6 2 -1 2.42 1.97 1.83 <
2161 5 6 -2 -1 2.53 0.11 1.14 <
2162 6 6 -2 0 4.00 7.16 2.79 <
2162 5 6 2 0 4.00 7.16 2.79 <
2163 6 6 2 0 4.00 6.63 1.40 o
2163 5 6 -2 0 4.00 6.63 1.40 o
2164 5 6 3 -3 0.17 -0.50 1.85 <
2165 5 6 -3 -3 0.17 4.05 2.91 <
2166 5 6 3 -2 0.70 1.01 2.12 <
2167 5 6 -3 -2 0.76 0.54 1.77 <
2168 5 6 3 -1 1.63 3.50 2.19 <
2169 5 6 -3 -1 1.57 0.71 1.62 <
2170 6 3 -4 4 1.48 3.45 2.09 <
2170 5 6 4 -4 1.48 3.45 2.09 <
2171 5 6 4 -3 4.03 2.00 3.31 <
2172 5 6 -4 -3 4.04 1.46 2.75 <
2173 5 6 4 -2 2.10 0.32 2.26 <
2174 5 6 -4 -2 2.09 3.59 2.91 <
2175 6 0 1 1 670.68 767.49 20.39 o
2176 6 0 -1 1 671.19 751.91 20.15 o
2177 6 0 2 1 4.47 0.48 0.50 <
2178 6 0 -2 1 4.25 0.54 0.62 <
2179 6 0 2 2 202.08 183.34 15.12 o
2180 6 0 -2 2 201.75 185.43 14.37 o
2181 6 0 3 1 28.67 14.12 3.86 o
2182 6 0 -3 1 28.76 14.82 3.11 o
2183 6 0 3 2 281.06 347.68 20.51 o
2184 6 0 -3 2 280.86 292.20 17.64 o
2185 6 0 -3 3 9.94 5.40 3.46 <
2186 6 0 4 1 1.64 0.44 0.97 <
2187 6 0 -4 1 1.72 -0.07 0.40 <
2188 6 0 4 2 16.66 14.35 3.63 o
2189 6 0 -4 2 16.88 16.20 4.05 o
2190 6 0 4 3 103.19 106.67 14.39 o
2191 6 0 -4 3 102.85 90.42 11.86 o
2192 6 0 5 1 81.25 91.29 11.60 o
2193 6 0 -5 1 81.30 83.19 9.60 o
2194 6 0 5 2 93.72 75.77 11.70 o
2195 6 0 -5 2 93.69 63.44 8.64 o
2196 6 0 5 3 0.44 1.60 2.98 <
2197 6 0 -5 3 0.45 0.68 1.17 <
2198 6 0 6 1 13.41 15.94 3.76 o
2199 6 0 -6 1 13.31 16.58 4.71 o
2200 6 0 6 2 24.94 17.91 6.90 <
2201 6 0 -6 2 24.84 15.76 4.66 o
2202 6 0 6 3 31.05 10.61 5.73 <
2203 6 0 -6 3 31.30 9.52 4.68 <
2204 6 0 7 1 63.80 67.98 8.25 o
2205 6 0 -7 1 63.71 65.71 10.40 o
2206 6 0 7 2 11.07 1.29 0.59 <
2207 6 0 -7 2 11.14 1.66 1.51 <
2208 6 0 7 3 8.65 4.58 5.02 <
2209 6 0 -7 3 8.65 4.90 3.58 <
2210 6 0 8 1 4.76 2.46 1.76 <
2211 6 0 -8 1 4.83 4.05 3.23 <
2212 6 0 8 2 8.78 0.90 0.54 <
2213 6 0 -8 2 8.81 2.58 1.94 <
2214 6 0 8 3 19.21 19.59 8.75 <
2215 6 0 -8 3 19.11 11.34 5.29 <
2216 6 1 1 1 441.01 467.60 17.50 o
2216 1 -1 -1 -1 441.01 467.60 17.50 o
2217 6 1 -1 1 441.18 495.68 18.85 o
2217 1 -1 1 -1 441.18 495.68 18.85 o
2218 6 1 2 -1 9.90 4.41 1.70 <
2219 6 1 -2 -1 11.55 4.63 1.49 o
2220 6 1 2 1 1096.41 1200.26 30.97 o
2220 1 -1 -2 -1 1096.41 1200.26 30.97 o
2221 6 1 -2 1 1096.49 1256.31 32.00 o
2221 1 -1 2 -1 1096.49 1256.31 32.00 o
2222 6 1 2 2 128.53 133.70 12.67 o
2223 6 1 -2 2 131.76 148.54 13.72 o
2224 6 1 3 -2 19.48 16.79 5.46 o
2225 6 1 -3 -2 20.00 12.55 3.72 o
2226 6 1 3 -1 95.92 89.78 8.42 o
2227 6 1 -3 -1 95.16 61.96 5.63 o
2228 6 1 3 1 39.47 47.91 6.60 o
2228 1 -1 -3 -1 39.47 47.91 6.60 o
2229 6 1 -3 1 39.51 42.78 5.84 o
2229 1 -1 3 -1 39.51 42.78 5.84 o
2230 6 1 3 2 191.10 205.42 16.34 o
2231 6 1 -3 2 191.07 195.28 16.16 o
2232 6 1 3 3 46.57 38.85 8.46 o
2233 6 1 -3 3 48.15 51.35 10.12 o
2234 6 1 4 -3 20.24 16.55 6.11 <
2235 6 1 -4 -3 20.53 21.02 5.36 o
2236 6 1 4 -2 206.91 250.24 19.48 o
2237 6 1 -4 -2 205.43 185.38 14.09 o
2238 6 1 4 -1 26.19 28.76 3.91 o
2239 6 1 -4 -1 25.19 28.14 3.86 o
2240 6 1 4 1 502.15 567.39 26.00 o
2240 1 -1 -4 -1 502.15 567.39 26.00 o
2241 6 1 -4 1 501.95 540.62 23.20 o
2241 1 -1 4 -1 501.95 540.62 23.20 o
2242 6 1 4 2 25.74 26.95 6.34 o
2243 6 1 -4 2 25.35 21.74 4.96 o
2244 6 1 4 3 34.72 37.06 8.34 o
2245 6 1 -4 3 34.13 36.71 8.55 o
2246 6 1 5 -3 68.01 67.67 12.77 o
2247 6 1 -5 -3 67.43 56.48 8.90 o
2248 6 1 5 -2 25.72 21.23 6.50 o
2249 6 1 -5 -2 25.26 15.05 4.10 o
2250 6 1 5 -1 53.04 73.05 7.14 o
2251 6 1 -5 -1 52.89 56.10 7.58 o
2252 6 1 5 1 55.76 65.57 9.35 o
2252 1 -1 -5 -1 55.76 65.57 9.35 o
2253 6 1 -5 1 55.72 64.78 8.46 o
2253 1 -1 5 -1 55.72 64.78 8.46 o
2254 6 1 5 2 73.07 76.16 11.20 o
2255 6 1 -5 2 73.63 70.14 9.61 o
2256 6 1 5 3 28.88 29.56 7.92 o
2257 6 1 -5 3 27.98 28.33 7.05 o
2258 6 1 6 -3 13.43 6.03 4.31 <
2259 6 1 -6 -3 14.17 5.73 3.57 <
2260 6 1 6 -2 72.46 64.55 11.46 o
2261 6 1 -6 -2 73.50 52.10 8.25 o
2262 6 1 6 -1 17.51 17.17 3.54 o
2263 6 1 -6 -1 18.11 12.96 3.90 o
2264 6 1 6 1 166.85 201.61 18.85 o
2264 1 -1 -6 -1 166.85 201.61 18.85 o
2265 6 1 -6 1 166.97 187.99 17.08 o
2265 1 -1 6 -1 166.97 187.99 17.08 o
2266 6 1 6 2 12.91 8.47 5.65 <
2267 6 1 -6 2 12.15 8.22 4.17 <
2268 6 1 6 3 10.50 9.29 4.63 <
2269 6 1 -6 3 10.71 3.20 3.39 <
2270 6 1 7 -3 9.66 4.25 4.50 <
2271 6 1 -7 -3 9.74 1.57 1.35 <
2272 6 1 7 -2 0.59 -0.99 0.82 <
2273 6 1 -7 -2 0.53 1.39 2.11 <
2274 6 1 7 -1 62.19 81.59 8.84 o
2275 6 1 -7 -1 62.39 84.75 11.65 o
2276 6 1 7 1 1.62 1.04 0.82 <
2276 1 -1 -7 -1 1.62 1.04 0.82 <
2277 6 1 -7 1 1.61 0.70 1.72 <
2277 1 -1 7 -1 1.61 0.70 1.72 <
2278 6 1 7 2 11.82 7.59 5.31 <
2279 6 1 -7 2 11.85 1.77 2.23 <
2280 6 1 7 3 10.66 8.12 5.02 <
2281 6 1 -7 3 10.61 5.73 3.83 <
2282 6 1 8 -3 2.54 2.03 3.34 <
2283 6 1 -8 -3 2.34 0.55 1.62 <
2284 6 1 8 -2 22.18 9.16 6.30 <
2285 6 1 -8 -2 22.09 9.04 4.85 <
2286 6 1 8 -1 10.44 9.26 2.96 o
2287 6 1 -8 -1 10.10 5.97 3.40 <
2288 6 1 8 1 48.19 36.94 6.78 o
2288 1 -1 -8 -1 48.19 36.94 6.78 o
2289 6 1 -8 1 48.16 41.23 9.84 o
2289 1 -1 8 -1 48.16 41.23 9.84 o
2290 6 1 8 2 2.10 2.71 3.54 <
2291 6 1 -8 2 2.28 4.67 3.60 <
2292 6 2 0 1 0.07 -0.29 0.80 <
2293 6 2 1 1 122.41 124.49 9.78 o
2294 6 2 -1 1 127.37 145.63 11.35 o
2295 6 2 -1 2 21.03 41.17 8.31 o
2296 6 2 2 -1 290.30 353.04 20.12 o
2297 6 2 -2 -1 290.91 255.21 18.42 o
2298 6 2 2 1 97.06 94.60 9.52 o
2299 6 2 -2 1 92.81 96.03 9.48 o
2300 6 2 2 2 63.87 110.66 12.83 o
2301 6 2 -2 2 63.86 128.06 14.94 o
2302 6 2 -3 -2 220.43 214.27 11.56 o
2303 6 2 3 -1 7.11 4.78 1.49 o
2304 6 2 -3 -1 7.10 5.25 1.66 o
2305 6 2 3 1 118.84 137.37 12.82 o
2306 6 2 -3 1 118.48 128.55 11.29 o
2307 6 2 3 2 9.72 12.40 4.35 <
2308 6 2 -3 2 9.61 11.93 4.70 <
2309 6 2 3 3 33.26 28.13 7.77 o
2310 6 2 -3 3 33.85 31.29 8.65 o
2311 6 2 -4 -3 48.36 39.54 7.37 o
2312 6 2 4 -2 1.92 2.62 2.16 <
2313 6 2 -4 -2 1.48 2.37 1.39 <
2314 6 2 4 -1 261.42 288.22 12.38 o
2315 6 2 -4 -1 261.03 263.80 12.77 o
2316 6 2 4 1 56.78 66.67 9.36 o
2317 6 2 -4 1 57.53 67.51 8.87 o
2318 6 2 4 2 98.92 220.76 20.01 o
2319 6 2 -4 2 98.16 242.09 20.12 o
2320 6 2 4 3 0.10 -0.08 1.01 <
2321 6 2 -4 3 0.13 -0.17 1.93 <
2322 6 2 5 -3 35.61 35.82 10.04 o
2323 6 2 -5 -3 36.05 23.09 6.27 o
2324 6 2 5 -2 67.39 65.67 10.42 o
2325 6 2 -5 -2 67.63 40.36 5.54 o
2326 6 2 5 -1 24.16 32.88 4.51 o
2327 6 2 -5 -1 24.18 28.47 4.42 o
2328 6 2 5 1 46.67 58.89 9.73 o
2329 6 2 -5 1 46.22 57.90 8.85 o
2330 6 2 5 2 10.91 13.71 5.55 <
2331 6 2 -5 2 11.10 22.91 5.72 o
2332 6 2 5 3 22.11 17.34 6.77 <
2333 6 2 -5 3 21.54 22.90 7.38 o
2334 6 2 6 -3 14.80 7.53 5.05 <
2335 6 2 -6 -3 13.80 4.85 2.61 <
2336 6 2 6 -2 8.54 7.68 4.15 <
2337 6 2 -6 -2 8.37 6.47 2.80 <
2338 6 2 6 -1 48.35 58.01 6.37 o
2339 6 2 -6 -1 48.51 45.32 6.15 o
2340 6 2 6 1 16.38 13.87 5.34 <
2341 6 2 -6 1 17.31 19.45 5.80 o
2342 6 2 6 2 19.97 53.35 11.26 o
2343 6 2 -6 2 20.55 61.36 10.82 o
2344 6 2 6 3 3.01 2.28 2.21 <
2345 6 2 -6 3 3.13 4.45 2.84 <
2346 6 2 7 -3 12.73 5.93 5.51 <
2347 6 2 -7 -3 12.82 4.03 2.76 <
2348 6 2 7 -2 11.92 8.09 4.17 <
2349 6 2 -7 -2 11.98 4.82 2.44 <
2350 6 2 7 -1 0.22 -1.16 1.32 <
2351 6 2 -7 -1 0.22 0.53 2.02 <
2352 6 2 7 1 14.78 7.04 4.96 <
2353 6 2 -7 1 14.67 7.83 4.38 <
2354 6 2 7 2 0.89 -1.05 2.56 <
2355 6 2 -7 2 0.87 0.02 1.52 <
2356 6 2 7 3 4.62 0.94 1.62 <
2357 6 2 -7 3 4.70 2.86 3.18 <
2358 6 2 8 -3 3.07 1.54 3.40 <
2359 6 2 -8 -3 3.42 0.19 1.30 <
2360 6 2 8 -2 2.17 1.87 1.65 <
2361 6 2 -8 -2 2.22 0.73 1.37 <
2362 6 2 8 -1 21.13 22.41 4.87 o
2363 6 2 -8 -1 21.09 13.57 4.20 o
2364 6 2 8 1 3.22 0.79 1.32 <
2365 6 2 -8 1 2.92 8.34 4.89 <
2366 6 3 0 -1 0.46 1.81 1.00 <
2367 6 3 0 1 23.18 20.19 4.32 o
2368 6 3 0 2 22.21 30.97 8.46 o
2369 6 3 1 -1 85.02 81.05 7.54 o
2370 6 3 -1 -1 82.55 60.39 8.76 o
2371 6 3 1 1 82.71 81.78 6.55 o
2372 6 3 -1 1 81.76 95.89 9.97 o
2373 6 3 -1 2 25.75 31.11 7.46 o
2374 6 3 2 -1 75.93 52.95 7.03 o
2375 6 3 -2 -1 79.13 57.35 9.16 o
2376 6 3 2 1 0.52 0.33 1.11 <
2377 6 3 -2 1 0.53 0.08 0.40 <
2378 6 3 2 2 16.60 11.63 4.42 <
2379 6 3 -2 2 16.86 15.46 5.08 o
2380 6 3 -2 3 25.42 59.88 13.57 o
2381 6 3 -3 -2 41.37 34.62 3.83 o
2382 6 3 3 -1 44.26 56.23 8.23 o
2383 6 3 -3 -1 43.98 52.48 9.56 o
2384 6 3 3 1 8.55 6.40 2.81 <
2385 6 3 -3 1 7.65 8.60 3.44 <
2386 6 3 3 2 29.02 24.26 6.41 o
2387 6 3 -3 2 28.61 25.83 6.58 o
2388 6 3 3 3 4.92 4.82 3.43 <
2389 6 3 -3 3 5.15 0.95 2.43 <
2390 6 3 -4 -3 20.94 15.81 3.80 o
2391 6 3 -4 -2 21.90 13.90 2.26 o
2392 6 3 4 -1 24.41 25.48 3.75 o
2393 6 3 -4 -1 23.89 18.47 3.62 o
2394 6 3 4 1 2.21 -0.29 1.63 <
2395 6 3 -4 1 2.13 1.72 1.21 <
2396 6 3 4 2 3.15 5.33 3.60 <
2397 6 3 -4 2 3.10 4.29 2.93 <
2398 6 3 4 3 9.62 17.07 6.28 <
2399 6 3 -4 3 9.69 17.17 7.31 <
2400 6 3 -5 -3 0.75 0.42 0.42 <
2401 6 3 5 -2 41.17 54.29 9.88 o
2402 6 3 -5 -2 40.55 28.99 4.41 o
2403 6 3 5 -1 41.36 51.44 5.82 o
2404 6 3 -5 -1 41.76 45.99 6.37 o
2405 6 3 5 1 10.15 9.09 4.25 <
2406 6 3 -5 1 10.91 12.30 4.53 <
2407 6 3 5 2 7.75 5.87 4.48 <
2408 6 3 -5 2 8.10 8.53 3.91 <
2409 6 3 5 3 3.85 6.84 4.39 <
2410 6 3 -5 3 3.65 6.45 3.92 <
2411 6 3 6 -3 27.41 29.72 9.45 o
2412 6 3 -6 -3 27.50 22.79 4.42 o
2413 6 3 6 -2 7.52 3.70 2.46 <
2414 6 3 -6 -2 8.25 3.48 1.78 <
2415 6 3 6 -1 6.84 3.39 1.76 <
2416 6 3 -6 -1 6.17 4.29 1.96 <
2417 6 3 6 1 0.62 2.00 2.14 <
2418 6 3 -6 1 0.64 1.58 2.29 <
2419 6 3 6 2 6.04 4.93 3.16 <
2420 6 3 -6 2 6.00 8.17 3.79 <
2421 6 3 7 -3 0.58 -5.36 4.52 <
2422 6 3 -7 -3 0.58 1.42 1.46 <
2423 6 3 7 -2 4.88 5.58 4.08 <
2424 6 3 -7 -2 4.73 2.84 1.37 <
2425 6 3 7 -1 7.00 19.87 6.50 o
2426 6 3 -7 -1 7.16 21.18 9.55 <
2427 6 3 7 1 17.65 13.07 5.39 <
2428 6 3 -7 1 17.58 27.88 7.37 o
2429 6 3 8 -2 2.39 4.65 3.02 <
2430 6 3 -8 -2 2.23 4.05 2.54 <
2431 6 3 8 -1 2.29 1.61 1.07 <
2432 6 3 -8 -1 2.43 2.63 1.49 <
2433 6 4 0 -1 0.13 0.82 0.78 <
2434 6 4 0 1 60.43 61.70 8.37 o
2435 6 4 0 2 1.32 -1.68 3.35 <
2436 6 4 1 -1 31.65 28.39 4.41 o
2437 6 4 -1 -1 31.34 19.53 3.12 o
2438 6 4 1 1 6.88 2.19 1.02 <
2439 6 4 -1 1 6.94 2.22 1.12 <
2440 6 4 1 2 4.08 4.86 3.41 <
2441 6 4 -1 2 3.92 6.29 2.60 <
2442 6 4 -1 3 1.97 2.21 3.05 <
2443 6 4 2 -1 11.32 4.17 2.07 <
2444 6 4 -2 -1 11.85 4.88 2.98 <
2445 6 4 2 1 10.60 6.12 2.02 o
2446 6 4 -2 1 10.11 7.83 3.46 <
2447 6 4 2 2 0.50 4.51 4.22 <
2448 6 4 -2 2 0.49 -5.38 8.26 <
2449 6 4 -2 3 3.49 -0.19 2.52 <
2450 6 4 -3 -2 0.08 0.10 0.23 <
2451 6 4 3 -1 12.09 14.06 4.01 o
2452 6 4 -3 -1 12.94 15.69 5.58 <
2453 6 4 3 1 1.50 0.55 0.91 <
2454 6 4 -3 1 1.40 3.93 2.55 <
2455 6 4 3 2 5.37 -0.13 1.62 <
2456 6 4 -3 2 5.40 3.50 2.79 <
2457 6 4 3 3 3.27 2.33 2.72 <
2458 6 4 -3 3 3.29 7.09 5.45 <
2459 6 4 -4 -3 0.88 0.71 0.45 <
2460 6 4 -4 -2 33.77 24.53 2.53 o
2461 6 4 4 -1 0.42 0.76 1.74 <
2462 6 4 -4 -1 0.32 1.59 1.90 <
2463 6 4 4 1 3.60 32.70 8.78 o
2464 6 4 -4 1 3.86 3.76 3.03 <
2465 6 4 4 2 1.47 4.35 3.35 <
2466 6 4 -4 2 1.49 1.12 2.70 <
2467 6 4 4 3 1.36 2.51 1.96 <
2468 6 4 -4 3 1.29 3.45 3.14 <
2469 6 4 -5 -3 7.22 4.09 1.64 <
2470 6 4 -5 -2 0.49 -0.13 0.29 <
2471 6 4 5 -1 6.55 11.12 2.90 o
2472 6 4 -5 -1 6.02 7.62 5.35 <
2473 6 4 5 1 2.24 5.25 3.60 <
2474 6 4 -5 1 2.30 3.00 3.19 <
2475 6 4 5 2 3.28 9.20 5.06 <
2476 6 4 -5 2 3.28 7.27 4.80 <
2477 6 4 -6 -3 1.16 0.09 0.72 <
2478 6 4 6 -2 6.68 13.93 5.17 <
2479 6 4 -6 -2 6.69 6.75 2.34 <
2480 6 4 6 -1 2.02 3.10 1.76 <
2481 6 4 -6 -1 1.92 2.01 3.06 <
2482 6 4 6 1 6.67 11.07 5.22 <
2483 6 4 -6 1 6.66 15.67 6.74 <
2484 6 4 -7 -3 4.76 3.94 1.74 <
2485 6 4 7 -2 0.07 1.98 2.52 <
2486 6 4 -7 -2 0.07 0.48 0.87 <
2487 6 4 7 -1 6.74 8.23 3.25 <
2488 6 4 -7 -1 6.80 10.44 6.30 <
2489 6 5 0 -2 0.02 -0.11 0.21 <
2490 6 5 0 -1 10.93 9.06 2.46 o
2491 6 5 0 1 0.01 2.41 2.11 <
2492 6 5 0 2 0.09 0.36 1.81 <
2493 6 5 1 -2 1.60 0.90 0.97 <
2494 6 5 -1 -2 1.88 1.25 0.94 <
2495 6 5 1 -1 1.88 0.25 0.19 <
2496 6 5 -1 -1 1.86 -0.33 0.71 <
2497 6 5 1 1 2.47 3.63 1.41 <
2498 6 5 -1 1 2.51 4.18 2.78 <
2499 6 5 1 2 2.91 3.69 2.66 <
2500 6 5 -1 2 2.81 -0.01 0.79 <
2501 6 5 2 -2 2.33 1.22 1.73 <
2502 6 5 -2 -2 2.15 0.84 0.48 <
2503 6 5 2 -1 11.85 8.96 3.05 <
2504 6 5 -2 -1 12.33 9.68 5.03 <
2505 6 5 2 1 2.18 1.96 1.10 <
2506 6 5 -2 1 2.04 0.97 1.65 <
2507 6 5 2 2 1.38 -0.64 0.79 <
2508 6 5 -2 2 1.45 2.14 1.07 <
2509 6 5 3 -2 19.64 14.20 5.06 <
2510 6 5 3 -1 0.02 2.24 1.48 <
2511 6 5 -3 -1 0.02 5.46 4.18 <
2512 6 5 3 1 2.07 2.72 1.28 <
2513 6 5 -3 1 2.09 5.09 4.16 <
2514 6 5 -4 -3 1.22 0.69 0.51 <
2515 6 5 4 -2 0.65 12.27 9.73 <
2516 6 5 4 -1 5.57 9.43 3.80 <
2517 6 5 -4 -1 5.35 13.64 5.61 <
2518 6 5 4 1 4.05 4.52 3.07 <
2519 6 5 -4 1 4.11 7.93 4.52 <
2520 6 5 -5 -3 6.65 2.34 0.84 <
2521 6 5 5 -2 5.49 6.10 3.15 <
2522 6 5 5 -1 0.09 1.53 1.22 <
2523 6 5 -5 -1 0.09 2.43 2.58 <
2524 6 5 -6 -3 1.07 1.22 0.68 <
2525 6 5 6 -2 1.32 2.72 3.28 <
2526 6 5 6 -1 3.03 2.78 3.43 <
2527 6 5 -6 -1 3.02 5.29 4.75 <
2528 6 6 0 -2 0.44 0.25 0.32 <
2529 6 6 0 -1 0.05 -0.81 0.84 <
2530 6 6 1 -2 0.85 -1.53 1.28 <
2531 6 6 -1 -2 0.81 1.03 0.81 <
2532 6 6 1 -1 1.11 -0.23 1.23 <
2533 6 6 -1 -1 1.05 1.48 1.51 <
2534 6 6 2 -2 0.30 -2.03 1.69 <
2535 6 6 -2 -2 0.28 -0.25 0.15 <
2536 6 6 2 -1 2.28 3.94 2.37 <
2537 6 6 -2 -1 2.38 -1.59 1.15 <
2538 6 6 3 -2 0.66 1.41 0.53 <
2539 6 6 3 -1 1.53 1.62 1.65 <
2540 6 6 -3 -1 1.48 -1.44 2.55 <
2541 6 6 4 -2 1.97 1.79 2.02 <
2542 6 7 0 -3 0.37 9.44 3.24 <
