#------------------------------------------------------------------------------
#$Date: 2016-08-31 10:22:51 +0300 (Wed, 31 Aug 2016) $
#$Revision: 186086 $
#$URL: file:///home/coder/svn-repositories/cod/cif/7/22/64/7226402.cif $
#------------------------------------------------------------------------------
#
# This file is available in the Crystallography Open Database (COD),
# http://www.crystallography.net/
#
# All data on this site have been placed in the public domain by the
# contributors.
#
data_7226402
loop_
_publ_author_name
'Du, Jonathan J.'
'V\'aradi, Linda'
'Williams, Peter A.'
'Groundwater, Paul W.'
'Overgaard, Jacob'
'Platts, James A.'
'Hibbs, David E.'
_publ_section_title
;
 An analysis of the experimental and theoretical charge density
 distributions of the piroxicam--saccharin co-crystal and its constituents
;
_journal_issue                   85
_journal_name_full               'RSC Adv.'
_journal_page_first              81578
_journal_paper_doi               10.1039/C6RA10411H
_journal_volume                  6
_journal_year                    2016
_chemical_formula_sum            'C7 H5 N O3 S'
_chemical_formula_weight         183.18
_chemical_name_common            Saccharin
_space_group_crystal_system      monoclinic
_space_group_IT_number           14
_space_group_name_Hall           '-P 2ybc'
_space_group_name_H-M_alt        'P 1 21/c 1'
_symmetry_space_group_name_Hall  '-P 2ybc'
_symmetry_space_group_name_H-M   'P 1 21/c 1'
_atom_sites_solution_hydrogens   difmap
_audit_creation_method           SHELXL-2014/7
_audit_update_record
;
2016-04-15 deposited with the CCDC.
2016-08-12 downloaded from the CCDC.
;
_cell_angle_alpha                90
_cell_angle_beta                 103.05
_cell_angle_gamma                90
_cell_formula_units_Z            4
_cell_length_a                   9.444
_cell_length_b                   6.921
_cell_length_c                   11.684
_cell_measurement_reflns_used    999
_cell_measurement_temperature    150(2)
_cell_measurement_theta_max      65.62
_cell_measurement_theta_min      3.44
_cell_volume                     743.965
_computing_structure_refinement  'SHELXL-2014/7 (Sheldrick, 2014)'
_diffrn_ambient_temperature      150(2)
_diffrn_measured_fraction_theta_full 0.985
_diffrn_measured_fraction_theta_max 0.998
_diffrn_measurement_device_type  'Agilent Technologies SuperNova CCD'
_diffrn_measurement_method       \w-scans
_diffrn_radiation_type           MoK\a
_diffrn_radiation_wavelength     0.71073
_diffrn_reflns_av_unetI/netI     0.0067
_diffrn_reflns_Laue_measured_fraction_full 0.985
_diffrn_reflns_Laue_measured_fraction_max 0.998
_diffrn_reflns_number            8523
_diffrn_reflns_point_group_measured_fraction_full 0.985
_diffrn_reflns_point_group_measured_fraction_max 0.998
_diffrn_reflns_theta_full        25.242
_diffrn_reflns_theta_max         52.155
_diffrn_reflns_theta_min         3.445
_exptl_absorpt_coefficient_mu    0.394
_exptl_absorpt_correction_type   none
_exptl_crystal_colour            colourless
_exptl_crystal_density_diffrn    1.636
_exptl_crystal_description       block
_exptl_crystal_F_000             376
_refine_diff_density_max         0.623
_refine_diff_density_min         -0.437
_refine_diff_density_rms         0.082
_refine_ls_extinction_method     none
_refine_ls_goodness_of_fit_ref   1.094
_refine_ls_hydrogen_treatment    fixed
_refine_ls_matrix_type           full
_refine_ls_number_parameters     129
_refine_ls_number_reflns         8523
_refine_ls_number_restraints     5
_refine_ls_restrained_S_all      1.094
_refine_ls_R_factor_all          0.0264
_refine_ls_R_factor_gt           0.0221
_refine_ls_shift/su_max          0.003
_refine_ls_shift/su_mean         0.000
_refine_ls_structure_factor_coef Fsqd
_refine_ls_weighting_details
'w=1/[\s^2^(Fo^2^)+(0.0431P)^2^+0.0455P] where P=(Fo^2^+2Fc^2^)/3'
_refine_ls_weighting_scheme      calc
_refine_ls_wR_factor_gt          0.0694
_refine_ls_wR_factor_ref         0.0724
_reflns_Friedel_coverage         0.000
_reflns_number_gt                7584
_reflns_number_total             8523
_reflns_threshold_expression     'I > 2\s(I)'
_cod_data_source_file            c6ra10411h2.cif
_cod_data_source_block           xprep
_cod_original_cell_volume        743.9
_cod_database_code               7226402
_shelx_shelxl_version_number     2014/7
_shelx_space_group_comment
;
The symmetry employed for this shelxl refinement is uniquely defined
by the following loop, which should always be used as a source of
symmetry information in preference to the above space-group names.
They are only intended as comments.
;
_shelx_res_file
;

    xprep.res created by SHELXL-2014/7

TITL saccharin_dai in P2(1)/c
CELL  0.71073   9.4436   6.9212  11.6835   90.000  103.052   90.000
ZERR     4.00   0.0000   0.0000   0.0000    0.000    0.000    0.000
LATT   1
SYMM  - X, 1/2 + Y, 1/2 - Z
SFAC  C    H    N    O    S
UNIT  28   20   4    12   4
DFIX 1.083 0.00001 C2 H2 C3 H3 C4 H4 C5 H5
DFIX 1.009 0.00001 N1 H1A
FMAP   2
PLAN   20
ACTA
BOND
CONF
L.S.   10
WGHT    0.043100    0.045500
FVAR       0.73624
S1    5    0.289872    0.771439    0.154196    11.00000    0.01012    0.01077 =
         0.00922    0.00009    0.00068   -0.00075
O1    4    0.254430    0.829388    0.262214    11.00000    0.02216    0.01703 =
         0.01024   -0.00107    0.00464   -0.00203
O2    4    0.418902    0.658384    0.161971    11.00000    0.01244    0.01917 =
         0.01937    0.00108    0.00030    0.00405
N1    3    0.149030    0.657413    0.069117    11.00000    0.01269    0.01007 =
         0.01182    0.00178   -0.00055   -0.00292
O3    4   -0.020995    0.692152   -0.104614    11.00000    0.01292    0.01289 =
         0.01050   -0.00052   -0.00021   -0.00440
C1    1    0.277413    0.965664    0.055557    11.00000    0.01047    0.01075 =
         0.01037   -0.00044    0.00184   -0.00259
C2    1    0.364009    1.129641    0.067383    11.00000    0.01346    0.01407 =
         0.01558   -0.00145    0.00229   -0.00566
C3    1    0.331147    1.265114   -0.023670    11.00000    0.01723    0.01243 =
         0.01852   -0.00049    0.00626   -0.00578
C4    1    0.216556    1.235908   -0.121406    11.00000    0.01894    0.01163 =
         0.01513    0.00217    0.00600   -0.00292
C5    1    0.129907    1.070842   -0.130554    11.00000    0.01513    0.01147 =
         0.01046    0.00141    0.00296   -0.00176
C6    1    0.162211    0.935827   -0.040517    11.00000    0.01079    0.00925 =
         0.00903   -0.00016    0.00224   -0.00200
C7    1    0.084970    0.752029   -0.032665    11.00000    0.01011    0.00928 =
         0.00910   -0.00047    0.00160   -0.00180
H1A   2    0.113135    0.524812    0.084680    11.00000    0.02977
H2    2    0.448984    1.153495    0.145471    11.00000    0.03486
H3    2    0.394905    1.394519   -0.026012    11.00000    0.03775
H4    2    0.190843    1.340244   -0.192147    11.00000    0.02960
H5    2    0.039486    1.046151   -0.204586    11.00000    0.02496
HKLF    4

REM  saccharin_dai in P2(1)/c
REM R1 =  0.0221 for    7584 Fo > 4sig(Fo)  and  0.0264 for all    8523 data
REM    129 parameters refined using      5 restraints

END

WGHT      0.0433      0.0453

REM Highest difference peak  0.623,  deepest hole -0.437,  1-sigma level  0.082
Q1    1   0.2243  0.9501  0.0103  11.00000  0.05    0.62
Q2    1   0.3220  1.0301  0.0617  11.00000  0.05    0.62
Q3    1   0.1460  0.9938 -0.0819  11.00000  0.05    0.60
Q4    1   0.0364  0.7196 -0.0636  11.00000  0.05    0.50
Q5    1   0.1665  1.1414 -0.1271  11.00000  0.05    0.50
Q6    1   0.1295  0.8537 -0.0379  11.00000  0.05    0.46
Q7    1   0.3547  0.7224  0.1594  11.00000  0.05    0.44
Q8    1   0.3491  1.2011  0.0214  11.00000  0.05    0.44
Q9    1   0.2636  1.2431 -0.0819  11.00000  0.05    0.43
Q10   1   0.1384  0.5818  0.0835  11.00000  0.05    0.40
Q11   1   0.0829  1.0533 -0.1713  11.00000  0.05    0.40
Q12   1   0.2726  0.8069  0.2120  11.00000  0.05    0.37
Q13   1   0.4075  1.1247  0.1066  11.00000  0.05    0.35
Q14   1   0.1189  0.6934  0.0295  11.00000  0.05    0.33
Q15   1   0.2889  0.8780  0.1011  11.00000  0.05    0.31
Q16   1   0.4043  0.6562  0.1270  11.00000  0.05    0.28
Q17   1  -0.0535  0.6483 -0.1067  11.00000  0.05    0.26
Q18   1   0.3659  1.3405 -0.0225  11.00000  0.05    0.26
Q19   1   0.4446  0.6138  0.1618  11.00000  0.05    0.25
Q20   1  -0.0437  0.7201 -0.1407  11.00000  0.05    0.24
;
_shelx_res_checksum              44512
_shelx_hkl_file
;
   2   0   0 3956.30    6.81
   3   0   0  637.43    2.72
   4   0   0  29.165   0.371
   5   0   0  214.59    1.08
   6   0   0  12.440   0.284
   7   0   0 1427.10    3.02
   8   0   0  2.1823  0.1433
   9   0   0  190.08    0.94
  10   0   0  26.696   0.337
  11   0   0  25.481   0.279
  12   0   0  29.988   0.338
  13   0   0  0.8106  0.1635
  14   0   0  258.10    1.14
  15   0   0  28.481   0.426
  16   0   0  119.61    0.88
  17   0   0  2.2401  0.2583
  18   0   0  3.5705  0.3257
  19   0   0  9.2354  0.4459
  20   0   0  4.7380  0.4277
   0   1   0  0.1568  0.1093
   1   1   0 2339.72    4.77
   2   1   0  4.4754  0.1390
   3   1   0  312.92    1.04
   4   1   0  60.802   0.447
   5   1   0  387.93    1.16
   6   1   0 2036.64    2.98
   7   1   0  192.37    0.72
   8   1   0  810.55    1.35
   9   1   0  370.99    0.97
  10   1   0  394.67    0.90
  11   1   0  0.1913  0.0911
  12   1   0  2.8142  0.1099
  13   1   0  55.326   0.327
  14   1   0  14.790   0.219
  15   1   0  81.258   0.484
  16   1   0  45.687   0.389
  17   1   0  6.0641  0.2248
  18   1   0  5.4150  0.2678
  19   1   0  14.291   0.342
  20   1   0  21.272   0.391
   0   2   0 5220.94   27.87
   1   2   0  4.3590  0.1373
   2   2   0  455.07    1.61
   3   2   0 1347.50    3.21
   4   2   0  585.73    1.85
   5   2   0  139.58    0.74
   6   2   0  41.327   0.346
   7   2   0  74.349   0.377
   8   2   0  105.52    0.46
   9   2   0  0.4048  0.1170
  10   2   0  190.55    0.62
  11   2   0  3.7937  0.1230
  12   2   0  21.793   0.215
  13   2   0  8.1077  0.1646
  14   2   0  65.836   0.386
  15   2   0  23.128   0.276
  16   2   0  36.877   0.366
  17   2   0  1.9401  0.2099
  18   2   0  10.224   0.294
  19   2   0  23.204   0.423
  20   2   0  1.1202  0.2466
   0   3   0  0.2221  0.0854
   1   3   0  103.24    0.67
   2   3   0  54.110   0.524
   4   3   0  711.50    1.90
   5   3   0  28.109   0.259
   6   3   0  560.37    1.25
   7   3   0  114.04    0.51
   8   3   0  51.190   0.337
   9   3   0  83.772   0.444
  10   3   0  159.93    0.56
  11   3   0  161.94    0.54
  12   3   0  4.3291  0.1388
  13   3   0  170.12    0.64
  14   3   0  10.169   0.202
  15   3   0  7.2192  0.2040
  16   3   0  21.217   0.314
  17   3   0  16.330   0.327
  18   3   0  30.215   0.427
  19   3   0  10.921   0.340
  20   3   0  26.372   0.470
   0   4   0  439.70    2.94
   1   4   0  56.364   0.615
   2   4   0  569.06    1.76
   3   4   0  425.12    1.33
   4   4   0  482.66    1.34
   5   4   0  813.59    1.80
   6   4   0  6.0354  0.1365
   7   4   0  26.333   0.256
   8   4   0  186.56    0.66
   9   4   0  18.427   0.231
  10   4   0  249.29    0.68
  11   4   0  31.891   0.262
  12   4   0  73.325   0.398
  13   4   0  2.5206  0.1451
  14   4   0  31.043   0.313
  15   4   0  0.5826  0.1712
  16   4   0  51.238   0.457
  17   4   0  0.0336  0.2236
  18   4   0  13.110   0.347
  19   4   0  38.980   0.490
   0   5   0  0.5723  0.1504
   1   5   0  22.596   0.331
   2   5   0  36.449   0.444
   3   5   0  82.634   0.541
   4   5   0  596.46    1.51
   5   5   0  17.827   0.228
   6   5   0  103.60    0.54
   7   5   0  22.759   0.254
   8   5   0  93.488   0.452
   9   5   0  84.779   0.368
  10   5   0  489.77    0.92
  11   5   0  123.84    0.47
  12   5   0  64.948   0.383
  13   5   0  38.567   0.323
  14   5   0  84.985   0.485
  15   5   0  35.453   0.370
  16   5   0  20.491   0.339
  17   5   0  8.9424  0.2925
  18   5   0  18.459   0.389
  19   5   0  0.7798  0.2470
   0   6   0  97.834   0.811
   1   6   0  11.013   0.267
   2   6   0  195.95    0.82
   3   6   0  21.440   0.277
   4   6   0  6.1235  0.1610
   5   6   0  359.92    1.06
   6   6   0  14.108   0.214
   7   6   0  7.1475  0.1565
   8   6   0  89.842   0.380
   9   6   0  4.3363  0.1358
  10   6   0  104.53    0.45
  11   6   0  7.5825  0.1726
  12   6   0  65.973   0.393
  13   6   0  18.223   0.247
  14   6   0  10.627   0.232
  15   6   0  5.3332  0.2169
  16   6   0  8.9431  0.2667
  17   6   0  4.1786  0.2619
  18   6   0  9.4298  0.3326
   0   7   0 -0.1105  0.2526
   1   7   0  66.586   0.513
   2   7   0  10.195   0.224
   3   7   0  10.481   0.205
   4   7   0  195.43    0.78
   5   7   0  22.372   0.255
   6   7   0  19.461   0.218
   7   7   0  23.344   0.222
   8   7   0  7.7781  0.1599
   9   7   0  61.060   0.366
  10   7   0  10.902   0.208
  11   7   0  88.375   0.516
  12   7   0  2.1248  0.1812
  13   7   0 -0.2635  0.1835
  14   7   0  39.207   0.435
  15   7   0  4.5807  0.2577
  16   7   0  0.7137  0.2518
  17   7   0  2.0514  0.2735
  18   7   0  24.324   0.512
   0   8   0  16.458   0.480
   1   8   0  84.543   0.732
   2   8   0  55.077   0.554
   3   8   0  96.025   0.559
   4   8   0  2.7103  0.1478
   5   8   0  60.345   0.438
   6   8   0  21.809   0.277
   7   8   0  100.95    0.48
   8   8   0  40.984   0.325
   9   8   0 -0.0821  0.1434
  10   8   0  42.253   0.390
  11   8   0  16.280   0.278
  12   8   0  10.406   0.257
  13   8   0  1.9558  0.2078
  14   8   0  16.562   0.317
  15   8   0  1.5507  0.2383
  16   8   0  4.4507  0.2905
  17   8   0  0.4917  0.2729
   0   9   0 -0.2697  0.2068
   1   9   0  27.809   0.315
   2   9   0  26.966   0.345
   3   9   0  8.3433  0.1994
   4   9   0  54.973   0.405
   5   9   0  44.867   0.367
   6   9   0  90.356   0.560
   7   9   0  4.1882  0.2128
   8   9   0  101.72    0.59
   9   9   0  6.1594  0.2206
  10   9   0  0.8110  0.1872
  11   9   0  26.015   0.368
  12   9   0  1.4519  0.2149
  13   9   0 -0.1496  0.2149
  14   9   0  3.6607  0.2473
  15   9   0  19.454   0.380
  16   9   0  4.0214  0.2993
   0  10   0  240.27    1.41
   1  10   0  0.0964  0.1810
   2  10   0  63.486   0.549
   3  10   0  12.645   0.287
   4  10   0  33.567   0.439
   5  10   0  19.716   0.359
   6  10   0  1.3828  0.2081
   7  10   0  5.0153  0.2509
   8  10   0  6.3757  0.2632
   9  10   0  5.1156  0.2636
  10  10   0  0.5035  0.2061
  11  10   0  0.1648  0.2363
  12  10   0  7.8604  0.2867
  13  10   0  3.8025  0.2553
  14  10   0  26.313   0.431
  15  10   0 -0.0497  0.2935
   0  11   0  0.3540  0.3148
   1  11   0  14.309   0.331
   2  11   0  8.2830  0.2722
   3  11   0  29.340   0.408
   4  11   0  2.1024  0.2214
   5  11   0  0.1499  0.2415
   6  11   0  0.7165  0.2521
   7  11   0  1.3632  0.2587
   8  11   0  24.139   0.464
   9  11   0  0.2582  0.2619
  10  11   0  4.8094  0.3162
  11  11   0  10.059   0.361
  12  11   0  2.1339  0.3105
  13  11   0  12.488   0.371
  14  11   0  34.568   0.551
   0  12   0  27.780   0.691
   1  12   0  9.2461  0.3150
   2  12   0 -0.3379  0.2443
   3  12   0  28.003   0.444
   4  12   0  9.5244  0.3459
   5  12   0  0.3187  0.2520
   6  12   0  3.7999  0.3055
   7  12   0 -0.1242  0.2602
   8  12   0  0.6607  0.2896
   9  12   0  9.5374  0.3838
  10  12   0  0.3538  0.2913
  11  12   0  4.8940  0.3213
  12  12   0  17.445   0.464
   0  13   0  0.1813  0.3146
   1  13   0  1.8302  0.2728
   2  13   0  0.1128  0.2987
   3  13   0  7.2148  0.3614
   4  13   0  5.2577  0.3541
   5  13   0  4.0877  0.3720
   6  13   0 -0.1449  0.3125
   7  13   0  13.579   0.480
   8  13   0  2.1491  0.3396
   9  13   0  1.4186  0.3212
  10  13   0 -0.2972  0.2765
   0  14   0 -0.5509  0.3802
   1  14   0 -0.5045  0.2769
   2  14   0  0.6372  0.2792
   3  14   0  5.9831  0.3548
   4  14   0  10.368   0.458
   5  14   0 -0.3556  0.3559
   6  14   0  12.085   0.443
   7  14   0  6.8866  0.3958
   8  14   0 -0.1031  0.3146
   0  15   0 -0.0719  0.3725
   1  15   0  2.8918  0.2836
   2  15   0  3.6166  0.2761
   3  15   0  1.3967  0.2538
   4  15   0  1.3870  0.2782
 -20   0   1 -0.5161  0.4155
 -19   0   1 -0.1585  0.3338
 -18   0   1  0.0965  0.2822
 -17   0   1 -0.3187  0.2823
 -16   0   1  0.1675  0.2493
 -15   0   1  0.1160  0.2271
 -14   0   1 -0.1190  0.1933
 -13   0   1 -0.0821  0.1564
 -12   0   1  0.1077  0.1366
 -11   0   1  0.1096  0.1169
 -10   0   1 -0.0843  0.1488
  -9   0   1  0.1158  0.1321
  -8   0   1  0.3168  0.1228
  -7   0   1  0.0242  0.1248
  -6   0   1  0.1427  0.1159
  -5   0   1  0.2040  0.1139
  -4   0   1  0.3823  0.1037
  -3   0   1  0.2461  0.0794
  -2   0   1  0.1821  0.0694
  -1   0   1  0.3010  0.0754
   1   0   1  0.1623  0.0927
   3   0   1  0.1660  0.0730
   4   0   1  0.2048  0.1245
   5   0   1  0.3809  0.1232
   6   0   1  0.1621  0.1299
   7   0   1  0.1780  0.1435
   8   0   1  0.2094  0.1375
   9   0   1  0.3841  0.1661
  10   0   1  0.0000  0.1533
  11   0   1  0.0139  0.1238
  12   0   1  0.2042  0.1375
  13   0   1 -0.0084  0.1680
  14   0   1 -0.1307  0.1877
  15   0   1 -0.0804  0.2192
  16   0   1 -0.5516  0.2432
  17   0   1 -0.4406  0.2739
  18   0   1 -0.2979  0.2845
  19   0   1  0.0190  0.3341
  20   0   1 -0.2034  0.3649
 -20   1   1  5.2423  0.3061
 -19   1   1 -0.1913  0.2633
 -18   1   1  6.8301  0.2711
 -17   1   1  0.2047  0.1871
 -16   1   1  2.1798  0.1805
 -15   1   1  5.0127  0.1888
 -14   1   1  10.969   0.199
 -13   1   1  4.8921  0.1367
 -12   1   1  2.1475  0.1017
 -11   1   1  54.862   0.302
 -10   1   1  103.20    0.46
  -9   1   1  55.397   0.336
  -8   1   1  0.2765  0.0837
  -7   1   1  1.0848  0.0942
  -6   1   1  4.2999  0.1262
  -5   1   1  2.3231  0.1076
  -4   1   1  105.69    0.59
  -3   1   1 1022.87    2.52
  -2   1   1 2078.65    4.55
  -1   1   1  4.3763  0.1688
   0   1   1  667.19    2.51
   1   1   1  21.585   0.356
   2   1   1  51.318   0.529
   3   1   1  720.93    2.10
   4   1   1  244.30    1.02
   5   1   1  362.28    1.00
   6   1   1  6.2201  0.1558
   7   1   1  27.023   0.283
   8   1   1  30.766   0.280
   9   1   1  49.630   0.353
  10   1   1  39.424   0.305
  11   1   1  22.867   0.203
  12   1   1  46.394   0.280
  13   1   1  0.2576  0.1115
  14   1   1  4.4343  0.1664
  15   1   1  0.0290  0.1541
  16   1   1  0.1085  0.1754
  17   1   1  6.3079  0.2417
  18   1   1  5.7695  0.2565
  19   1   1  0.0293  0.2215
  20   1   1  0.3462  0.2506
 -20   2   1  0.1749  0.2763
 -19   2   1  41.684   0.510
 -18   2   1  0.9129  0.2375
 -17   2   1  12.360   0.277
 -16   2   1 -0.2647  0.1773
 -15   2   1  1.0338  0.1656
 -14   2   1  14.203   0.218
 -13   2   1  22.397   0.229
 -12   2   1  68.261   0.344
 -11   2   1  3.3271  0.1163
 -10   2   1  27.400   0.246
  -9   2   1  12.252   0.181
  -8   2   1  5.3944  0.1239
  -7   2   1  25.857   0.245
  -6   2   1  2.0939  0.1149
  -5   2   1  753.96    1.73
  -4   2   1  184.54    0.94
  -3   2   1 1101.55    2.81
  -2   2   1  503.91    1.68
  -1   2   1 1031.05    3.07
   0   2   1  125.64    0.71
   1   2   1  198.92    0.90
   2   2   1  313.59    1.32
   3   2   1  64.596   0.597
   4   2   1 1773.03    4.33
   5   2   1  3.0680  0.1297
   6   2   1  7.7415  0.1848
   7   2   1  153.05    0.66
   8   2   1  146.51    0.61
   9   2   1  34.949   0.276
  10   2   1  4.6588  0.1427
  11   2   1  51.005   0.291
  12   2   1  3.8521  0.1239
  13   2   1  17.455   0.206
  14   2   1  0.9320  0.1405
  15   2   1  2.7971  0.1730
  16   2   1  2.5027  0.1878
  17   2   1  10.763   0.272
  18   2   1  9.1250  0.2938
  19   2   1  0.4051  0.2432
  20   2   1  0.4192  0.2629
 -20   3   1  0.4308  0.2792
 -19   3   1  4.2254  0.2997
 -18   3   1  1.9647  0.2466
 -17   3   1  8.9927  0.2628
 -16   3   1  1.5038  0.1910
 -15   3   1  34.530   0.340
 -14   3   1  1.0100  0.1443
 -13   3   1  8.9881  0.1749
 -12   3   1  39.202   0.276
 -11   3   1  39.416   0.268
 -10   3   1  28.159   0.247
  -9   3   1  11.262   0.178
  -8   3   1  14.560   0.199
  -7   3   1  403.24    0.98
  -6   3   1  167.51    0.64
  -5   3   1  29.827   0.292
  -4   3   1  208.57    1.00
  -3   3   1  410.38    1.57
  -2   3   1  80.279   0.689
   0   3   1  918.71    3.09
   1   3   1  951.06    2.97
   2   3   1  33.740   0.366
   3   3   1 1057.11    2.53
   4   3   1  203.09    1.00
   5   3   1  127.17    0.64
   6   3   1  10.804   0.166
   7   3   1  76.220   0.443
   8   3   1  0.3329  0.0976
   9   3   1  2.6431  0.1245
  10   3   1  167.33    0.56
  11   3   1  7.7411  0.1479
  12   3   1  41.745   0.297
  13   3   1  15.728   0.206
  14   3   1 -0.0805  0.1458
  15   3   1  0.7840  0.1650
  16   3   1  18.107   0.311
  17   3   1  19.671   0.344
  18   3   1  2.1000  0.2556
  19   3   1  0.1901  0.2538
 -19   4   1  6.2148  0.3066
 -18   4   1  9.2023  0.3124
 -17   4   1  7.8178  0.2807
 -16   4   1  14.079   0.299
 -15   4   1  1.5517  0.1797
 -14   4   1  0.7979  0.1480
 -13   4   1  8.7523  0.2008
 -12   4   1  23.530   0.245
 -11   4   1  23.365   0.229
 -10   4   1  5.5205  0.1365
  -9   4   1  29.763   0.275
  -8   4   1  8.6471  0.1482
  -7   4   1  0.4804  0.0847
  -6   4   1  0.8224  0.0928
  -5   4   1  122.88    0.70
  -4   4   1  29.618   0.323
  -3   4   1  234.22    0.94
  -2   4   1  146.09    0.97
  -1   4   1  183.93    1.23
   0   4   1  150.96    0.87
   1   4   1  0.9011  0.1268
   2   4   1  363.67    1.21
   3   4   1  238.00    0.98
   4   4   1 1753.84    2.87
   5   4   1  0.2881  0.1061
   6   4   1  0.8300  0.1054
   7   4   1  30.039   0.273
   8   4   1  0.1422  0.1139
   9   4   1  34.784   0.306
  10   4   1  75.057   0.351
  11   4   1  261.73    0.69
  12   4   1 -0.0218  0.1215
  13   4   1  3.0537  0.1538
  14   4   1  0.4423  0.1531
  15   4   1  25.407   0.323
  16   4   1 -0.0706  0.1973
  17   4   1  15.473   0.329
  18   4   1  22.176   0.384
  19   4   1  1.5645  0.2645
 -19   5   1  2.8519  0.2719
 -18   5   1  18.068   0.389
 -17   5   1  0.0388  0.2250
 -16   5   1  17.754   0.293
 -15   5   1  0.3569  0.1697
 -14   5   1  4.3754  0.1956
 -13   5   1  21.884   0.260
 -12   5   1  20.751   0.249
 -11   5   1  33.349   0.270
 -10   5   1  1.4501  0.1284
  -9   5   1  90.856   0.401
  -8   5   1  4.9667  0.1471
  -7   5   1  1.9337  0.1168
  -6   5   1  603.83    1.41
  -5   5   1  62.909   0.406
  -4   5   1  319.74    1.01
  -3   5   1  203.74    0.84
  -2   5   1  277.99    1.14
  -1   5   1  39.106   0.462
   0   5   1  52.737   0.475
   1   5   1  531.58    1.72
   2   5   1  103.54    0.63
   3   5   1  248.70    1.14
   5   5   1  163.29    0.67
   6   5   1  41.206   0.303
   7   5   1  28.956   0.261
   8   5   1  136.25    0.52
   9   5   1  3.8763  0.1162
  10   5   1  154.91    0.49
  11   5   1  0.1159  0.1163
  12   5   1  13.443   0.197
  13   5   1  16.970   0.235
  14   5   1  26.818   0.306
  15   5   1 -0.0474  0.1928
  16   5   1  0.0317  0.2124
  17   5   1  18.722   0.370
  18   5   1  0.1639  0.2327
  19   5   1  0.7382  0.2549
 -18   6   1  0.6186  0.2877
 -17   6   1  14.626   0.336
 -16   6   1  5.0437  0.2289
 -15   6   1  58.568   0.458
 -14   6   1  4.4519  0.1871
 -13   6   1  0.6602  0.1533
 -12   6   1  123.42    0.52
 -11   6   1  0.3224  0.1308
 -10   6   1  143.67    0.52
  -9   6   1  46.150   0.286
  -8   6   1  146.59    0.49
  -7   6   1  28.131   0.279
  -6   6   1  13.790   0.216
  -5   6   1  33.767   0.312
  -4   6   1  6.9326  0.1648
  -3   6   1  208.29    0.77
  -2   6   1  2.0859  0.1596
  -1   6   1  373.63    1.31
   0   6   1  548.32    1.86
   1   6   1  314.76    1.25
   2   6   1  289.19    1.22
   3   6   1  44.078   0.389
   4   6   1  299.31    0.98
   5   6   1  48.325   0.354
   6   6   1  50.750   0.383
   7   6   1  263.43    0.76
   8   6   1  155.32    0.53
   9   6   1  25.978   0.224
  10   6   1  2.2661  0.1279
  11   6   1  21.038   0.227
  12   6   1  7.9163  0.1822
  13   6   1  7.6180  0.1954
  14   6   1  73.589   0.489
  15   6   1  12.580   0.276
  16   6   1  18.133   0.346
  17   6   1  0.3304  0.2308
  18   6   1 -0.0560  0.2357
 -18   7   1  8.6254  0.3630
 -17   7   1 -0.0154  0.2708
 -16   7   1  37.982   0.488
 -15   7   1  7.3293  0.2748
 -14   7   1  31.516   0.394
 -13   7   1 -0.0338  0.1793
 -12   7   1  3.6538  0.1860
 -11   7   1  2.0488  0.1567
 -10   7   1  8.2733  0.1904
  -9   7   1  318.60    0.78
  -8   7   1  46.100   0.294
  -7   7   1  234.92    0.66
  -6   7   1  136.81    0.53
  -5   7   1  2.3013  0.1472
  -4   7   1  26.243   0.342
  -3   7   1  249.34    0.99
  -2   7   1  416.16    1.33
  -1   7   1  91.473   0.620
   0   7   1  178.49    0.87
   1   7   1  9.8818  0.2412
   2   7   1 -0.1274  0.1452
   3   7   1  26.273   0.326
   4   7   1  58.486   0.472
   5   7   1  67.090   0.431
   6   7   1  97.755   0.482
   7   7   1  122.53    0.53
   8   7   1  135.46    0.53
   9   7   1  5.4508  0.1567
  10   7   1  42.655   0.350
  11   7   1  27.396   0.311
  12   7   1  1.5196  0.1768
  13   7   1  51.428   0.446
  14   7   1  24.195   0.338
  15   7   1  26.491   0.416
  16   7   1  0.0936  0.2468
  17   7   1  17.077   0.420
  18   7   1  0.1317  0.2940
 -17   8   1  5.1633  0.2896
 -16   8   1  4.3865  0.2687
 -15   8   1  34.177   0.454
 -14   8   1  15.792   0.332
 -13   8   1  0.1712  0.1984
 -12   8   1  14.943   0.282
 -11   8   1  0.2172  0.1713
 -10   8   1  27.015   0.315
  -9   8   1  1.2309  0.1509
  -8   8   1  110.83    0.52
  -7   8   1  15.945   0.212
  -6   8   1  29.545   0.259
  -5   8   1  1.2156  0.1165
  -4   8   1  19.361   0.221
  -3   8   1  3.5239  0.1514
  -2   8   1  1.4086  0.1521
  -1   8   1  122.24    0.75
   0   8   1  195.04    0.98
   1   8   1  35.177   0.450
   2   8   1  74.830   0.500
   3   8   1  25.537   0.306
   4   8   1  16.307   0.230
   5   8   1  66.992   0.442
   6   8   1  23.296   0.266
   7   8   1  228.57    0.84
   8   8   1  1.5798  0.1474
   9   8   1  32.298   0.326
  10   8   1  36.907   0.362
  11   8   1  8.3212  0.2376
  12   8   1  50.304   0.450
  13   8   1  0.2128  0.1909
  14   8   1  63.746   0.534
  15   8   1  0.1590  0.2561
  16   8   1  24.156   0.429
  17   8   1  10.297   0.378
 -16   9   1  9.2325  0.3368
 -15   9   1  8.1577  0.2950
 -14   9   1  43.333   0.468
 -13   9   1  12.961   0.305
 -12   9   1  17.131   0.314
 -11   9   1  30.806   0.387
 -10   9   1  2.9713  0.1969
  -9   9   1  52.231   0.431
  -8   9   1  103.47    0.59
  -7   9   1  41.596   0.385
  -6   9   1  212.93    0.81
  -5   9   1  14.838   0.253
  -4   9   1  75.234   0.508
  -3   9   1  21.053   0.299
  -2   9   1  53.234   0.453
  -1   9   1  41.726   0.381
   0   9   1  46.531   0.398
   1   9   1  117.16    0.66
   2   9   1  0.7020  0.1427
   3   9   1  4.0898  0.1607
   4   9   1  0.9805  0.1490
   5   9   1  4.1659  0.1834
   6   9   1  34.411   0.384
   7   9   1  0.1010  0.1754
   8   9   1  76.946   0.542
   9   9   1  3.5357  0.2136
  10   9   1  28.143   0.361
  11   9   1  7.7155  0.2467
  12   9   1  15.965   0.301
  13   9   1  38.116   0.422
  14   9   1  16.139   0.335
  15   9   1  29.786   0.462
  16   9   1  3.7355  0.3046
 -15  10   1  16.401   0.389
 -14  10   1  66.714   0.586
 -13  10   1  14.868   0.331
 -12  10   1  13.511   0.316
 -11  10   1  0.7846  0.2073
 -10  10   1  28.085   0.385
  -9  10   1  2.6311  0.2062
  -8  10   1  144.41    0.76
  -7  10   1  45.800   0.468
  -6  10   1  125.53    0.73
  -5  10   1  59.423   0.523
  -4  10   1  14.888   0.295
  -3  10   1  52.216   0.479
  -2  10   1  17.727   0.316
  -1  10   1  110.93    0.66
   0  10   1  37.256   0.382
   1  10   1  13.848   0.284
   2  10   1  97.629   0.631
   3  10   1  0.9726  0.1746
   4  10   1  154.74    0.82
   5  10   1  8.3670  0.2529
   6  10   1  163.27    0.90
   7  10   1  33.040   0.432
   8  10   1  2.2248  0.2490
   9  10   1  70.713   0.623
  10  10   1  26.166   0.422
  11  10   1  7.9288  0.3102
  12  10   1  19.898   0.413
  13  10   1  8.0008  0.3117
  14  10   1  0.9944  0.2736
  15  10   1  0.9964  0.3048
 -14  11   1  42.513   0.563
 -13  11   1  10.641   0.371
 -12  11   1  3.8719  0.3062
 -11  11   1  79.263   0.732
 -10  11   1  0.1413  0.2579
  -9  11   1  38.928   0.530
  -8  11   1  43.258   0.562
  -7  11   1  44.586   0.579
  -6  11   1  58.825   0.628
  -5  11   1  2.4205  0.2693
  -4  11   1  154.45    1.01
  -3  11   1  3.3767  0.2410
  -2  11   1  80.196   0.698
  -1  11   1  32.722   0.473
   0  11   1  87.091   0.714
   1  11   1  24.255   0.392
   2  11   1 -0.2746  0.1989
   3  11   1  40.292   0.454
   4  11   1  6.7306  0.2451
   5  11   1  4.5818  0.2569
   6  11   1  27.178   0.467
   7  11   1  1.7112  0.2500
   8  11   1  18.835   0.417
   9  11   1  2.1938  0.2737
  10  11   1  20.301   0.427
  11  11   1  1.3964  0.2667
  12  11   1  42.462   0.576
  13  11   1  15.887   0.417
  14  11   1  13.270   0.404
 -12  12   1  16.006   0.427
 -11  12   1  0.2749  0.2845
 -10  12   1  48.089   0.669
  -9  12   1  8.9234  0.3938
  -8  12   1  7.8036  0.3919
  -7  12   1  0.0535  0.3248
  -6  12   1  6.5094  0.3538
  -5  12   1  21.926   0.441
  -4  12   1  1.5453  0.2679
  -3  12   1  18.113   0.410
  -2  12   1  9.1524  0.3141
  -1  12   1  13.057   0.382
   0  12   1  12.605   0.349
   1  12   1  0.6749  0.2271
   2  12   1  79.503   0.712
   3  12   1  1.6412  0.2431
   4  12   1  35.678   0.489
   5  12   1  47.220   0.601
   6  12   1  27.370   0.449
   7  12   1  26.200   0.464
   8  12   1  0.2048  0.2809
   9  12   1  34.959   0.546
  10  12   1 -0.0548  0.2892
  11  12   1  0.1021  0.2895
  12  12   1  41.715   0.603
 -11  13   1  13.835   0.419
 -10  13   1  0.0422  0.3130
  -9  13   1  1.1789  0.3173
  -8  13   1  4.0817  0.3453
  -7  13   1  9.6969  0.4060
  -6  13   1  7.5279  0.3873
  -5  13   1  5.1552  0.3413
  -4  13   1  89.068   0.841
  -3  13   1  11.933   0.410
  -2  13   1  11.691   0.393
  -1  13   1  16.677   0.377
   0  13   1  4.0894  0.2825
   1  13   1  1.6817  0.2842
   2  13   1  7.9843  0.3732
   3  13   1  18.609   0.485
   4  13   1  6.0477  0.3497
   5  13   1  7.6961  0.3667
   6  13   1  5.1173  0.3584
   7  13   1  1.6816  0.3525
   8  13   1  8.9085  0.3995
   9  13   1  2.3634  0.3051
  10  13   1  17.086   0.430
  -8  14   1  0.6787  0.3225
  -7  14   1  1.0898  0.3425
  -6  14   1  0.1512  0.3131
  -5  14   1  11.727   0.466
  -4  14   1  4.7041  0.3239
  -3  14   1  13.602   0.360
  -2  14   1  0.3372  0.2505
  -1  14   1  5.4354  0.2826
   0  14   1  9.9415  0.3565
   1  14   1  0.4087  0.2721
   2  14   1  110.99    0.99
   3  14   1  1.0158  0.3639
   4  14   1  59.136   0.830
   5  14   1  8.4884  0.4463
   6  14   1  8.7557  0.4109
   7  14   1 -0.2785  0.3373
   8  14   1  3.1456  0.3853
  -4  15   1  80.853   0.787
  -3  15   1  0.5796  0.3064
  -2  15   1  1.4603  0.2594
  -1  15   1  9.5547  0.3373
   0  15   1  0.2328  0.2533
   1  15   1  10.246   0.338
   2  15   1  0.2245  0.2658
   3  15   1  26.436   0.472
   4  15   1  4.9484  0.3130
 -20   0   2  14.574   0.535
 -19   0   2  0.1776  0.3227
 -18   0   2  37.047   0.584
 -17   0   2  34.789   0.616
 -16   0   2  125.83    0.99
 -15   0   2  146.18    0.89
 -14   0   2  29.903   0.373
 -13   0   2  17.558   0.267
 -12   0   2  249.53    0.94
 -11   0   2  272.87    0.89
 -10   0   2  224.07    0.98
  -9   0   2  18.634   0.304
  -8   0   2 1221.39    2.35
  -7   0   2  4.9036  0.1650
  -5   0   2  246.25    1.39
  -4   0   2  139.05    1.01
  -2   0   2 2113.34    5.19
  -1   0   2 3552.37    5.40
   0   0   2 1256.42    3.94
   1   0   2  145.62    1.25
   2   0   2 3566.25    6.64
   4   0   2 3126.79    6.14
   5   0   2  271.45    1.29
   6   0   2 1611.95    3.73
   7   0   2  258.90    1.14
   8   0   2 1040.11    2.61
   9   0   2  53.835   0.488
  10   0   2  3.3324  0.1873
  11   0   2  73.999   0.463
  12   0   2  6.5379  0.1984
  13   0   2  158.37    0.76
  14   0   2  13.939   0.299
  15   0   2  126.25    0.82
  16   0   2  3.8937  0.2788
  17   0   2  29.184   0.543
  18   0   2  8.1144  0.3758
  19   0   2  4.0632  0.3549
  20   0   2 -0.0975  0.3504
 -20   1   2  2.7479  0.2916
 -19   1   2  1.7815  0.2407
 -18   1   2  22.816   0.376
 -17   1   2  48.003   0.419
 -16   1   2  73.229   0.496
 -15   1   2  5.3465  0.1956
 -14   1   2  81.623   0.443
 -13   1   2  2.8276  0.1241
 -12   1   2  63.635   0.314
 -11   1   2  5.8123  0.1232
 -10   1   2  255.93    0.68
  -9   1   2  57.378   0.339
  -8   1   2  64.036   0.339
  -7   1   2  591.90    1.33
  -6   1   2  128.23    0.60
  -5   1   2  86.851   0.580
  -4   1   2  205.19    1.00
  -3   1   2 1357.03    3.13
  -2   1   2 9999.00   10.72
  -1   1   2  15.267   0.272
   0   1   2 2724.96    4.85
   1   1   2 3365.52   46.52
   2   1   2  20.720   0.271
   3   1   2  130.52    0.72
   4   1   2  179.37    0.73
   5   1   2  941.76    1.93
   6   1   2  53.386   0.405
   7   1   2  555.29    1.32
   8   1   2  291.82    0.85
   9   1   2  122.59    0.51
  10   1   2  57.969   0.347
  11   1   2  74.041   0.330
  12   1   2  230.32    0.62
  13   1   2  2.7602  0.1402
  14   1   2  231.87    0.72
  15   1   2 -0.1186  0.1581
  16   1   2  2.7957  0.1916
  17   1   2  22.442   0.344
  18   1   2 -0.0429  0.2112
  19   1   2  7.0241  0.2808
 -20   2   2  7.7001  0.3271
 -19   2   2  3.2285  0.2869
 -18   2   2  11.555   0.310
 -17   2   2  10.534   0.272
 -16   2   2  23.193   0.315
 -15   2   2  77.123   0.471
 -14   2   2  1.0419  0.1374
 -13   2   2  25.058   0.244
 -12   2   2  75.616   0.369
 -11   2   2  49.844   0.284
 -10   2   2  15.146   0.193
  -9   2   2  154.86    0.59
  -8   2   2  703.41    1.37
  -7   2   2  84.321   0.466
  -6   2   2  223.51    0.85
  -2   2   2  545.60    1.99
  -1   2   2 1257.31    3.18
   0   2   2  117.51    0.78
   1   2   2  64.889   0.487
   2   2   2 1165.84    3.73
   4   2   2 1027.72    2.28
   5   2   2  2.8064  0.1156
   6   2   2  759.07    1.68
   7   2   2  637.46    1.44
   8   2   2  754.43    1.35
   9   2   2  216.72    0.68
  10   2   2  0.1518  0.0925
  11   2   2  190.43    0.53
  12   2   2  17.687   0.197
  13   2   2  80.977   0.406
  14   2   2  52.292   0.376
  15   2   2  9.8481  0.2232
  16   2   2  41.619   0.392
  17   2   2  25.174   0.366
  18   2   2  63.761   0.569
  19   2   2 -0.0925  0.2392
 -20   3   2  3.0765  0.3190
 -19   3   2  4.4025  0.2849
 -18   3   2  18.994   0.382
 -17   3   2  0.0256  0.1978
 -16   3   2  31.779   0.361
 -15   3   2  23.118   0.298
 -14   3   2  39.821   0.334
 -13   3   2  4.9409  0.1598
 -12   3   2  95.045   0.422
 -11   3   2  31.213   0.241
 -10   3   2  83.118   0.448
  -9   3   2  67.416   0.408
  -8   3   2  5.0147  0.1366
  -7   3   2  234.14    0.80
  -6   3   2  95.611   0.509
  -5   3   2  191.04    0.76
  -4   3   2  345.84    1.46
  -3   3   2  45.323   0.508
  -2   3   2 1620.57    5.00
  -1   3   2  2.5626  0.1217
   0   3   2  326.69    1.39
   1   3   2 1949.95    4.20
   2   3   2  894.10    2.25
   3   3   2  937.80    2.04
   4   3   2  67.897   0.489
   5   3   2  33.118   0.341
   6   3   2  181.23    0.75
   7   3   2  30.010   0.274
   8   3   2  487.58    1.02
   9   3   2  89.973   0.457
  10   3   2  72.101   0.341
  11   3   2  11.280   0.160
  12   3   2  74.999   0.368
  13   3   2  25.060   0.257
  14   3   2  62.619   0.407
  15   3   2  56.577   0.435
  16   3   2  4.0873  0.2260
  17   3   2  81.388   0.601
  18   3   2  2.7031  0.2497
  19   3   2  8.8907  0.3215
 -20   4   2  31.996   0.513
 -19   4   2  0.4936  0.2603
 -18   4   2  29.221   0.424
 -17   4   2  36.456   0.439
 -16   4   2  18.077   0.310
 -15   4   2  23.781   0.318
 -14   4   2  10.925   0.237
 -13   4   2  73.740   0.430
 -12   4   2  172.14    0.62
 -11   4   2  127.28    0.47
 -10   4   2  89.406   0.388
  -9   4   2  1.9907  0.1157
  -8   4   2  197.68    0.68
  -7   4   2  5.8925  0.1479
  -6   4   2  920.08    1.78
  -5   4   2  31.989   0.301
  -4   4   2  639.95    1.70
  -3   4   2  418.75    1.38
  -2   4   2  11.171   0.274
  -1   4   2  49.768   0.558
   0   4   2  55.223   0.578
   1   4   2  4.6882  0.1693
   2   4   2  56.028   0.511
   3   4   2  513.44    1.44
   4   4   2  383.86    1.13
   5   4   2  96.884   0.614
   6   4   2  157.88    0.59
   7   4   2  98.890   0.451
   8   4   2  309.12    0.83
   9   4   2  132.39    0.51
  10   4   2  62.450   0.305
  11   4   2  137.67    0.48
  12   4   2  29.597   0.246
  13   4   2  15.309   0.218
  14   4   2  15.661   0.245
  15   4   2  10.416   0.253
  16   4   2  4.8635  0.2425
  17   4   2  0.2326  0.2142
  18   4   2  26.958   0.399
  19   4   2  2.4886  0.2760
 -19   5   2  15.288   0.380
 -18   5   2  13.227   0.325
 -17   5   2  6.2929  0.2584
 -16   5   2 -0.0265  0.1863
 -15   5   2  3.1294  0.1967
 -14   5   2  22.182   0.283
 -13   5   2  29.758   0.300
 -12   5   2  406.38    0.97
 -11   5   2  99.608   0.428
 -10   5   2  214.97    0.62
  -9   5   2  12.112   0.168
  -8   5   2  9.1314  0.1750
  -7   5   2  225.21    0.80
  -5   5   2  627.30    1.27
  -4   5   2  413.81    1.12
  -3   5   2  173.32    0.84
  -2   5   2  693.46    1.93
  -1   5   2  67.262   0.512
   0   5   2  395.86    1.34
   1   5   2  23.262   0.374
   2   5   2  301.67    1.19
   3   5   2  525.04    1.55
   4   5   2  130.71    0.81
   5   5   2  41.579   0.412
   6   5   2  38.138   0.296
   7   5   2  15.336   0.200
   8   5   2  3.7497  0.1225
   9   5   2  1.4329  0.0981
  10   5   2  6.5693  0.1361
  11   5   2  0.2948  0.1146
  12   5   2  116.06    0.51
  13   5   2  3.7765  0.1691
  14   5   2  51.824   0.434
  15   5   2  0.3040  0.1994
  16   5   2  0.5438  0.2190
  17   5   2  26.748   0.389
  18   5   2  0.8359  0.2401
 -19   6   2  0.1640  0.3182
 -18   6   2  5.0601  0.2976
 -17   6   2  14.585   0.338
 -16   6   2  15.399   0.296
 -15   6   2  5.5653  0.2165
 -14   6   2  5.8263  0.2064
 -13   6   2  20.705   0.270
 -12   6   2  124.60    0.56
 -11   6   2  66.524   0.377
 -10   6   2  177.36    0.58
  -9   6   2  9.8521  0.1647
  -8   6   2  6.9307  0.1443
  -7   6   2  35.179   0.330
  -6   6   2  230.10    0.78
  -5   6   2  49.619   0.342
  -4   6   2  188.64    0.74
  -3   6   2  338.00    1.00
  -2   6   2  177.42    0.80
  -1   6   2  19.819   0.309
   0   6   2  77.472   0.526
   1   6   2  12.937   0.251
   2   6   2  134.20    0.76
   3   6   2  242.82    0.99
   4   6   2  258.68    1.05
   5   6   2  13.070   0.223
   6   6   2  6.1654  0.1817
   7   6   2  67.137   0.416
   8   6   2  29.920   0.256
   9   6   2  94.040   0.426
  10   6   2  60.149   0.355
  11   6   2  37.079   0.304
  12   6   2  67.445   0.419
  13   6   2  18.289   0.257
  14   6   2  26.670   0.325
  15   6   2  7.7841  0.2514
  16   6   2  17.255   0.326
  17   6   2  0.2759  0.2401
  18   6   2  10.272   0.344
 -18   7   2  2.4320  0.3077
 -17   7   2  1.1305  0.2870
 -16   7   2  7.2115  0.2742
 -15   7   2 -0.1279  0.2143
 -14   7   2  0.3561  0.1998
 -13   7   2  15.426   0.276
 -12   7   2  34.429   0.333
 -11   7   2  4.8671  0.1790
 -10   7   2  22.274   0.247
  -9   7   2  5.5769  0.1587
  -8   7   2  8.4772  0.1599
  -7   7   2  87.887   0.388
  -6   7   2  0.2750  0.1088
  -5   7   2  123.85    0.61
  -4   7   2  214.77    0.87
  -3   7   2  14.372   0.261
  -2   7   2  168.08    0.87
  -1   7   2  74.821   0.530
   0   7   2  64.157   0.486
   1   7   2  7.8918  0.1937
   2   7   2  3.4237  0.1625
   3   7   2  159.32    0.80
   4   7   2  95.555   0.648
   5   7   2  42.563   0.357
   6   7   2  84.904   0.479
   7   7   2  4.0112  0.1510
   8   7   2  49.048   0.345
   9   7   2  0.5318  0.1287
  10   7   2  49.979   0.375
  11   7   2  7.2235  0.2016
  12   7   2  15.215   0.261
  13   7   2  40.182   0.394
  14   7   2  2.5001  0.2153
  15   7   2  7.9339  0.3023
  16   7   2  0.9302  0.2735
  17   7   2  26.780   0.487
 -17   8   2  6.0272  0.3114
 -16   8   2  7.2312  0.2929
 -15   8   2 -0.2722  0.2353
 -14   8   2  0.6318  0.2192
 -13   8   2  42.642   0.431
 -12   8   2  1.6187  0.1827
 -11   8   2  7.0922  0.2149
 -10   8   2  57.998   0.422
  -9   8   2  27.683   0.278
  -8   8   2  61.434   0.378
  -7   8   2  117.74    0.50
  -6   8   2  222.90    0.66
  -5   8   2  83.959   0.415
  -4   8   2  0.2436  0.1049
  -3   8   2  2.2364  0.1379
  -2   8   2  6.2463  0.1679
  -1   8   2  27.122   0.293
   0   8   2  12.855   0.259
   1   8   2  77.369   0.601
   2   8   2  17.027   0.251
   3   8   2  41.054   0.378
   4   8   2  26.603   0.286
   5   8   2  20.931   0.247
   6   8   2  15.224   0.239
   7   8   2  38.747   0.375
   8   8   2  12.619   0.230
   9   8   2  15.477   0.250
  10   8   2  16.929   0.252
  11   8   2  2.2652  0.1795
  12   8   2  20.910   0.311
  13   8   2  15.049   0.288
  14   8   2 -0.1139  0.2321
  15   8   2  7.8660  0.3052
  16   8   2  25.593   0.459
  17   8   2  1.8031  0.2854
 -16   9   2  50.044   0.524
 -15   9   2  6.3341  0.2912
 -14   9   2  0.0581  0.2384
 -13   9   2  1.0021  0.2125
 -12   9   2  2.2953  0.2083
 -11   9   2  0.5061  0.1858
 -10   9   2  33.571   0.364
  -9   9   2  5.8146  0.2075
  -8   9   2  17.624   0.279
  -7   9   2  106.08    0.54
  -6   9   2  14.430   0.226
  -5   9   2  14.218   0.216
  -4   9   2  54.561   0.392
  -3   9   2  12.909   0.204
  -2   9   2  114.82    0.60
  -1   9   2  1.4333  0.1476
   0   9   2  93.899   0.604
   1   9   2 -0.1891  0.1484
   2   9   2  1.5632  0.1310
   3   9   2  22.490   0.281
   4   9   2  119.52    0.64
   5   9   2  60.406   0.487
   6   9   2 -0.2257  0.1710
   7   9   2  13.620   0.265
   8   9   2  2.9019  0.2178
   9   9   2  16.500   0.318
  10   9   2  0.7839  0.2033
  11   9   2  0.0029  0.2097
  12   9   2 -0.0421  0.1993
  13   9   2  0.5178  0.2282
  14   9   2  4.4416  0.2800
  15   9   2  0.1889  0.2664
  16   9   2  1.0405  0.2958
 -15  10   2  1.1931  0.2424
 -14  10   2  0.0877  0.2364
 -13  10   2  0.1715  0.2291
 -12  10   2  2.3585  0.2226
 -11  10   2  0.3617  0.2134
 -10  10   2  20.243   0.338
  -9  10   2  10.104   0.267
  -8  10   2  7.7208  0.2432
  -7  10   2  7.7084  0.2512
  -6  10   2  10.016   0.263
  -5  10   2  23.772   0.364
  -4  10   2  26.556   0.362
  -3  10   2  8.7567  0.2517
  -2  10   2  42.129   0.472
  -1  10   2  22.484   0.366
   0  10   2  33.057   0.386
   1  10   2  1.6219  0.1523
   2  10   2  10.555   0.227
   3  10   2  0.6902  0.1559
   4  10   2  18.753   0.311
   5  10   2  2.7173  0.1846
   6  10   2  60.451   0.543
   7  10   2  0.0980  0.2102
   8  10   2  20.227   0.386
   9  10   2  1.2777  0.2363
  10  10   2 -0.1089  0.2300
  11  10   2  13.802   0.346
  12  10   2  13.249   0.386
  13  10   2  17.030   0.421
  14  10   2  11.083   0.404
  15  10   2  0.0111  0.3035
 -14  11   2  6.6178  0.3009
 -13  11   2  1.2228  0.2464
 -12  11   2  0.7455  0.2240
 -11  11   2  16.286   0.356
 -10  11   2  4.4558  0.2638
  -9  11   2  4.8807  0.2718
  -8  11   2  0.9434  0.2397
  -7  11   2  1.3962  0.2589
  -6  11   2  3.0699  0.2603
  -5  11   2  47.424   0.561
  -4  11   2  1.9034  0.2407
  -3  11   2  37.274   0.458
  -2  11   2  37.240   0.481
  -1  11   2 -0.1487  0.2269
   0  11   2  44.943   0.508
   1  11   2  1.9626  0.1972
   2  11   2  63.056   0.545
   3  11   2  17.806   0.323
   4  11   2  17.783   0.330
   5  11   2  1.2834  0.1957
   6  11   2  4.8239  0.2527
   7  11   2  20.336   0.382
   8  11   2  5.5326  0.2999
   9  11   2  2.6394  0.2804
  10  11   2  6.2429  0.3128
  11  11   2  23.955   0.449
  12  11   2  18.817   0.443
  13  11   2  0.1478  0.2866
 -13  12   2  6.9603  0.3336
 -12  12   2  0.4122  0.2911
 -11  12   2  7.7169  0.3441
 -10  12   2  4.7885  0.3293
  -9  12   2  0.0901  0.2991
  -8  12   2  0.1983  0.3127
  -7  12   2  0.6160  0.3257
  -6  12   2 -0.7548  0.2735
  -5  12   2  5.4499  0.3156
  -4  12   2  44.127   0.588
  -3  12   2  1.2287  0.2547
  -2  12   2  3.8520  0.2638
  -1  12   2  0.1415  0.2201
   0  12   2 -0.0360  0.2369
   1  12   2  41.112   0.528
   2  12   2  7.3434  0.3235
   3  12   2  8.5040  0.2922
   4  12   2 -0.2568  0.2340
   5  12   2  0.1898  0.2230
   6  12   2  8.7765  0.3150
   7  12   2  6.0906  0.3264
   8  12   2  10.601   0.373
   9  12   2  5.2339  0.3152
  10  12   2  0.6802  0.2760
  11  12   2  4.8521  0.3206
  12  12   2  16.282   0.425
 -11  13   2  4.7132  0.3729
 -10  13   2 -0.0612  0.3301
  -9  13   2  2.4479  0.3256
  -8  13   2  1.8984  0.3170
  -7  13   2 -0.3966  0.3144
  -6  13   2  2.3310  0.2972
  -5  13   2  3.0915  0.3196
  -4  13   2  15.308   0.430
  -3  13   2  8.6314  0.3555
  -2  13   2  0.0573  0.2465
  -1  13   2 -0.4021  0.2500
   0  13   2  0.3041  0.2619
   1  13   2  1.8864  0.3001
   2  13   2  0.1614  0.2707
   3  13   2  1.7757  0.3058
   4  13   2  3.1605  0.3202
   5  13   2  9.6012  0.4171
   6  13   2  1.6771  0.3208
   7  13   2  5.5610  0.3451
   8  13   2  3.1518  0.3431
   9  13   2  2.4262  0.3130
  10  13   2  9.1242  0.4175
  -8  14   2  0.3704  0.3453
  -7  14   2  0.3528  0.3426
  -6  14   2  12.237   0.443
  -5  14   2  11.217   0.384
  -4  14   2  0.2925  0.2656
  -3  14   2  7.1100  0.3049
  -2  14   2  5.1218  0.2799
  -1  14   2 -0.5605  0.2442
   0  14   2  1.0446  0.2451
   1  14   2  0.3973  0.2551
   2  14   2  0.7318  0.2979
   3  14   2  2.3147  0.3649
   4  14   2  1.3989  0.3554
   5  14   2  2.0395  0.3744
   6  14   2  1.3261  0.3303
   7  14   2  0.1914  0.3431
  -4  15   2  1.3509  0.2759
  -3  15   2  1.6132  0.2958
  -2  15   2 -0.0834  0.3237
  -1  15   2  2.4972  0.2731
   0  15   2  17.862   0.416
   1  15   2  0.0411  0.2632
   2  15   2  0.4929  0.2419
   3  15   2 -0.0142  0.2610
 -20   0   3  0.5890  0.3693
 -19   0   3  0.1550  0.2937
 -18   0   3 -0.1123  0.3220
 -17   0   3 -0.3531  0.3115
 -16   0   3 -0.2452  0.3023
 -15   0   3  0.1153  0.2272
 -14   0   3 -0.2863  0.1984
 -13   0   3  0.3660  0.1680
 -12   0   3  0.3118  0.1476
 -11   0   3  0.4347  0.1255
 -10   0   3  0.0906  0.1440
  -9   0   3  0.2512  0.1232
  -8   0   3  0.1104  0.1200
  -7   0   3  0.2104  0.1117
  -5   0   3  0.2090  0.1021
  -4   0   3  0.2482  0.0950
  -3   0   3  0.0901  0.0878
  -2   0   3  0.2571  0.0876
  -1   0   3  0.2111  0.0976
   0   0   3  0.1162  0.1072
   1   0   3  0.3408  0.1186
   2   0   3 -0.0155  0.0889
   3   0   3  0.1806  0.1019
   4   0   3  0.1670  0.0938
   5   0   3  0.1983  0.1057
   6   0   3  0.3406  0.1217
   7   0   3  0.1108  0.1356
   8   0   3  0.0637  0.1327
   9   0   3 -0.0341  0.1431
  10   0   3  0.1413  0.1303
  11   0   3  0.0864  0.1294
  12   0   3 -0.1599  0.1503
  13   0   3  0.2501  0.1816
  14   0   3  0.0372  0.2042
  15   0   3 -0.3589  0.2358
  16   0   3  0.2015  0.2452
  17   0   3 -0.0096  0.2809
  18   0   3  0.1826  0.3187
  19   0   3 -0.2701  0.3233
 -20   1   3  2.6395  0.2977
 -19   1   3  12.382   0.330
 -18   1   3  0.8186  0.2246
 -17   1   3  1.3367  0.2185
 -16   1   3  14.117   0.287
 -15   1   3  2.9395  0.1801
 -14   1   3  5.7025  0.1683
 -13   1   3  34.128   0.274
 -12   1   3  125.78    0.47
 -11   1   3  55.909   0.308
 -10   1   3  69.945   0.369
  -9   1   3  92.439   0.420
  -8   1   3  65.423   0.347
  -7   1   3  0.4279  0.0934
  -6   1   3  0.6533  0.0917
  -5   1   3  333.79    1.23
  -4   1   3  325.99    1.35
  -3   1   3  13.894   0.265
  -2   1   3 1341.67    2.68
  -1   1   3  517.11    1.77
   0   1   3  156.97    1.02
   1   1   3  7.2390  0.1904
   2   1   3 1073.06    3.21
   3   1   3  49.544   0.430
   4   1   3  108.40    0.58
   5   1   3  27.934   0.267
   6   1   3  35.346   0.287
   7   1   3  11.632   0.165
   8   1   3  7.6775  0.1566
   9   1   3  4.8350  0.1362
  10   1   3  25.356   0.217
  11   1   3  1.7493  0.1132
  12   1   3  0.9595  0.1172
  13   1   3  8.5682  0.1824
  14   1   3  3.4496  0.1729
  15   1   3  3.5317  0.1836
  16   1   3 -0.0857  0.1889
  17   1   3  0.8776  0.2046
  18   1   3 -0.1968  0.2165
  19   1   3  2.0667  0.2514
 -20   2   3  15.092   0.384
 -19   2   3  19.665   0.386
 -18   2   3  8.6604  0.2965
 -17   2   3  0.1204  0.1987
 -16   2   3 -0.1807  0.1888
 -15   2   3  10.043   0.225
 -14   2   3  15.253   0.228
 -13   2   3  51.209   0.341
 -12   2   3  14.425   0.185
 -11   2   3  34.358   0.241
 -10   2   3  22.298   0.226
  -9   2   3  57.010   0.389
  -8   2   3  34.172   0.284
  -7   2   3  92.275   0.506
  -6   2   3  4.7221  0.1272
  -5   2   3  17.057   0.268
  -4   2   3 1132.01    3.17
  -3   2   3  16.325   0.294
  -2   2   3  557.69    1.86
  -1   2   3  0.3733  0.0827
   0   2   3  549.81    2.45
   1   2   3  502.38    1.96
   2   2   3  295.12    1.17
   3   2   3  691.82    1.96
   4   2   3  10.119   0.169
   5   2   3  0.4103  0.0765
   6   2   3  0.3612  0.0878
   7   2   3  3.6597  0.1186
   8   2   3  9.3623  0.1574
   9   2   3  7.3207  0.1523
  10   2   3  245.27    0.61
  11   2   3  56.526   0.301
  12   2   3  39.759   0.280
  13   2   3  0.3008  0.1389
  14   2   3  20.229   0.274
  15   2   3  2.4521  0.1838
  16   2   3  1.1158  0.1973
  17   2   3  3.0049  0.2366
  18   2   3 -0.0185  0.2249
  19   2   3  7.5107  0.3184
 -20   3   3  1.5421  0.3076
 -19   3   3  2.3201  0.2782
 -18   3   3  10.137   0.312
 -17   3   3 -0.1168  0.2194
 -16   3   3  3.0257  0.2040
 -15   3   3  4.6870  0.1901
 -14   3   3  5.8666  0.1939
 -13   3   3  65.513   0.410
 -12   3   3  31.233   0.258
 -11   3   3  5.2329  0.1294
 -10   3   3  37.166   0.300
  -9   3   3  0.3749  0.0990
  -8   3   3  56.382   0.404
  -7   3   3  4.0093  0.1266
  -6   3   3  29.137   0.273
  -5   3   3  11.574   0.189
  -4   3   3  38.350   0.378
  -3   3   3  124.56    0.85
  -2   3   3  71.158   0.587
  -1   3   3  576.18    1.83
   0   3   3  2.9878  0.1333
   1   3   3  253.25    1.04
   2   3   3 1244.00    2.97
   3   3   3  130.58    0.74
   4   3   3  40.705   0.400
   5   3   3  872.89    1.83
   6   3   3  75.481   0.469
   7   3   3  31.026   0.268
   8   3   3  150.46    0.54
   9   3   3  205.72    0.62
  10   3   3  0.4508  0.0942
  11   3   3  23.494   0.213
  12   3   3  50.282   0.326
  13   3   3 -0.0294  0.1442
  14   3   3  3.1439  0.1795
  15   3   3  12.022   0.251
  16   3   3  53.795   0.461
  17   3   3  0.2315  0.2327
  18   3   3  18.612   0.377
  19   3   3  4.8340  0.2956
 -20   4   3  5.9062  0.3182
 -19   4   3  0.1077  0.2474
 -18   4   3  19.011   0.371
 -17   4   3  2.6550  0.2347
 -16   4   3  10.016   0.269
 -15   4   3  0.8173  0.1870
 -14   4   3  3.7166  0.1967
 -13   4   3  13.164   0.225
 -12   4   3  1.3023  0.1381
 -11   4   3  92.742   0.406
 -10   4   3  0.9861  0.1031
  -9   4   3  21.849   0.230
  -8   4   3  49.400   0.334
  -7   4   3  8.3508  0.1595
  -6   4   3  7.7406  0.1473
  -5   4   3  35.657   0.301
  -4   4   3  304.18    1.21
  -3   4   3  0.8962  0.1263
  -2   4   3  920.95    2.37
  -1   4   3  595.16    2.02
   0   4   3  41.518   0.515
   1   4   3  55.247   0.531
   2   4   3  26.528   0.346
   3   4   3  284.26    1.24
   4   4   3  45.138   0.509
   5   4   3  205.05    1.03
   6   4   3  429.79    1.15
   7   4   3  42.452   0.319
   8   4   3  325.82    0.87
   9   4   3  6.0716  0.1238
  10   4   3  155.00    0.48
  11   4   3  36.914   0.259
  12   4   3  2.1315  0.1465
  13   4   3  59.886   0.404
  14   4   3  24.003   0.297
  15   4   3  64.772   0.498
  16   4   3  1.1860  0.2102
  17   4   3  10.283   0.314
  18   4   3  5.2003  0.2957
  19   4   3  1.3516  0.2547
 -19   5   3  4.8538  0.2809
 -18   5   3  1.7562  0.2507
 -17   5   3  33.772   0.402
 -16   5   3  1.8107  0.2001
 -15   5   3  5.3961  0.2171
 -14   5   3  43.125   0.376
 -13   5   3  32.299   0.318
 -12   5   3  8.9892  0.1942
 -11   5   3  8.4383  0.1671
 -10   5   3  84.287   0.365
  -9   5   3  0.4715  0.0930
  -8   5   3  58.533   0.377
  -7   5   3  14.984   0.192
  -6   5   3  180.55    0.65
  -5   5   3  33.296   0.278
  -4   5   3  10.336   0.168
  -3   5   3  84.459   0.579
  -2   5   3  226.31    0.95
   0   5   3  66.216   0.496
   1   5   3  66.267   0.466
   2   5   3  266.63    1.00
   3   5   3  17.528   0.292
   4   5   3  20.540   0.362
   5   5   3  223.70    0.97
   6   5   3  60.900   0.400
   7   5   3  26.357   0.266
   8   5   3  22.141   0.215
   9   5   3  170.60    0.52
  10   5   3  3.2924  0.1210
  11   5   3  2.0576  0.1283
  12   5   3  40.509   0.327
  13   5   3  0.3498  0.1619
  14   5   3  0.0535  0.1910
  15   5   3  11.898   0.283
  16   5   3  18.245   0.339
  17   5   3  0.1170  0.2328
  18   5   3  5.1351  0.2704
 -19   6   3  5.2857  0.3441
 -18   6   3  8.6865  0.3262
 -17   6   3 -0.1721  0.2182
 -16   6   3  33.084   0.400
 -15   6   3  2.3313  0.1988
 -14   6   3  36.128   0.364
 -13   6   3  28.024   0.314
 -12   6   3  17.086   0.244
 -11   6   3  142.54    0.55
 -10   6   3  2.8386  0.1410
  -9   6   3  91.785   0.409
  -8   6   3  210.72    0.60
  -7   6   3  22.412   0.261
  -6   6   3  54.510   0.350
  -5   6   3  89.550   0.505
  -4   6   3  170.43    0.65
  -3   6   3  10.700   0.179
  -2   6   3  106.82    0.55
  -1   6   3  29.845   0.304
   0   6   3  239.06    0.83
   1   6   3  7.1407  0.1688
   2   6   3  45.312   0.376
   3   6   3  175.33    0.78
   4   6   3  29.286   0.374
   5   6   3  55.427   0.485
   6   6   3  67.735   0.493
   7   6   3  8.6784  0.1818
   8   6   3  18.754   0.209
   9   6   3  15.992   0.205
  10   6   3  12.246   0.186
  11   6   3  25.229   0.262
  12   6   3  61.684   0.398
  13   6   3  1.8274  0.1691
  14   6   3  7.4750  0.2180
  15   6   3  20.822   0.331
  16   6   3  0.6753  0.2237
  17   6   3 -0.1969  0.2440
  18   6   3  19.199   0.415
 -18   7   3  0.0442  0.2619
 -17   7   3  24.684   0.415
 -16   7   3  2.6179  0.2460
 -15   7   3 -0.1581  0.2080
 -14   7   3  42.286   0.407
 -13   7   3  7.9917  0.2301
 -12   7   3  19.775   0.271
 -11   7   3  0.0467  0.1437
 -10   7   3  89.626   0.455
  -9   7   3  10.128   0.184
  -8   7   3  27.668   0.240
  -7   7   3  101.72    0.42
  -6   7   3  3.0186  0.1267
  -5   7   3  186.45    0.73
  -4   7   3  2.7724  0.1598
  -3   7   3  254.61    1.08
  -2   7   3  93.981   0.572
  -1   7   3  63.602   0.495
   0   7   3  349.93    1.13
   1   7   3  67.882   0.460
   2   7   3  207.43    0.88
   3   7   3  28.363   0.309
   4   7   3  30.139   0.326
   5   7   3  81.460   0.492
   6   7   3  139.92    0.60
   7   7   3  79.496   0.450
   8   7   3  0.1048  0.1299
   9   7   3  30.900   0.302
  10   7   3  38.958   0.340
  11   7   3  5.4219  0.1974
  12   7   3  91.376   0.564
  13   7   3  7.2820  0.2446
  14   7   3  20.538   0.361
  15   7   3 -0.3612  0.2349
  16   7   3  0.3886  0.2765
  17   7   3  6.4287  0.3607
 -17   8   3  1.1069  0.2519
 -16   8   3  29.506   0.426
 -15   8   3  9.9685  0.3005
 -14   8   3  3.8101  0.2421
 -13   8   3  11.643   0.276
 -12   8   3  7.4519  0.2211
 -11   8   3  8.4392  0.2197
 -10   8   3  82.888   0.477
  -9   8   3  44.791   0.337
  -8   8   3  268.37    0.80
  -7   8   3  1.1622  0.1309
  -6   8   3  106.38    0.46
  -5   8   3  108.96    0.45
  -4   8   3  50.184   0.336
  -3   8   3  109.20    0.51
  -2   8   3  180.67    0.71
  -1   8   3  186.76    0.74
   0   8   3  86.666   0.516
   1   8   3  52.531   0.383
   2   8   3  38.616   0.331
   3   8   3  10.344   0.198
   4   8   3  65.577   0.441
   5   8   3  67.134   0.433
   6   8   3  131.23    0.61
   7   8   3  14.073   0.242
   8   8   3  96.228   0.555
   9   8   3  44.366   0.399
  10   8   3  4.5486  0.1963
  11   8   3  78.264   0.530
  12   8   3  19.390   0.321
  13   8   3  34.866   0.430
  14   8   3  1.9058  0.2392
  15   8   3  40.719   0.507
  16   8   3  8.4712  0.3332
 -16   9   3  20.199   0.385
 -15   9   3  12.260   0.330
 -14   9   3  5.2311  0.2663
 -13   9   3  0.3542  0.2069
 -12   9   3  0.0350  0.1951
 -11   9   3  15.933   0.291
 -10   9   3  57.112   0.441
  -9   9   3  90.910   0.513
  -8   9   3  162.01    0.71
  -7   9   3  99.259   0.500
  -6   9   3  15.301   0.236
  -5   9   3  3.2318  0.1506
  -4   9   3  52.782   0.373
  -3   9   3  65.001   0.421
  -2   9   3  193.56    0.73
  -1   9   3  230.16    0.78
   0   9   3  290.10    0.90
   1   9   3  12.634   0.217
   2   9   3  108.02    0.58
   3   9   3  61.850   0.418
   4   9   3  46.968   0.405
   5   9   3  118.09    0.67
   6   9   3  31.451   0.340
   7   9   3  86.797   0.567
   8   9   3  0.7347  0.1886
   9   9   3  0.3993  0.1938
  10   9   3  19.568   0.331
  11   9   3  0.7510  0.2122
  12   9   3  8.4816  0.2962
  13   9   3 -0.2118  0.2542
  14   9   3  29.857   0.484
  15   9   3  5.1862  0.3208
 -15  10   3  4.0118  0.2543
 -14  10   3  5.5622  0.2743
 -13  10   3  25.912   0.391
 -12  10   3  3.2751  0.2378
 -11  10   3  18.235   0.348
 -10  10   3  25.115   0.353
  -9  10   3  54.797   0.470
  -8  10   3  61.897   0.499
  -7  10   3  18.429   0.314
  -6  10   3  184.74    0.81
  -5  10   3  4.3452  0.1973
  -4  10   3  99.231   0.575
  -3  10   3  39.481   0.409
  -2  10   3  114.74    0.69
  -1  10   3  85.032   0.595
   0  10   3  21.683   0.313
   1  10   3  78.006   0.507
   2  10   3  42.537   0.388
   3  10   3  0.3495  0.1538
   4  10   3  5.9236  0.2092
   5  10   3  8.3172  0.2332
   6  10   3  32.424   0.375
   7  10   3  20.425   0.331
   8  10   3  97.366   0.691
   9  10   3  4.3164  0.2458
  10  10   3  9.8620  0.2978
  11  10   3  11.051   0.331
  12  10   3  0.5329  0.2636
  13  10   3  21.403   0.455
  14  10   3  0.6706  0.3011
 -14  11   3  6.4293  0.2882
 -13  11   3  1.2059  0.2332
 -12  11   3  51.433   0.537
 -11  11   3  3.2586  0.2621
 -10  11   3  29.205   0.420
  -9  11   3  11.881   0.326
  -8  11   3  40.690   0.493
  -7  11   3  30.954   0.450
  -6  11   3  10.479   0.301
  -5  11   3  48.356   0.537
  -4  11   3 -0.3255  0.2181
  -3  11   3  62.108   0.568
  -2  11   3  12.301   0.319
  -1  11   3  44.203   0.488
   0  11   3  90.707   0.623
   1  11   3  8.8698  0.2513
   2  11   3  140.25    0.78
   3  11   3  20.797   0.351
   4  11   3  129.58    0.79
   5  11   3  20.799   0.344
   6  11   3  1.3978  0.2048
   7  11   3  26.036   0.406
   8  11   3  0.4323  0.2580
   9  11   3  0.5594  0.2638
  10  11   3  9.6840  0.3376
  11  11   3  5.6380  0.3121
  12  11   3  0.1336  0.2633
  13  11   3 -0.0445  0.2799
 -13  12   3  24.801   0.476
 -12  12   3  2.7513  0.3006
 -11  12   3  8.4535  0.4025
 -10  12   3  7.0567  0.3644
  -9  12   3  2.0356  0.3415
  -8  12   3  18.126   0.492
  -7  12   3  5.1279  0.3706
  -6  12   3  115.47    0.91
  -5  12   3  2.4508  0.2851
  -4  12   3  59.324   0.643
  -3  12   3  47.726   0.580
  -2  12   3  45.408   0.518
  -1  12   3 -0.0658  0.2074
   0  12   3  7.2680  0.2623
   1  12   3  21.544   0.386
   2  12   3  4.4785  0.2589
   3  12   3  29.516   0.427
   4  12   3  21.653   0.407
   5  12   3  29.137   0.444
   6  12   3  2.5480  0.2819
   7  12   3  1.1380  0.2602
   8  12   3  17.021   0.414
   9  12   3  12.924   0.379
  10  12   3  56.545   0.618
  11  12   3  24.759   0.454
  12  12   3  25.412   0.477
 -11  13   3  2.3116  0.3644
 -10  13   3  0.2985  0.3045
  -9  13   3 -0.5699  0.3190
  -8  13   3 -0.0388  0.2979
  -7  13   3  4.1911  0.3617
  -6  13   3 -0.5478  0.2735
  -5  13   3  70.833   0.728
  -4  13   3  0.6216  0.2634
  -3  13   3  18.965   0.401
  -2  13   3  10.711   0.298
  -1  13   3  14.365   0.366
   0  13   3  70.499   0.703
   1  13   3  12.642   0.382
   2  13   3  90.609   0.853
   3  13   3  20.588   0.461
   4  13   3  45.678   0.629
   5  13   3  13.454   0.353
   6  13   3  7.0286  0.3424
   7  13   3  42.930   0.629
   8  13   3 -0.0477  0.2912
   9  13   3  5.4145  0.3690
  10  13   3  17.761   0.466
  -8  14   3  15.316   0.478
  -7  14   3  1.6978  0.3442
  -6  14   3  39.981   0.682
  -5  14   3  0.2553  0.2877
  -4  14   3  4.4504  0.2863
  -3  14   3  9.0825  0.3453
  -2  14   3  2.4243  0.2935
  -1  14   3 -0.1022  0.2519
   0  14   3  0.3644  0.2485
   1  14   3  19.273   0.444
   2  14   3  5.2576  0.3337
   3  14   3  9.2493  0.3943
   4  14   3  5.0316  0.3563
   5  14   3  0.8293  0.3389
   6  14   3  14.238   0.449
   7  14   3  5.4883  0.3845
  -4  15   3  0.3438  0.2991
  -3  15   3  5.1403  0.3628
  -2  15   3  12.268   0.399
  -1  15   3  1.3050  0.2907
   0  15   3  15.634   0.408
   1  15   3 -0.0744  0.2475
   2  15   3  10.228   0.337
   3  15   3  3.9661  0.3036
 -20   0   4  12.915   0.487
 -19   0   4  14.007   0.498
 -18   0   4  4.7434  0.3838
 -17   0   4  10.928   0.465
 -16   0   4  88.718   0.857
 -15   0   4 -0.2237  0.2425
 -14   0   4  219.58    0.97
 -13   0   4  1.2818  0.1791
 -12   0   4  529.47    1.31
 -11   0   4  9.0800  0.2547
 -10   0   4  194.07    0.85
  -9   0   4  789.94    1.71
  -8   0   4  2.0484  0.1299
  -7   0   4  872.59    2.31
  -6   0   4  113.55    0.76
  -5   0   4  209.06    1.15
  -4   0   4  135.20    1.02
  -3   0   4  128.77    1.23
  -1   0   4  174.36    1.24
   0   0   4 1368.62    6.56
   2   0   4  574.81    2.57
   3   0   4  29.432   0.415
   4   0   4  16.318   0.325
   5   0   4  26.116   0.428
   6   0   4  322.02    1.26
   7   0   4  342.76    1.20
   8   0   4  48.848   0.431
   9   0   4  395.27    1.35
  10   0   4  223.39    0.77
  11   0   4  34.764   0.339
  12   0   4  203.77    0.82
  13   0   4  4.9367  0.2441
  14   0   4  69.880   0.645
  15   0   4  43.118   0.528
  16   0   4  6.6410  0.3318
  17   0   4  54.324   0.723
  18   0   4  18.025   0.486
  19   0   4  9.3896  0.4642
 -20   1   4  5.1474  0.2910
 -19   1   4  7.9708  0.3110
 -18   1   4  37.520   0.495
 -17   1   4  82.442   0.641
 -16   1   4  13.807   0.280
 -15   1   4  109.02    0.58
 -14   1   4  106.30    0.51
 -13   1   4  68.195   0.395
 -12   1   4  26.228   0.231
 -11   1   4  16.365   0.185
 -10   1   4  382.41    0.91
  -9   1   4  69.638   0.363
  -8   1   4  427.58    0.90
  -7   1   4  1.0337  0.0997
  -6   1   4  231.59    0.89
  -5   1   4  120.01    0.75
  -4   1   4  83.846   0.637
  -3   1   4  676.87    1.92
  -2   1   4 2521.78    4.98
  -1   1   4  29.384   0.349
   0   1   4 1322.46    4.38
   2   1   4  981.05    2.42
   3   1   4  342.49    1.09
   4   1   4  284.43    0.91
   5   1   4  210.96    0.72
   6   1   4  797.32    1.35
   7   1   4  259.39    0.67
   8   1   4  24.918   0.223
   9   1   4  440.64    0.99
  10   1   4  42.410   0.265
  11   1   4  130.22    0.46
  12   1   4  44.443   0.308
  13   1   4  71.200   0.427
  14   1   4  16.563   0.252
  15   1   4  18.785   0.292
  16   1   4  84.017   0.563
  17   1   4  2.1963  0.2242
  18   1   4 -0.1808  0.2145
  19   1   4  7.4971  0.3228
 -20   2   4  15.712   0.392
 -19   2   4 -0.5686  0.2749
 -18   2   4  27.006   0.430
 -17   2   4  5.6272  0.2475
 -16   2   4  70.780   0.515
 -15   2   4  1.2546  0.1768
 -14   2   4  54.676   0.385
 -13   2   4  42.555   0.306
 -12   2   4  84.096   0.387
 -11   2   4  113.23    0.47
 -10   2   4  19.156   0.222
  -9   2   4  703.76    1.31
  -8   2   4  7.1105  0.1572
  -7   2   4  173.81    0.64
  -6   2   4  243.30    0.83
  -5   2   4  441.45    1.15
  -4   2   4 2492.07    4.84
  -3   2   4  0.8706  0.1146
  -2   2   4 1037.37    2.52
  -1   2   4  709.65    2.19
   0   2   4  518.92    1.87
   1   2   4  716.86    2.36
   2   2   4  129.28    0.70
   3   2   4  395.58    1.13
   4   2   4  8.9118  0.1909
   5   2   4  65.505   0.439
   6   2   4  423.45    1.01
   7   2   4  352.45    0.82
   8   2   4  140.57    0.52
   9   2   4  22.880   0.226
  10   2   4  304.58    0.69
  11   2   4  31.125   0.258
  12   2   4  206.91    0.66
  13   2   4  61.551   0.404
  14   2   4  77.396   0.489
  15   2   4  126.45    0.64
  16   2   4  11.845   0.281
  17   2   4  33.944   0.413
  18   2   4  1.5809  0.2593
  19   2   4  4.2842  0.2684
 -20   3   4  8.5793  0.3649
 -19   3   4  40.312   0.527
 -18   3   4  24.051   0.421
 -17   3   4  11.994   0.330
 -16   3   4 -0.2768  0.2021
 -15   3   4  2.9938  0.1876
 -14   3   4  73.818   0.440
 -13   3   4  67.706   0.395
 -12   3   4  57.827   0.331
 -11   3   4  4.0505  0.1338
 -10   3   4  285.77    0.75
  -9   3   4  47.595   0.356
  -8   3   4  381.64    1.00
  -7   3   4  55.727   0.400
  -6   3   4  221.06    0.79
  -5   3   4  45.794   0.394
  -4   3   4  14.232   0.263
  -3   3   4  506.40    1.69
  -2   3   4  12.079   0.259
  -1   3   4  244.03    1.02
   0   3   4  154.77    1.00
   1   3   4  585.36    1.84
   2   3   4  352.20    1.00
   3   3   4  1.0483  0.1227
   4   3   4  755.66    1.86
   5   3   4  806.15    1.91
   6   3   4  971.97    1.77
   7   3   4  289.81    0.74
   8   3   4  67.824   0.379
   9   3   4  79.930   0.369
  10   3   4  40.119   0.264
  11   3   4  85.351   0.401
  12   3   4  54.679   0.354
  13   3   4  44.578   0.352
  14   3   4  18.488   0.264
  15   3   4  0.5541  0.1830
  16   3   4  61.565   0.518
  17   3   4  0.7790  0.2328
  18   3   4  9.1825  0.3175
  19   3   4  11.283   0.314
 -20   4   4  0.1096  0.2740
 -19   4   4  15.256   0.370
 -18   4   4  7.3390  0.2933
 -17   4   4  12.685   0.317
 -16   4   4  11.846   0.284
 -15   4   4 -0.0732  0.1782
 -14   4   4  126.94    0.58
 -13   4   4  20.862   0.258
 -12   4   4  176.34    0.62
 -11   4   4  20.059   0.208
 -10   4   4  0.3989  0.1003
  -9   4   4  70.752   0.397
  -8   4   4  0.3461  0.0971
  -7   4   4  133.29    0.56
  -6   4   4  82.897   0.421
  -5   4   4  154.08    0.59
  -4   4   4 1276.17    2.19
  -3   4   4  0.3205  0.1107
  -2   4   4  455.28    1.36
  -1   4   4  479.13    1.76
   0   4   4  85.100   0.602
   1   4   4  476.93    1.26
   2   4   4  372.99    1.13
   3   4   4  76.675   0.599
   4   4   4  15.084   0.275
   5   4   4  5.5339  0.1510
   6   4   4  27.257   0.267
   7   4   4  26.067   0.248
   8   4   4  3.1077  0.1179
   9   4   4  38.778   0.237
  10   4   4  147.34    0.47
  11   4   4  2.6368  0.1404
  12   4   4  87.395   0.467
  13   4   4  41.944   0.372
  14   4   4  5.4830  0.2106
  15   4   4  53.319   0.460
  16   4   4  0.1243  0.2282
  17   4   4  7.5803  0.2951
  18   4   4  0.3773  0.2464
 -19   5   4  6.6900  0.3055
 -18   5   4  12.560   0.329
 -17   5   4 -0.0941  0.2335
 -16   5   4  0.6131  0.2017
 -15   5   4  4.0626  0.2096
 -14   5   4  2.1969  0.1844
 -13   5   4  106.93    0.55
 -12   5   4  24.135   0.256
 -11   5   4  14.046   0.191
 -10   5   4  40.813   0.252
  -9   5   4  92.255   0.406
  -8   5   4  101.50    0.52
  -7   5   4  22.084   0.223
  -6   5   4  154.66    0.59
  -5   5   4  314.29    0.90
  -4   5   4  317.39    0.93
  -3   5   4  81.868   0.451
  -2   5   4  51.818   0.432
  -1   5   4  61.095   0.435
   0   5   4  89.741   0.443
   1   5   4  402.50    0.99
   2   5   4  629.13    1.58
   3   5   4  641.39    1.48
   4   5   4  303.79    1.06
   5   5   4  58.155   0.471
   6   5   4  15.877   0.211
   7   5   4  166.13    0.58
   8   5   4  7.2558  0.1464
   9   5   4  62.386   0.309
  10   5   4  11.695   0.168
  11   5   4  23.215   0.254
  12   5   4  2.8326  0.1693
  13   5   4  47.969   0.404
  14   5   4  6.6498  0.2317
  15   5   4  16.618   0.309
  16   5   4  18.898   0.364
  17   5   4  3.0396  0.2613
  18   5   4  7.7730  0.3111
 -19   6   4  4.6383  0.3510
 -18   6   4  2.4275  0.2531
 -17   6   4 -0.1473  0.2234
 -16   6   4  7.7720  0.2603
 -15   6   4  31.587   0.368
 -14   6   4  67.707   0.484
 -13   6   4  4.8755  0.1974
 -12   6   4  145.66    0.58
 -11   6   4  0.4994  0.1391
 -10   6   4  19.854   0.216
  -9   6   4  8.3818  0.1562
  -8   6   4  115.64    0.45
  -7   6   4  112.03    0.50
  -6   6   4  208.58    0.74
  -5   6   4  152.13    0.66
  -4   6   4  500.26    1.20
  -3   6   4  74.559   0.448
  -2   6   4  205.24    0.74
  -1   6   4  307.45    0.97
   0   6   4  58.206   0.393
   1   6   4  446.21    1.16
   2   6   4  641.42    1.41
   3   6   4  47.826   0.426
   4   6   4  0.3628  0.1209
   5   6   4  29.452   0.362
   6   6   4  7.7694  0.1840
   7   6   4  1.5791  0.1173
   8   6   4  3.1941  0.1285
   9   6   4  26.608   0.241
  10   6   4  80.713   0.413
  11   6   4  1.1379  0.1385
  12   6   4  104.17    0.56
  13   6   4  0.4286  0.1653
  14   6   4  4.7375  0.2186
  15   6   4  23.136   0.358
  16   6   4  0.5550  0.2399
  17   6   4  21.984   0.406
 -18   7   4  9.7182  0.3490
 -17   7   4 -0.2670  0.2445
 -16   7   4  2.8047  0.2462
 -15   7   4  1.0371  0.2102
 -14   7   4  19.747   0.306
 -13   7   4  1.5708  0.1711
 -12   7   4  68.363   0.432
 -11   7   4  15.707   0.232
 -10   7   4  16.662   0.230
  -9   7   4  181.80    0.62
  -8   7   4  67.552   0.350
  -7   7   4  0.2075  0.0989
  -6   7   4  4.1475  0.1256
  -5   7   4  206.44    0.71
  -4   7   4  71.526   0.460
  -3   7   4  177.33    0.75
  -2   7   4  16.575   0.255
  -1   7   4  73.115   0.495
   0   7   4  123.74    0.61
   1   7   4  87.712   0.521
   2   7   4  302.97    0.98
   3   7   4  41.303   0.352
   4   7   4  138.47    0.62
   5   7   4  93.287   0.479
   6   7   4  126.54    0.55
   7   7   4  57.770   0.402
   8   7   4  107.32    0.53
   9   7   4  16.268   0.254
  10   7   4  1.7498  0.1605
  11   7   4  71.441   0.496
  12   7   4  5.2875  0.2338
  13   7   4  5.4460  0.2443
  14   7   4  21.903   0.387
  15   7   4 -0.3862  0.2441
  16   7   4  3.2628  0.3041
  17   7   4  0.8313  0.2861
 -17   8   4  5.5176  0.2928
 -16   8   4  1.8000  0.2548
 -15   8   4 -0.2772  0.2229
 -14   8   4  0.8412  0.2111
 -13   8   4  2.0848  0.2020
 -12   8   4  7.0780  0.2163
 -11   8   4  33.743   0.338
 -10   8   4  11.732   0.229
  -9   8   4  120.96    0.54
  -8   8   4  4.3717  0.1672
  -7   8   4  1.1111  0.1271
  -6   8   4  66.961   0.374
  -5   8   4  53.498   0.333
  -4   8   4  280.74    0.81
  -3   8   4  19.974   0.243
  -2   8   4  152.86    0.65
  -1   8   4  4.5635  0.1659
   0   8   4  0.9242  0.1329
   1   8   4  111.70    0.48
   2   8   4  170.19    0.59
   3   8   4  1.2026  0.1151
   4   8   4  8.7040  0.1904
   5   8   4  47.729   0.374
   6   8   4  7.1932  0.1878
   7   8   4  3.9672  0.1679
   8   8   4  10.666   0.240
   9   8   4  3.3629  0.1917
  10   8   4 -0.2444  0.1697
  11   8   4  10.238   0.267
  12   8   4  9.3532  0.2836
  13   8   4  0.5056  0.2307
  14   8   4  2.3005  0.2466
  15   8   4  19.145   0.419
  16   8   4  10.170   0.361
 -17   9   4  1.4473  0.2511
 -16   9   4  4.1733  0.2852
 -15   9   4  3.5655  0.2570
 -14   9   4  5.0699  0.2648
 -13   9   4 -0.1449  0.2071
 -12   9   4  5.3806  0.2255
 -11   9   4  0.2959  0.1774
 -10   9   4 -0.1308  0.1678
  -9   9   4  8.1294  0.2140
  -8   9   4  72.049   0.447
  -7   9   4  67.632   0.432
  -6   9   4  0.2817  0.1462
  -5   9   4 -0.0533  0.1433
  -4   9   4  39.352   0.322
  -3   9   4  7.6694  0.1853
  -2   9   4  12.269   0.219
  -1   9   4  58.916   0.382
   0   9   4  0.1320  0.1300
   1   9   4  0.8003  0.1320
   2   9   4  0.4007  0.1236
   3   9   4  12.494   0.224
   4   9   4  0.0052  0.1609
   5   9   4  18.563   0.268
   6   9   4  67.793   0.474
   7   9   4  1.7253  0.1783
   8   9   4  32.458   0.391
   9   9   4  19.502   0.311
  10   9   4  38.113   0.420
  11   9   4  10.331   0.293
  12   9   4 -0.0714  0.2234
  13   9   4  2.7168  0.2756
  14   9   4  0.9504  0.2768
  15   9   4  0.5925  0.2981
 -15  10   4  1.1904  0.2366
 -14  10   4  13.263   0.329
 -13  10   4  7.7226  0.2961
 -12  10   4  7.9259  0.2772
 -11  10   4  3.7354  0.2317
 -10  10   4  8.6331  0.2515
  -9  10   4  20.727   0.331
  -8  10   4  2.9829  0.2124
  -7  10   4  5.6317  0.2118
  -6  10   4 -0.0692  0.1712
  -5  10   4  13.200   0.251
  -4  10   4  2.4557  0.1687
  -3  10   4  0.1353  0.1506
  -2  10   4  17.589   0.264
  -1  10   4  7.7252  0.2088
   0  10   4  2.2665  0.1601
   1  10   4  24.985   0.304
   2  10   4  8.0633  0.2326
   3  10   4  34.079   0.388
   4  10   4  2.8482  0.1806
   5  10   4  4.6913  0.2044
   6  10   4  8.2367  0.2496
   7  10   4  2.4340  0.2112
   8  10   4  0.0729  0.2129
   9  10   4  9.9452  0.2991
  10  10   4  0.0761  0.2085
  11  10   4  9.3723  0.3188
  12  10   4  12.452   0.361
  13  10   4  10.457   0.386
  14  10   4 -0.0153  0.3034
 -14  11   4  0.4565  0.2432
 -13  11   4  2.2186  0.2367
 -12  11   4  0.6323  0.2350
 -11  11   4  1.5122  0.2353
 -10  11   4  1.2852  0.2372
  -9  11   4  2.0794  0.2491
  -8  11   4  32.752   0.459
  -7  11   4  2.8197  0.2373
  -6  11   4  29.200   0.402
  -5  11   4  8.6968  0.2673
  -4  11   4  1.4828  0.2129
  -3  11   4  1.3291  0.2101
  -2  11   4  35.599   0.449
  -1  11   4  8.3941  0.2442
   0  11   4  4.6684  0.2054
   1  11   4  10.053   0.250
   2  11   4  42.945   0.434
   3  11   4 -0.0110  0.2045
   4  11   4  4.5419  0.2469
   5  11   4  1.4675  0.2154
   6  11   4  5.3385  0.2547
   7  11   4  17.480   0.346
   8  11   4  0.1078  0.2486
   9  11   4  1.2708  0.2547
  10  11   4  17.452   0.375
  11  11   4  8.6216  0.3291
  12  11   4  13.650   0.380
  13  11   4 -0.1223  0.3008
 -13  12   4  0.1896  0.2525
 -12  12   4  0.4117  0.2482
 -11  12   4  3.2570  0.2831
 -10  12   4  0.3173  0.2722
  -9  12   4  1.3628  0.2858
  -8  12   4  2.3511  0.3046
  -7  12   4  2.0132  0.3061
  -6  12   4  9.2799  0.3314
  -5  12   4  9.6019  0.3283
  -4  12   4  1.2160  0.2481
  -3  12   4  0.6040  0.2192
  -2  12   4  8.2755  0.2681
  -1  12   4  2.7480  0.2210
   0  12   4  2.1484  0.2242
   1  12   4  10.468   0.302
   2  12   4  8.1300  0.2772
   3  12   4  20.164   0.383
   4  12   4  14.582   0.327
   5  12   4 -0.0790  0.2433
   6  12   4 -0.0410  0.2478
   7  12   4  7.6849  0.3433
   8  12   4  0.6169  0.2685
   9  12   4  8.2138  0.3525
  10  12   4  8.9373  0.3471
  11  12   4  6.1869  0.3415
 -11  13   4  0.4084  0.3437
 -10  13   4  1.3297  0.3248
  -9  13   4 -0.3510  0.3299
  -8  13   4  10.673   0.432
  -7  13   4  12.459   0.474
  -6  13   4  6.9001  0.3817
  -5  13   4  9.9838  0.3946
  -4  13   4  5.7101  0.2959
  -3  13   4  4.5404  0.2713
  -2  13   4  10.301   0.346
  -1  13   4  3.7315  0.2797
   0  13   4  11.525   0.370
   1  13   4  0.0042  0.2723
   2  13   4  10.665   0.390
   3  13   4  3.7866  0.2969
   4  13   4  0.9472  0.2450
   5  13   4  14.654   0.363
   6  13   4  6.2553  0.3171
   7  13   4  0.0078  0.2626
   8  13   4  0.5548  0.2696
   9  13   4  13.895   0.412
  -8  14   4  25.393   0.560
  -7  14   4  0.7054  0.3000
  -6  14   4  19.179   0.447
  -5  14   4  5.2813  0.3085
  -4  14   4  0.8224  0.2723
  -3  14   4  6.0590  0.3486
  -2  14   4  5.8874  0.3567
  -1  14   4  3.7472  0.3399
   0  14   4  9.1147  0.3683
   1  14   4  1.6978  0.2669
   2  14   4 -0.3684  0.2880
   3  14   4  12.075   0.417
   4  14   4  0.7834  0.3066
   5  14   4  19.602   0.484
   6  14   4 -0.0824  0.3061
   7  14   4 -0.1741  0.2827
  -3  15   4  2.6834  0.3345
  -2  15   4  2.3674  0.3032
  -1  15   4  18.393   0.445
   0  15   4  1.0398  0.2695
   1  15   4 -0.4438  0.2753
   2  15   4  1.3591  0.2481
 -20   0   5  0.4686  0.3256
 -19   0   5  0.6437  0.3665
 -18   0   5 -0.3331  0.3552
 -17   0   5 -0.1692  0.3212
 -16   0   5 -0.4217  0.2792
 -15   0   5  0.1229  0.2464
 -14   0   5 -0.2160  0.2194
 -13   0   5 -0.0192  0.1742
 -12   0   5  0.5002  0.1633
 -11   0   5  0.0348  0.1633
 -10   0   5  0.0151  0.1489
  -9   0   5  0.4373  0.1526
  -8   0   5  0.1535  0.1244
  -7   0   5  0.0571  0.1075
  -6   0   5  0.1239  0.1142
  -5   0   5  0.3061  0.1166
  -4   0   5  0.3228  0.1291
  -3   0   5  0.0864  0.0719
  -2   0   5  0.2297  0.1278
  -1   0   5  0.0712  0.1179
   0   0   5  0.2265  0.1095
   1   0   5  0.3368  0.1164
   2   0   5  0.2085  0.1076
   3   0   5  0.0921  0.1120
   4   0   5  0.0252  0.1075
   6   0   5  0.1852  0.1229
   7   0   5  0.1485  0.1189
   8   0   5  0.2778  0.1481
   9   0   5  0.4745  0.1656
  10   0   5  0.3049  0.1283
  11   0   5 -0.2003  0.1456
  12   0   5 -0.2499  0.1801
  13   0   5 -0.3847  0.1919
  14   0   5  0.1251  0.2246
  15   0   5  0.5214  0.2594
  16   0   5  0.2996  0.2980
  17   0   5 -0.4580  0.3603
  18   0   5 -0.3166  0.3438
  19   0   5 -0.2649  0.3243
 -20   1   5  0.7553  0.2688
 -19   1   5  0.5961  0.2355
 -18   1   5  1.0456  0.2594
 -17   1   5  5.0791  0.2716
 -16   1   5  0.9288  0.2083
 -15   1   5  3.5325  0.1897
 -14   1   5  56.539   0.402
 -13   1   5 -0.1295  0.1213
 -12   1   5  54.850   0.313
 -11   1   5  6.6684  0.1537
 -10   1   5  10.531   0.179
  -9   1   5  3.2509  0.1210
  -8   1   5  17.062   0.211
  -7   1   5  135.58    0.62
  -6   1   5  52.955   0.424
  -5   1   5  210.78    0.95
  -4   1   5  134.57    0.74
  -3   1   5  0.6816  0.0962
  -2   1   5  142.53    0.78
  -1   1   5  778.73    2.33
   0   1   5  14.492   0.242
   1   1   5  0.3311  0.0795
   2   1   5  564.08    1.34
   3   1   5  0.3308  0.0868
   4   1   5  0.7339  0.0822
   5   1   5  49.614   0.346
   6   1   5  21.110   0.218
   7   1   5  134.47    0.50
   8   1   5  0.2037  0.1007
   9   1   5  12.161   0.176
  10   1   5  6.2362  0.1344
  11   1   5  3.2546  0.1263
  12   1   5  9.9437  0.1828
  13   1   5  20.610   0.251
  14   1   5  25.194   0.305
  15   1   5  1.0183  0.2007
  16   1   5  5.2334  0.2476
  17   1   5  12.702   0.300
  18   1   5 -0.1623  0.2434
  19   1   5  0.7290  0.2598
 -20   2   5  0.4496  0.2787
 -19   2   5  2.3577  0.2749
 -18   2   5 -0.2674  0.2363
 -17   2   5  0.5196  0.2091
 -16   2   5  6.0119  0.2418
 -15   2   5  13.641   0.267
 -14   2   5  24.710   0.297
 -13   2   5  1.7895  0.1323
 -12   2   5  134.86    0.49
 -11   2   5  0.3481  0.1078
 -10   2   5  31.468   0.264
  -9   2   5  7.9639  0.1526
  -8   2   5  1.1117  0.1067
  -7   2   5  1.8851  0.1081
  -6   2   5  375.03    1.00
  -5   2   5  679.71    1.79
  -4   2   5  669.19    2.15
  -3   2   5  15.781   0.258
  -2   2   5  3.9932  0.1528
  -1   2   5  688.23    1.92
   0   2   5  140.04    0.73
   1   2   5  58.379   0.481
   2   2   5  138.52    0.66
   3   2   5  36.158   0.346
   4   2   5  137.57    0.71
   5   2   5  59.777   0.435
   6   2   5  531.44    1.12
   7   2   5  7.8910  0.1350
   8   2   5  25.950   0.239
   9   2   5  34.710   0.252
  10   2   5  0.1463  0.1035
  11   2   5  9.2223  0.1687
  12   2   5  5.4034  0.1608
  13   2   5  107.40    0.53
  14   2   5  12.716   0.249
  15   2   5  5.4003  0.2283
  16   2   5  0.5870  0.2097
  17   2   5  0.3149  0.2286
  18   2   5  3.1100  0.2593
 -20   3   5  14.039   0.392
 -19   3   5  9.3818  0.3470
 -18   3   5  6.5604  0.3417
 -17   3   5  6.8522  0.2766
 -16   3   5  14.264   0.302
 -15   3   5  12.162   0.255
 -14   3   5 -0.0056  0.1653
 -13   3   5  104.20    0.48
 -12   3   5  0.3984  0.1211
 -11   3   5  78.386   0.370
 -10   3   5  70.670   0.367
  -9   3   5  4.6016  0.1479
  -8   3   5  36.811   0.293
  -7   3   5  3.2987  0.1131
  -6   3   5  743.38    1.57
  -5   3   5  42.251   0.348
  -4   3   5  58.188   0.455
  -3   3   5  155.08    0.80
  -1   3   5  334.47    1.29
   0   3   5  3.3688  0.1510
   1   3   5  272.99    0.96
   2   3   5  414.11    1.14
   3   3   5  37.785   0.397
   4   3   5  221.05    1.02
   5   3   5  24.370   0.267
   6   3   5  51.236   0.329
   7   3   5  132.24    0.49
   8   3   5  100.92    0.48
   9   3   5  10.870   0.157
  10   3   5  32.335   0.248
  11   3   5  51.257   0.330
  12   3   5  11.975   0.202
  13   3   5  29.370   0.291
  14   3   5  3.2129  0.1844
  15   3   5  10.715   0.264
  16   3   5 -0.0894  0.2294
  17   3   5  28.354   0.419
  18   3   5  1.6026  0.2380
 -20   4   5  0.4966  0.2994
 -19   4   5  19.199   0.429
 -18   4   5  0.1616  0.2603
 -17   4   5  4.7941  0.2564
 -16   4   5  31.358   0.388
 -15   4   5  0.2968  0.1842
 -14   4   5  31.864   0.331
 -13   4   5  6.3940  0.1871
 -12   4   5  200.77    0.63
 -11   4   5  9.1103  0.1670
 -10   4   5  17.167   0.197
  -9   4   5  124.46    0.50
  -8   4   5  110.65    0.47
  -7   4   5  13.314   0.193
  -6   4   5  5.5661  0.1431
  -5   4   5  362.41    0.91
  -4   4   5  76.660   0.430
  -3   4   5  89.197   0.504
  -2   4   5  141.70    0.61
  -1   4   5  3.4348  0.1284
   0   4   5  1.2585  0.1028
   1   4   5  0.3614  0.0851
   2   4   5  34.470   0.318
   3   4   5  415.21    1.25
   4   4   5  70.585   0.530
   5   4   5  74.543   0.464
   6   4   5  42.617   0.344
   7   4   5  16.283   0.195
   8   4   5  0.4542  0.0902
   9   4   5  0.3803  0.0921
  10   4   5  125.99    0.47
  11   4   5  38.487   0.296
  12   4   5  25.705   0.288
  13   4   5  23.486   0.299
  14   4   5  42.320   0.406
  15   4   5 -0.3606  0.2143
  16   4   5  11.135   0.320
  17   4   5  7.1835  0.2996
  18   4   5  6.8987  0.3117
 -19   5   5  0.4385  0.2518
 -18   5   5  34.452   0.491
 -17   5   5  0.5718  0.2314
 -16   5   5  7.2287  0.2662
 -15   5   5  14.062   0.271
 -14   5   5  0.5915  0.1764
 -13   5   5  82.643   0.494
 -12   5   5  7.9690  0.1765
 -11   5   5  66.142   0.348
 -10   5   5  31.229   0.241
  -9   5   5  6.9096  0.1383
  -8   5   5  1.8986  0.1205
  -7   5   5  19.871   0.216
  -6   5   5  203.98    0.73
  -5   5   5  43.027   0.305
  -4   5   5  75.535   0.417
  -3   5   5  45.943   0.331
  -2   5   5  133.90    0.56
  -1   5   5  4.4625  0.1364
   0   5   5  41.526   0.331
   1   5   5  151.84    0.66
   2   5   5  22.296   0.281
   3   5   5  26.943   0.349
   4   5   5  97.986   0.541
   5   5   5  2.9570  0.1253
   6   5   5  23.861   0.270
   7   5   5  13.203   0.171
   8   5   5  71.674   0.340
   9   5   5  11.573   0.157
  10   5   5  8.7811  0.1651
  11   5   5  77.218   0.425
  12   5   5  13.844   0.247
  13   5   5  61.888   0.474
  14   5   5  5.8725  0.2358
  15   5   5  1.0786  0.2180
  16   5   5  6.6037  0.2910
  17   5   5 -0.2786  0.2331
  18   5   5  1.6348  0.2388
 -19   6   5  6.4319  0.3509
 -18   6   5  0.3152  0.2246
 -17   6   5  2.1678  0.2401
 -16   6   5  9.7304  0.2829
 -15   6   5  7.8583  0.2523
 -14   6   5  0.1772  0.1823
 -13   6   5  2.5699  0.1713
 -12   6   5  49.603   0.364
 -11   6   5  31.363   0.266
 -10   6   5  66.362   0.345
  -9   6   5  60.924   0.338
  -8   6   5  109.04    0.43
  -7   6   5  88.591   0.388
  -6   6   5  11.409   0.198
  -5   6   5  93.796   0.492
  -4   6   5  3.7181  0.1428
  -3   6   5  2.9951  0.1403
  -2   6   5  48.604   0.379
  -1   6   5  12.138   0.209
   0   6   5  164.30    0.66
   1   6   5  3.1710  0.1310
   2   6   5  58.448   0.408
   3   6   5  42.329   0.388
   4   6   5  31.105   0.332
   5   6   5  34.733   0.316
   6   6   5  32.832   0.271
   7   6   5  113.18    0.47
   8   6   5  16.674   0.213
   9   6   5  7.0390  0.1635
  10   6   5  36.808   0.318
  11   6   5  2.9607  0.1663
  12   6   5  2.0063  0.1809
  13   6   5  11.733   0.261
  14   6   5  13.984   0.301
  15   6   5  0.2451  0.2092
  16   6   5  2.3401  0.2441
  17   6   5  16.621   0.358
 -18   7   5  16.349   0.380
 -17   7   5  6.1553  0.2844
 -16   7   5  29.995   0.410
 -15   7   5  57.122   0.497
 -14   7   5  8.7921  0.2380
 -13   7   5  2.7530  0.1768
 -12   7   5  17.636   0.259
 -11   7   5  1.5755  0.1588
 -10   7   5  128.83    0.54
  -9   7   5  11.097   0.194
  -8   7   5  127.95    0.49
  -7   7   5  0.3248  0.1046
  -6   7   5  27.708   0.232
  -5   7   5  11.318   0.175
  -4   7   5  11.935   0.229
  -3   7   5  180.89    0.79
  -2   7   5  239.43    0.88
  -1   7   5  189.52    0.79
   0   7   5  4.0027  0.1698
   1   7   5  131.71    0.64
   2   7   5  79.954   0.493
   3   7   5  2.4689  0.1191
   4   7   5  103.22    0.46
   5   7   5  67.972   0.385
   6   7   5  46.229   0.343
   7   7   5  1.1297  0.1438
   8   7   5  75.643   0.457
   9   7   5  88.831   0.503
  10   7   5  64.077   0.487
  11   7   5  32.042   0.389
  12   7   5  14.563   0.323
  13   7   5  17.151   0.356
  14   7   5  3.4469  0.2506
  15   7   5  2.1224  0.2698
  16   7   5  40.843   0.533
 -17   8   5  10.948   0.342
 -16   8   5  7.2236  0.3069
 -15   8   5  1.6240  0.2384
 -14   8   5  6.6585  0.2490
 -13   8   5  11.814   0.256
 -12   8   5  25.643   0.316
 -11   8   5  11.936   0.237
 -10   8   5  89.653   0.504
  -9   8   5  89.836   0.472
  -8   8   5  32.332   0.287
  -7   8   5  96.245   0.452
  -6   8   5  99.973   0.463
  -5   8   5  58.455   0.366
  -4   8   5  170.42    0.61
  -3   8   5  60.047   0.363
  -2   8   5  339.73    0.83
  -1   8   5  2.6825  0.1366
   0   8   5  438.40    1.03
   1   8   5  129.86    0.54
   2   8   5  114.39    0.53
   3   8   5  195.02    0.69
   4   8   5  93.206   0.462
   5   8   5  156.30    0.64
   6   8   5  42.703   0.357
   7   8   5  148.81    0.67
   8   8   5  7.4416  0.2182
   9   8   5  5.4570  0.2140
  10   8   5  48.301   0.426
  11   8   5  3.1989  0.2144
  12   8   5  16.585   0.336
  13   8   5  7.4118  0.2920
  14   8   5  23.084   0.437
  15   8   5  0.3494  0.2555
  16   8   5  2.6018  0.2617
 -17   9   5  0.3674  0.2638
 -16   9   5  12.665   0.348
 -15   9   5  8.4807  0.3145
 -14   9   5  4.9530  0.2665
 -13   9   5  5.7014  0.2409
 -12   9   5  26.205   0.341
 -11   9   5  30.606   0.351
 -10   9   5  16.846   0.276
  -9   9   5  18.259   0.273
  -8   9   5  73.429   0.457
  -7   9   5  43.343   0.356
  -6   9   5  51.086   0.381
  -5   9   5  198.77    0.71
  -4   9   5  68.458   0.431
  -3   9   5  82.218   0.477
  -2   9   5  76.837   0.459
  -1   9   5  102.39    0.52
   0   9   5  3.7706  0.1396
   1   9   5  54.506   0.379
   2   9   5  57.963   0.399
   3   9   5  46.547   0.384
   4   9   5  133.25    0.66
   5   9   5  64.714   0.481
   6   9   5  227.34    0.93
   7   9   5  3.6437  0.2079
   8   9   5  44.282   0.436
   9   9   5  53.881   0.484
  10   9   5  2.5219  0.2110
  11   9   5  38.587   0.450
  12   9   5  5.7329  0.2775
  13   9   5  44.538   0.562
  14   9   5  4.4336  0.2864
  15   9   5  5.7657  0.3136
 -15  10   5  4.0411  0.2589
 -14  10   5  20.060   0.390
 -13  10   5  1.2702  0.2283
 -12  10   5  6.0812  0.2577
 -11  10   5  7.6156  0.2577
 -10  10   5  34.913   0.384
  -9  10   5  6.4682  0.2462
  -8  10   5  32.932   0.386
  -7  10   5  2.8258  0.2066
  -6  10   5  0.6330  0.1685
  -5  10   5  5.0824  0.1928
  -4  10   5  94.454   0.523
  -3  10   5  79.375   0.489
  -2  10   5  174.76    0.72
  -1  10   5  15.361   0.240
   0  10   5  90.912   0.515
   1  10   5  106.55    0.61
   2  10   5  10.461   0.267
   3  10   5  170.39    0.84
   4  10   5  17.152   0.303
   5  10   5  57.603   0.504
   6  10   5  41.443   0.432
   7  10   5 -0.0373  0.1888
   8  10   5  3.4679  0.2338
   9  10   5  0.4978  0.2199
  10  10   5  14.021   0.321
  11  10   5  0.3266  0.2289
  12  10   5  20.053   0.409
  13  10   5  0.1766  0.2727
  14  10   5  2.9556  0.2911
 -14  11   5  5.1757  0.2746
 -13  11   5  5.1803  0.2810
 -12  11   5 -0.3005  0.2473
 -11  11   5  4.3324  0.2854
 -10  11   5  9.0640  0.3174
  -9  11   5  0.1936  0.2396
  -8  11   5  67.577   0.605
  -7  11   5  1.4567  0.2144
  -6  11   5  29.745   0.380
  -5  11   5  39.159   0.405
  -4  11   5  26.437   0.348
  -3  11   5  3.2631  0.1831
  -2  11   5  0.7293  0.1639
  -1  11   5  32.997   0.367
   0  11   5  9.0136  0.2498
   1  11   5  19.421   0.309
   2  11   5  0.6704  0.1908
   3  11   5  48.507   0.478
   4  11   5  11.606   0.298
   5  11   5 -0.0139  0.2075
   6  11   5  95.439   0.688
   7  11   5  5.1856  0.2597
   8  11   5  31.206   0.449
   9  11   5  28.290   0.438
  10  11   5  10.834   0.353
  11  11   5  6.7049  0.3242
  12  11   5 -0.0059  0.2930
 -13  12   5  3.1517  0.2910
 -12  12   5  5.8574  0.2927
 -11  12   5  3.8439  0.2988
 -10  12   5  4.6279  0.2734
  -9  12   5  7.9180  0.3037
  -8  12   5  0.3024  0.2536
  -7  12   5  85.323   0.768
  -6  12   5  8.1400  0.3178
  -5  12   5  60.817   0.612
  -4  12   5  7.2735  0.2953
  -3  12   5  0.5850  0.2024
  -2  12   5  74.182   0.611
  -1  12   5  36.672   0.465
   0  12   5  186.52    0.98
   1  12   5  18.699   0.366
   2  12   5  130.11    0.79
   3  12   5  4.1549  0.2418
   4  12   5 -0.2119  0.2164
   5  12   5  36.051   0.468
   6  12   5  7.1569  0.3002
   7  12   5  14.350   0.402
   8  12   5  7.0644  0.3220
   9  12   5  40.355   0.566
  10  12   5  2.7073  0.2833
  11  12   5  1.0364  0.2733
 -11  13   5  0.8076  0.3499
 -10  13   5  36.617   0.579
  -9  13   5  7.8215  0.3671
  -8  13   5  60.943   0.685
  -7  13   5  0.5365  0.2908
  -6  13   5  23.833   0.499
  -5  13   5  6.1259  0.3032
  -4  13   5  35.913   0.522
  -3  13   5  7.2945  0.3198
  -2  13   5  0.1365  0.2388
  -1  13   5  47.208   0.610
   0  13   5  4.3503  0.3227
   1  13   5  18.406   0.377
   2  13   5  5.0591  0.2933
   3  13   5  32.817   0.495
   4  13   5  7.6846  0.2932
   5  13   5  1.4383  0.2348
   6  13   5  32.047   0.463
   7  13   5  5.2196  0.2845
   8  13   5  34.927   0.502
   9  13   5  18.981   0.424
  -8  14   5  4.1138  0.3110
  -7  14   5  21.066   0.482
  -6  14   5  1.5737  0.2902
  -5  14   5  19.836   0.435
  -4  14   5  10.250   0.349
  -3  14   5  2.5486  0.3269
  -2  14   5  7.7155  0.3733
  -1  14   5  4.7867  0.2915
   0  14   5  11.355   0.376
   1  14   5  3.3262  0.3060
   2  14   5  25.207   0.464
   3  14   5  5.8032  0.3085
   4  14   5 -0.0129  0.2530
   5  14   5  24.196   0.442
   6  14   5  0.2536  0.2659
  -3  15   5  2.8281  0.3150
  -2  15   5  0.3695  0.2869
  -1  15   5 -0.4226  0.2934
   0  15   5  0.9399  0.2629
   1  15   5 -0.0003  0.2796
 -20   0   6  1.3505  0.3721
 -19   0   6  13.891   0.609
 -18   0   6  0.4665  0.3389
 -17   0   6  71.545   0.794
 -16   0   6  5.9459  0.3395
 -15   0   6  33.307   0.492
 -14   0   6  0.6821  0.2169
 -13   0   6  145.95    0.79
 -12   0   6  77.613   0.507
 -11   0   6  0.2963  0.1585
 -10   0   6  589.37    1.69
  -9   0   6  26.471   0.359
  -8   0   6 1069.84    2.65
  -7   0   6  7.4191  0.2003
  -6   0   6  22.695   0.348
  -5   0   6  987.14    2.79
  -4   0   6  710.60    2.79
  -3   0   6  49.540   0.675
  -1   0   6 1343.01    5.31
   0   0   6  30.866   0.485
   1   0   6  246.51    1.43
   2   0   6  129.16    1.02
   3   0   6  170.55    1.09
   4   0   6  187.41    0.98
   5   0   6  50.784   0.499
   6   0   6  128.86    0.64
   7   0   6  454.89    1.28
   8   0   6  130.82    0.69
   9   0   6  155.93    0.77
  10   0   6  140.05    0.69
  11   0   6  4.7928  0.2014
  12   0   6  5.0726  0.2320
  13   0   6  48.185   0.511
  14   0   6  153.60    0.93
  15   0   6  0.0838  0.2724
  16   0   6  16.337   0.517
  17   0   6  36.025   0.663
  18   0   6  9.1839  0.4394
 -20   1   6  1.4358  0.2663
 -19   1   6  0.9779  0.2536
 -18   1   6  21.988   0.425
 -17   1   6  11.225   0.295
 -16   1   6  100.37    0.58
 -15   1   6  35.067   0.361
 -14   1   6  172.77    0.66
 -13   1   6  41.919   0.303
 -12   1   6  0.9034  0.1122
 -11   1   6  467.42    0.99
 -10   1   6  3.9015  0.1426
  -9   1   6  441.42    1.15
  -8   1   6  186.29    0.69
  -7   1   6  7.8081  0.1630
  -6   1   6  613.67    1.34
  -5   1   6  4.2094  0.1329
  -4   1   6  278.26    1.19
  -3   1   6  3.6030  0.1406
  -2   1   6 1983.73    3.65
  -1   1   6  103.43    0.72
   0   1   6  487.96    1.42
   1   1   6  218.23    0.89
   2   1   6  0.4815  0.0958
   3   1   6  79.742   0.525
   4   1   6  185.05    0.77
   5   1   6  446.31    0.95
   7   1   6  16.297   0.180
   8   1   6  253.64    0.73
   9   1   6  63.653   0.322
  10   1   6  108.23    0.43
  11   1   6  82.862   0.397
  12   1   6  99.064   0.452
  13   1   6  89.855   0.476
  14   1   6  1.6164  0.1901
  15   1   6  122.99    0.69
  16   1   6  24.562   0.367
  17   1   6  3.2557  0.2662
  18   1   6  30.036   0.433
 -20   2   6  18.032   0.423
 -19   2   6  16.089   0.391
 -18   2   6  2.2992  0.2614
 -17   2   6  13.994   0.327
 -16   2   6  53.376   0.503
 -15   2   6  48.849   0.433
 -14   2   6  93.063   0.535
 -13   2   6  0.1643  0.1235
 -12   2   6  206.89    0.60
 -11   2   6  0.6018  0.1166
 -10   2   6  297.22    0.83
  -9   2   6  35.315   0.299
  -8   2   6  504.81    1.18
  -7   2   6  246.28    0.80
  -6   2   6  158.68    0.72
  -5   2   6 1127.04    1.98
  -4   2   6  873.88    2.10
  -3   2   6  287.16    1.03
  -2   2   6  87.774   0.632
  -1   2   6 1414.18    2.72
   0   2   6  394.39    1.19
   1   2   6  1.9275  0.1077
   2   2   6  683.54    1.39
   3   2   6  210.66    0.80
   4   2   6  712.92    1.52
   5   2   6  153.31    0.60
   6   2   6  318.22    0.83
   7   2   6  123.22    0.48
   8   2   6  20.932   0.204
   9   2   6  150.45    0.47
  10   2   6  63.998   0.333
  11   2   6  105.04    0.47
  12   2   6  0.8040  0.1435
  13   2   6  2.6396  0.1728
  14   2   6  43.151   0.401
  15   2   6  0.6900  0.1974
  16   2   6  3.6652  0.2359
  17   2   6  28.449   0.409
  18   2   6  23.718   0.393
 -20   3   6  7.2588  0.3363
 -19   3   6  4.8332  0.3162
 -18   3   6  18.081   0.405
 -17   3   6  3.4004  0.2541
 -16   3   6  56.476   0.497
 -15   3   6  30.913   0.361
 -14   3   6  131.84    0.60
 -13   3   6  37.875   0.350
 -12   3   6  16.557   0.223
 -11   3   6  345.22    0.88
 -10   3   6  27.073   0.253
  -9   3   6  167.03    0.61
  -8   3   6  78.769   0.416
  -7   3   6  0.5332  0.1029
  -6   3   6 1317.87    1.90
  -5   3   6  2.4827  0.1261
  -4   3   6 1046.39    1.87
  -3   3   6  56.605   0.426
  -2   3   6  78.285   0.484
  -1   3   6  234.85    0.92
   0   3   6  23.498   0.289
   1   3   6  416.25    1.29
   2   3   6  149.55    0.64
   3   3   6  305.01    0.97
   4   3   6  0.3566  0.1120
   5   3   6  349.38    0.87
   6   3   6  6.6899  0.1489
   7   3   6  9.0456  0.1600
   8   3   6  391.42    0.79
   9   3   6  9.2896  0.1489
  10   3   6  254.68    0.66
  11   3   6  20.248   0.225
  12   3   6  32.532   0.296
  13   3   6  68.168   0.448
  14   3   6  4.4321  0.2023
  15   3   6  44.802   0.448
  16   3   6  1.7431  0.2335
  17   3   6  4.3952  0.2556
  18   3   6  13.538   0.333
 -20   4   6  24.050   0.498
 -19   4   6  0.4911  0.2847
 -18   4   6  2.3898  0.2858
 -17   4   6  0.3800  0.2251
 -16   4   6  2.5414  0.2273
 -15   4   6  42.731   0.406
 -14   4   6  4.2250  0.1865
 -13   4   6  25.193   0.283
 -12   4   6  49.320   0.346
 -11   4   6  34.890   0.268
 -10   4   6  47.263   0.287
  -9   4   6  26.439   0.215
  -8   4   6  7.1759  0.1481
  -7   4   6  6.6999  0.1478
  -6   4   6  184.63    0.69
  -5   4   6  109.72    0.50
  -4   4   6  167.82    0.57
  -3   4   6  28.246   0.283
  -2   4   6  343.10    0.98
  -1   4   6  92.301   0.496
   0   4   6  509.70    1.12
   1   4   6  53.270   0.397
   2   4   6  396.67    1.07
   3   4   6  367.52    1.08
   4   4   6  260.03    0.92
   5   4   6  488.56    1.24
   6   4   6  2.9864  0.1254
   7   4   6  78.829   0.353
   8   4   6  0.2807  0.0885
   9   4   6  78.257   0.347
  10   4   6  2.1948  0.1302
  11   4   6  31.015   0.286
  12   4   6  32.745   0.330
  13   4   6  9.5931  0.2503
  14   4   6  77.149   0.553
  15   4   6  0.3806  0.2074
  16   4   6  5.2834  0.2746
  17   4   6  5.7627  0.2767
  18   4   6  1.1643  0.2339
 -19   5   6  10.453   0.352
 -18   5   6  0.5417  0.2476
 -17   5   6  5.8593  0.2880
 -16   5   6  14.302   0.306
 -15   5   6  0.6225  0.1897
 -14   5   6  112.34    0.62
 -13   5   6  9.6769  0.2059
 -12   5   6  34.966   0.276
 -11   5   6  13.220   0.183
 -10   5   6  12.790   0.176
  -9   5   6  21.433   0.201
  -8   5   6  35.709   0.253
  -7   5   6  34.084   0.271
  -6   5   6  127.45    0.55
  -5   5   6  4.9940  0.1382
  -4   5   6  25.561   0.245
  -3   5   6  893.06    1.53
  -2   5   6  28.692   0.269
  -1   5   6  743.20    1.62
   0   5   6  217.12    0.80
   1   5   6  0.3041  0.1032
   2   5   6  92.577   0.583
   3   5   6  24.928   0.308
   4   5   6  146.70    0.61
   5   5   6  49.330   0.334
   6   5   6  205.79    0.62
   7   5   6  19.857   0.201
   8   5   6  92.897   0.401
   9   5   6  0.0145  0.1169
  10   5   6  108.11    0.49
  11   5   6  25.904   0.281
  12   5   6  4.1702  0.1983
  13   5   6  115.83    0.65
  14   5   6  0.4955  0.2172
  15   5   6  15.508   0.336
  16   5   6  5.0409  0.2564
  17   5   6  1.9359  0.2445
 -19   6   6  5.9477  0.3258
 -18   6   6  0.2952  0.2393
 -17   6   6  10.739   0.299
 -16   6   6  2.7381  0.2274
 -15   6   6  18.054   0.325
 -14   6   6  0.1401  0.1838
 -13   6   6  1.7622  0.1647
 -12   6   6  11.277   0.208
 -11   6   6  76.018   0.405
 -10   6   6  97.034   0.425
  -9   6   6  0.2891  0.1012
  -8   6   6  0.5145  0.1005
  -7   6   6  12.069   0.168
  -6   6   6  129.76    0.60
  -5   6   6  80.889   0.482
  -4   6   6  4.4046  0.1421
  -3   6   6  52.789   0.379
  -2   6   6  184.44    0.73
  -1   6   6  0.8869  0.1220
   0   6   6  436.93    1.09
   1   6   6  145.29    0.61
   2   6   6  256.77    0.88
   3   6   6  76.365   0.572
   4   6   6  208.58    0.83
   5   6   6  301.06    0.79
   6   6   6  4.7880  0.1437
   7   6   6  148.72    0.55
   8   6   6  26.691   0.254
   9   6   6  106.78    0.50
  10   6   6  72.964   0.442
  11   6   6  0.0246  0.1629
  12   6   6  11.507   0.260
  13   6   6  12.482   0.275
  14   6   6  37.864   0.445
  15   6   6  6.9128  0.2756
  16   6   6  9.5254  0.2946
  17   6   6  8.5634  0.2959
 -18   7   6 -0.1583  0.2576
 -17   7   6  4.0197  0.2698
 -16   7   6  17.944   0.346
 -15   7   6  0.2108  0.2078
 -14   7   6  56.655   0.438
 -13   7   6  21.165   0.293
 -12   7   6  34.993   0.345
 -11   7   6  65.373   0.424
 -10   7   6  6.4211  0.1804
  -9   7   6  8.5042  0.1817
  -8   7   6  27.506   0.247
  -7   7   6  9.8866  0.1625
  -6   7   6  184.23    0.57
  -5   7   6  0.9754  0.1064
  -4   7   6  146.81    0.56
  -3   7   6  52.315   0.397
  -2   7   6  3.2210  0.1695
  -1   7   6  377.85    1.12
   0   7   6  157.11    0.73
   1   7   6  68.892   0.423
   2   7   6  3.6394  0.1220
   3   7   6  186.03    0.66
   4   7   6  4.9182  0.1384
   5   7   6  27.039   0.255
   6   7   6  24.424   0.272
   7   7   6  36.198   0.329
   8   7   6  23.664   0.270
   9   7   6  3.9036  0.1857
  10   7   6  197.15    0.82
  11   7   6  2.1482  0.2054
  12   7   6  7.7826  0.2733
  13   7   6  45.450   0.546
  14   7   6  7.4959  0.3174
  15   7   6  5.9827  0.2994
  16   7   6  3.1386  0.2773
 -17   8   6 -0.5421  0.2681
 -16   8   6  12.928   0.361
 -15   8   6 -0.0283  0.2348
 -14   8   6  10.095   0.276
 -13   8   6  6.3836  0.2247
 -12   8   6  1.5988  0.1779
 -11   8   6 -0.0048  0.1618
 -10   8   6  14.906   0.239
  -9   8   6  11.456   0.209
  -8   8   6  0.8491  0.1373
  -7   8   6  101.41    0.49
  -6   8   6  79.862   0.437
  -5   8   6  35.447   0.276
  -4   8   6  1.7425  0.1245
  -3   8   6  10.619   0.180
  -2   8   6  11.666   0.189
  -1   8   6  3.3624  0.1284
   0   8   6  77.823   0.391
   1   8   6  9.8396  0.1768
   2   8   6  19.014   0.230
   3   8   6  87.559   0.456
   4   8   6  225.75    0.76
   5   8   6  33.949   0.332
   6   8   6  77.572   0.496
   7   8   6  4.1524  0.1854
   8   8   6  17.648   0.286
   9   8   6  42.939   0.415
  10   8   6  8.7709  0.2620
  11   8   6  2.2718  0.2195
  12   8   6  1.2145  0.2419
  13   8   6  2.2768  0.2581
  14   8   6  3.8471  0.2833
  15   8   6  0.3562  0.2463
 -16   9   6  13.355   0.354
 -15   9   6  5.9763  0.2910
 -14   9   6  2.0348  0.2325
 -13   9   6  0.2099  0.2015
 -12   9   6  1.8658  0.1981
 -11   9   6  9.4883  0.2438
 -10   9   6  5.5329  0.2121
  -9   9   6  1.3803  0.1742
  -8   9   6  9.5753  0.2232
  -7   9   6  88.599   0.526
  -6   9   6  24.383   0.291
  -5   9   6  9.2265  0.2056
  -4   9   6  19.552   0.256
  -3   9   6  16.971   0.248
  -2   9   6  0.6335  0.1396
  -1   9   6  27.535   0.273
   0   9   6  3.1469  0.1377
   1   9   6  1.5713  0.1302
   2   9   6  58.764   0.420
   3   9   6  20.109   0.265
   4   9   6  1.6085  0.1678
   5   9   6  2.9935  0.1873
   6   9   6  1.6316  0.1768
   7   9   6  3.0410  0.1890
   8   9   6 -0.3853  0.1891
   9   9   6  36.779   0.415
  10   9   6  42.514   0.448
  11   9   6  0.3639  0.2288
  12   9   6  0.1252  0.2423
  13   9   6  17.434   0.400
  14   9   6  1.4339  0.2607
 -15  10   6 -0.1497  0.2527
 -14  10   6  2.2930  0.2502
 -13  10   6  14.462   0.325
 -12  10   6  1.5743  0.2169
 -11  10   6  10.630   0.287
 -10  10   6  44.735   0.448
  -9  10   6  24.373   0.359
  -8  10   6 -0.2042  0.2058
  -7  10   6  4.1639  0.2219
  -6  10   6  0.0113  0.1721
  -5  10   6  0.6826  0.1607
  -4  10   6  2.0335  0.1625
  -3  10   6  2.9644  0.1691
  -2  10   6  10.352   0.212
  -1  10   6  0.7179  0.1511
   0  10   6  8.5717  0.2145
   1  10   6  0.2255  0.1552
   2  10   6  8.5827  0.2425
   3  10   6  47.485   0.469
   4  10   6  7.1250  0.2475
   5  10   6  0.1789  0.1966
   6  10   6  9.1852  0.2703
   7  10   6 -0.0200  0.2048
   8  10   6  19.228   0.352
   9  10   6  7.6494  0.2761
  10  10   6  0.3643  0.2188
  11  10   6  9.6682  0.2901
  12  10   6  0.1385  0.2407
  13  10   6  0.4429  0.2390
 -14  11   6  0.4255  0.2441
 -13  11   6 -0.1856  0.2521
 -12  11   6  1.4759  0.2582
 -11  11   6  3.3165  0.2693
 -10  11   6  0.4579  0.2365
  -9  11   6  51.442   0.531
  -8  11   6  0.6103  0.2270
  -7  11   6  0.6403  0.2132
  -6  11   6  9.5993  0.2660
  -5  11   6  2.7761  0.2086
  -4  11   6  0.0223  0.1788
  -3  11   6  5.3790  0.1975
  -2  11   6  13.177   0.258
  -1  11   6  11.749   0.265
   0  11   6  72.053   0.633
   1  11   6  41.737   0.438
   2  11   6  1.1624  0.1937
   3  11   6  5.7557  0.2355
   4  11   6 -0.1136  0.2116
   5  11   6  18.902   0.363
   6  11   6  0.7950  0.2260
   7  11   6  6.8947  0.2794
   8  11   6  0.7491  0.2469
   9  11   6  21.460   0.407
  10  11   6  2.4397  0.2609
  11  11   6  0.5045  0.2447
  12  11   6  0.0491  0.3134
 -12  12   6  5.7209  0.3087
 -11  12   6  11.187   0.357
 -10  12   6  28.813   0.456
  -9  12   6  5.2990  0.2873
  -8  12   6 -0.3647  0.2510
  -7  12   6 -0.2561  0.2609
  -6  12   6 -0.0967  0.2401
  -5  12   6  0.7009  0.2382
  -4  12   6  25.067   0.380
  -3  12   6  8.2843  0.2767
  -2  12   6  22.695   0.397
  -1  12   6  12.848   0.356
   0  12   6  1.8128  0.2637
   1  12   6 -0.1045  0.2247
   2  12   6 -0.1482  0.2209
   3  12   6  9.4525  0.2867
   4  12   6  1.4720  0.2317
   5  12   6  3.6480  0.2492
   6  12   6  0.3910  0.2443
   7  12   6  7.9463  0.3103
   8  12   6  6.7030  0.3104
   9  12   6  1.4916  0.2655
  10  12   6  5.0667  0.2917
 -10  13   6  13.277   0.399
  -9  13   6  1.6323  0.2833
  -8  13   6  7.8118  0.3727
  -7  13   6  5.6706  0.3293
  -6  13   6  12.796   0.374
  -5  13   6  0.3218  0.2422
  -4  13   6 -0.1239  0.2609
  -3  13   6  5.0639  0.2948
  -2  13   6  8.7826  0.3285
  -1  13   6  2.8015  0.2655
   0  13   6  1.5601  0.2442
   1  13   6  11.911   0.354
   2  13   6  0.1671  0.2205
   3  13   6  1.6145  0.2373
   4  13   6  7.7013  0.2844
   5  13   6  1.3674  0.2248
   6  13   6  12.595   0.319
   7  13   6  9.9604  0.3018
   8  13   6  0.6559  0.2351
  -8  14   6  3.4397  0.3354
  -7  14   6  1.0191  0.3260
  -6  14   6 -0.2532  0.3088
  -5  14   6  1.3959  0.2780
  -4  14   6  15.309   0.431
  -3  14   6  21.198   0.496
  -2  14   6 -0.0407  0.2857
  -1  14   6  0.5423  0.2788
   0  14   6  4.3658  0.2928
   1  14   6  0.0033  0.2818
   2  14   6  12.227   0.419
   3  14   6  4.8394  0.2941
   4  14   6  1.4704  0.2512
   5  14   6 -0.3804  0.2456
 -20   0   7  0.6812  0.4214
 -19   0   7  0.0961  0.3901
 -18   0   7  0.2880  0.3346
 -17   0   7  0.0761  0.2867
 -16   0   7  0.3967  0.2663
 -15   0   7  0.0494  0.2379
 -14   0   7 -0.2446  0.2166
 -13   0   7  0.3272  0.1905
 -12   0   7  0.1332  0.1412
 -11   0   7  0.0690  0.1444
 -10   0   7  0.4794  0.1474
  -9   0   7  0.2604  0.1360
  -8   0   7  0.1774  0.1437
  -7   0   7  0.1460  0.1064
  -6   0   7  0.1410  0.1107
  -5   0   7  0.2596  0.1138
  -4   0   7  0.2788  0.1243
  -3   0   7  0.3522  0.1361
  -2   0   7  0.0456  0.1449
  -1   0   7  0.2436  0.1388
   0   0   7  0.2073  0.1196
   1   0   7  0.2171  0.1333
   2   0   7  0.2146  0.1265
   3   0   7  0.1204  0.0998
   4   0   7  0.1365  0.1160
   5   0   7  0.1756  0.1214
   6   0   7 -0.0140  0.1348
   7   0   7 -0.0554  0.1427
   8   0   7  0.0963  0.1392
   9   0   7 -0.0680  0.1457
  10   0   7  0.1708  0.1763
  11   0   7 -0.2145  0.1916
  12   0   7  0.5978  0.2152
  13   0   7 -0.0847  0.2261
  14   0   7  0.1250  0.2552
  15   0   7  0.1406  0.3240
  16   0   7 -0.2560  0.3607
  17   0   7 -0.0672  0.3385
  18   0   7  0.0400  0.3189
 -20   1   7 -0.2528  0.2683
 -19   1   7  0.6393  0.2604
 -18   1   7  0.9339  0.2544
 -17   1   7 -0.2604  0.2301
 -16   1   7  13.800   0.281
 -15   1   7  7.2676  0.2112
 -14   1   7  6.4510  0.1847
 -13   1   7  3.7544  0.1460
 -12   1   7  1.6094  0.1127
 -11   1   7  9.0579  0.1592
 -10   1   7  0.3073  0.1081
  -9   1   7  20.223   0.215
  -8   1   7  3.6886  0.1248
  -7   1   7  26.012   0.239
  -6   1   7  1.6152  0.1055
  -5   1   7  24.161   0.258
  -4   1   7  117.85    0.57
  -3   1   7  190.71    0.78
  -2   1   7  16.231   0.283
  -1   1   7  124.18    0.66
   0   1   7  2.3708  0.1153
   1   1   7  159.95    0.66
   2   1   7  1.9024  0.1009
   3   1   7  51.537   0.311
   4   1   7  101.31    0.45
   5   1   7  31.752   0.253
   6   1   7  20.397   0.218
   7   1   7  18.420   0.208
   8   1   7  7.9752  0.1322
   9   1   7  0.1608  0.0969
  10   1   7  4.2432  0.1301
  11   1   7  126.45    0.51
  12   1   7  16.467   0.239
  13   1   7  35.302   0.355
  14   1   7  1.3029  0.1885
  15   1   7  0.0225  0.1922
  16   1   7  1.2066  0.2482
  17   1   7  0.9487  0.2494
  18   1   7  5.0529  0.2702
 -20   2   7  1.6217  0.2536
 -19   2   7  0.1285  0.2536
 -18   2   7  8.9145  0.3182
 -17   2   7  0.3814  0.2434
 -16   2   7  0.6189  0.2234
 -15   2   7 -0.0338  0.1906
 -14   2   7  9.0749  0.2176
 -13   2   7  12.126   0.199
 -12   2   7  40.908   0.298
 -11   2   7  12.862   0.188
 -10   2   7  161.44    0.61
  -9   2   7  63.508   0.361
  -8   2   7  33.850   0.272
  -7   2   7  45.739   0.329
  -6   2   7  1.2112  0.1103
  -5   2   7  31.793   0.295
  -4   2   7  59.052   0.437
  -3   2   7  114.50    0.56
  -2   2   7  1.0409  0.1005
  -1   2   7  264.52    1.02
   0   2   7  731.82    1.92
   1   2   7  28.210   0.308
   2   2   7  13.923   0.184
   3   2   7  27.045   0.246
   4   2   7  61.094   0.370
   5   2   7  216.33    0.67
   6   2   7  1.4681  0.1013
   7   2   7  9.8771  0.1759
   8   2   7  6.2233  0.1266
   9   2   7  9.4170  0.1547
  10   2   7  5.7196  0.1506
  11   2   7  3.6719  0.1529
  12   2   7  36.386   0.327
  13   2   7  6.7929  0.2109
  14   2   7  23.785   0.319
  15   2   7  3.0454  0.2132
  16   2   7 -0.0568  0.2132
  17   2   7 -0.0094  0.2253
  18   2   7  0.9187  0.2498
 -20   3   7  1.7881  0.2978
 -19   3   7  0.1839  0.3008
 -18   3   7  17.078   0.372
 -17   3   7  6.2604  0.2708
 -16   3   7  12.993   0.308
 -15   3   7  6.2940  0.2293
 -14   3   7  77.057   0.507
 -13   3   7  8.4415  0.2175
 -12   3   7  9.6628  0.1782
 -11   3   7  92.684   0.439
 -10   3   7  2.7911  0.1200
  -9   3   7  65.079   0.375
  -8   3   7  2.4602  0.1261
  -7   3   7  638.08    1.32
  -6   3   7  51.746   0.348
  -5   3   7  326.06    1.04
  -4   3   7  436.43    1.15
  -3   3   7  0.4544  0.0974
  -2   3   7  152.16    0.58
  -1   3   7  23.575   0.234
   0   3   7  185.71    0.70
   1   3   7  160.23    0.63
   2   3   7  392.28    1.02
   3   3   7  6.8278  0.1498
   4   3   7  16.005   0.210
   5   3   7  27.833   0.256
   6   3   7  9.2835  0.1667
   7   3   7  0.5099  0.0918
   8   3   7  0.0948  0.0928
   9   3   7  87.927   0.380
  10   3   7  1.6723  0.1303
  11   3   7  19.856   0.245
  12   3   7  12.167   0.225
  13   3   7  7.2335  0.2109
  14   3   7  6.7200  0.2340
  15   3   7  0.7160  0.1999
  16   3   7  15.121   0.319
  17   3   7  1.0021  0.2302
  18   3   7 -0.0055  0.2326
 -20   4   7  14.977   0.422
 -19   4   7 -0.4483  0.2780
 -18   4   7 -0.0013  0.2549
 -17   4   7  18.791   0.394
 -16   4   7  0.9927  0.2203
 -15   4   7  27.314   0.333
 -14   4   7  4.6466  0.1969
 -13   4   7  108.69    0.58
 -12   4   7  12.239   0.200
 -11   4   7  5.0912  0.1441
 -10   4   7  37.632   0.256
  -9   4   7  108.95    0.43
  -8   4   7  225.45    0.76
  -7   4   7  6.4651  0.1552
  -6   4   7  545.41    1.17
  -5   4   7  20.933   0.240
  -4   4   7  490.49    1.00
  -3   4   7  0.4966  0.0918
  -2   4   7  95.297   0.457
  -1   4   7  405.68    1.01
   0   4   7  125.52    0.57
   1   4   7  309.24    0.87
   2   4   7  3.2497  0.1353
   3   4   7  371.86    1.07
   4   4   7  2.7139  0.1209
   5   4   7  109.05    0.48
   6   4   7  74.277   0.421
   7   4   7  1.3497  0.0987
   8   4   7  36.470   0.250
   9   4   7  4.3978  0.1368
  10   4   7  22.514   0.238
  11   4   7  7.5803  0.1874
  12   4   7  12.992   0.255
  13   4   7  3.3920  0.2093
  14   4   7  1.2423  0.2104
  15   4   7  0.7469  0.2193
  16   4   7 -0.2457  0.2133
  17   4   7  0.1157  0.2323
 -19   5   7 -0.1354  0.2872
 -18   5   7  0.5799  0.2671
 -17   5   7  0.2494  0.2560
 -16   5   7  3.7953  0.2344
 -15   5   7 -0.0816  0.2020
 -14   5   7  62.974   0.461
 -13   5   7  10.402   0.210
 -12   5   7  11.263   0.195
 -11   5   7  93.458   0.424
 -10   5   7  13.375   0.179
  -9   5   7  62.955   0.314
  -8   5   7  38.336   0.246
  -7   5   7  163.01    0.58
  -6   5   7  0.2193  0.1099
  -5   5   7  5.5174  0.1510
  -4   5   7  173.76    0.60
  -3   5   7  11.848   0.190
  -2   5   7  112.29    0.52
  -1   5   7  23.609   0.258
   0   5   7  132.68    0.62
   1   5   7  101.26    0.52
   2   5   7  71.941   0.509
   3   5   7  125.12    0.65
   4   5   7  1.1894  0.1064
   5   5   7  30.525   0.250
   6   5   7  0.1736  0.0955
   7   5   7  14.862   0.181
   8   5   7  46.438   0.295
   9   5   7  26.041   0.252
  10   5   7  7.0531  0.1818
  11   5   7  4.0608  0.1861
  12   5   7  40.264   0.407
  13   5   7  1.7770  0.2113
  14   5   7 -0.2466  0.2208
  15   5   7  41.017   0.454
  16   5   7  4.4385  0.2465
  17   5   7  9.4551  0.3027
 -19   6   7  0.2531  0.2724
 -18   6   7  5.5952  0.3129
 -17   6   7  17.937   0.367
 -16   6   7  1.8012  0.2306
 -15   6   7  0.3193  0.2018
 -14   6   7  16.590   0.287
 -13   6   7  3.1162  0.1757
 -12   6   7  16.752   0.236
 -11   6   7  0.2741  0.1339
 -10   6   7  27.690   0.250
  -9   6   7  10.430   0.158
  -8   6   7  46.969   0.285
  -7   6   7  2.3648  0.1097
  -6   6   7  5.0571  0.1376
  -5   6   7  216.82    0.80
  -4   6   7  38.359   0.353
  -3   6   7  112.58    0.57
  -2   6   7  1.2845  0.1277
  -1   6   7  112.33    0.56
   0   6   7  1.3019  0.1256
   1   6   7  30.583   0.297
   2   6   7  153.84    0.70
   3   6   7  9.3911  0.1957
   4   6   7  83.658   0.404
   5   6   7  1.7618  0.1171
   6   6   7  185.73    0.63
   7   6   7  38.239   0.288
   8   6   7  10.007   0.181
   9   6   7  173.12    0.62
  10   6   7  10.208   0.213
  11   6   7  47.550   0.410
  12   6   7  19.940   0.316
  13   6   7  4.0982  0.2360
  14   6   7  10.119   0.277
  15   6   7  0.4730  0.2166
  16   6   7  5.6279  0.2690
 -18   7   7  0.9918  0.2612
 -17   7   7  31.604   0.454
 -16   7   7  0.6699  0.2279
 -15   7   7  0.0417  0.2068
 -14   7   7  22.040   0.316
 -13   7   7  26.281   0.339
 -12   7   7  70.423   0.450
 -11   7   7  70.623   0.416
 -10   7   7  161.13    0.60
  -9   7   7  18.851   0.224
  -8   7   7  10.518   0.179
  -7   7   7  27.852   0.243
  -6   7   7  75.598   0.376
  -5   7   7  0.6826  0.1042
  -4   7   7  86.577   0.424
  -3   7   7  29.148   0.266
  -2   7   7  152.45    0.60
  -1   7   7  16.704   0.211
   0   7   7  181.63    0.64
   1   7   7  186.50    0.64
   2   7   7  4.3948  0.1363
   3   7   7  127.44    0.48
   4   7   7  9.5009  0.1670
   5   7   7  132.87    0.56
   6   7   7 -0.0325  0.1398
   7   7   7  31.704   0.306
   8   7   7  11.582   0.227
   9   7   7  1.4421  0.1848
  10   7   7  0.6073  0.1932
  11   7   7  8.1544  0.2779
  12   7   7  56.543   0.567
  13   7   7  1.3835  0.2577
  14   7   7  31.139   0.469
  15   7   7  11.867   0.350
  16   7   7  0.2348  0.2739
 -17   8   7  21.461   0.417
 -16   8   7  9.0247  0.3219
 -15   8   7  21.780   0.386
 -14   8   7  8.7594  0.2642
 -13   8   7  11.126   0.264
 -12   8   7  12.849   0.257
 -11   8   7  26.934   0.305
 -10   8   7  46.793   0.375
  -9   8   7  34.872   0.315
  -8   8   7  72.407   0.433
  -7   8   7  20.255   0.248
  -6   8   7  29.124   0.292
  -5   8   7  80.089   0.404
  -4   8   7  75.629   0.417
  -3   8   7  71.189   0.402
  -2   8   7  85.590   0.432
  -1   8   7  117.87    0.50
   0   8   7  7.7947  0.1642
   1   8   7  9.0021  0.1691
   2   8   7  185.17    0.64
   3   8   7  25.110   0.267
   4   8   7  122.00    0.54
   5   8   7  30.012   0.300
   6   8   7  120.98    0.60
   7   8   7  34.566   0.354
   8   8   7  43.796   0.396
   9   8   7  120.45    0.66
  10   8   7  6.4710  0.2410
  11   8   7  39.169   0.448
  12   8   7  9.4820  0.3081
  13   8   7  6.5741  0.2968
  14   8   7  1.4490  0.2550
  15   8   7  0.9227  0.2549
 -16   9   7  34.578   0.496
 -15   9   7  2.4041  0.2427
 -14   9   7  29.135   0.406
 -13   9   7  0.7139  0.1988
 -12   9   7  26.624   0.347
 -11   9   7  2.1578  0.1961
 -10   9   7  64.432   0.480
  -9   9   7  39.923   0.378
  -8   9   7  8.7958  0.2277
  -7   9   7  52.144   0.429
  -6   9   7  48.757   0.402
  -5   9   7  13.524   0.239
  -4   9   7  85.330   0.484
  -3   9   7  1.5432  0.1452
  -2   9   7  82.696   0.441
  -1   9   7  49.944   0.365
   0   9   7  23.275   0.273
   1   9   7  237.98    0.80
   2   9   7  10.100   0.207
   3   9   7  123.87    0.62
   4   9   7  57.458   0.448
   5   9   7  39.793   0.390
   6   9   7  0.5480  0.1779
   7   9   7  14.436   0.288
   8   9   7  102.80    0.66
   9   9   7  4.6074  0.2540
  10   9   7  55.770   0.539
  11   9   7  12.805   0.318
  12   9   7  7.7812  0.3022
  13   9   7  1.7601  0.2722
  14   9   7  5.2409  0.3071
 -15  10   7  7.0310  0.3041
 -14  10   7  0.0879  0.2384
 -13  10   7  9.7083  0.3066
 -12  10   7  3.9268  0.2453
 -11  10   7  0.8536  0.2144
 -10  10   7  6.4416  0.2495
  -9  10   7  7.1139  0.2522
  -8  10   7  4.2287  0.2258
  -7  10   7  62.925   0.501
  -6  10   7  24.357   0.325
  -5  10   7  0.3240  0.1698
  -4  10   7  9.7562  0.2218
  -3  10   7  0.2256  0.1554
  -2  10   7  1.7023  0.1644
  -1  10   7  30.511   0.346
   0  10   7  78.647   0.535
   1  10   7  68.344   0.469
   2  10   7  83.223   0.570
   3  10   7  0.9810  0.1948
   4  10   7  86.741   0.581
   5  10   7  24.036   0.347
   6  10   7  31.660   0.412
   7  10   7  113.77    0.74
   8  10   7  23.584   0.373
   9  10   7  48.636   0.506
  10  10   7  0.1059  0.2236
  11  10   7  42.757   0.534
  12  10   7  0.3192  0.2505
  13  10   7  17.514   0.400
 -14  11   7  2.3284  0.2782
 -13  11   7  0.7429  0.2518
 -12  11   7  11.204   0.346
 -11  11   7  1.2410  0.2609
 -10  11   7  9.2002  0.3012
  -9  11   7  32.061   0.444
  -8  11   7  14.237   0.329
  -7  11   7  15.969   0.330
  -6  11   7  21.958   0.337
  -5  11   7  3.0576  0.2156
  -4  11   7  63.542   0.493
  -3  11   7  34.379   0.374
  -2  11   7  81.409   0.582
  -1  11   7  44.641   0.483
   0  11   7  8.1543  0.2628
   1  11   7  45.582   0.498
   2  11   7 -0.2028  0.1889
   3  11   7  47.428   0.477
   4  11   7  0.7278  0.2136
   5  11   7  27.402   0.395
   6  11   7  7.8473  0.2851
   7  11   7  23.458   0.377
   8  11   7  11.963   0.328
   9  11   7  0.3061  0.2417
  10  11   7  27.838   0.435
  11  11   7  0.5863  0.2479
 -12  12   7  19.663   0.420
 -11  12   7  0.8119  0.2685
 -10  12   7  45.849   0.543
  -9  12   7  1.3187  0.2600
  -8  12   7  12.017   0.373
  -7  12   7 -0.2197  0.2638
  -6  12   7  16.550   0.376
  -5  12   7  4.4921  0.2421
  -4  12   7  2.3149  0.2342
  -3  12   7  89.516   0.701
  -2  12   7  31.753   0.457
  -1  12   7  25.510   0.397
   0  12   7  2.4871  0.2419
   1  12   7  27.344   0.436
   2  12   7  4.2722  0.2606
   3  12   7  0.5546  0.2184
   4  12   7  107.38    0.70
   5  12   7  1.4218  0.2279
   6  12   7  27.662   0.442
   7  12   7  22.071   0.403
   8  12   7  19.912   0.409
   9  12   7  2.7110  0.2759
  10  12   7  0.0287  0.2460
 -10  13   7  4.7792  0.2906
  -9  13   7  32.182   0.477
  -8  13   7  2.4099  0.2823
  -7  13   7  24.350   0.458
  -6  13   7  6.8344  0.3093
  -5  13   7  35.319   0.554
  -4  13   7  10.102   0.342
  -3  13   7  5.8548  0.3135
  -2  13   7  57.339   0.613
  -1  13   7  7.2454  0.3156
   0  13   7  57.554   0.628
   1  13   7  0.9367  0.2612
   2  13   7  18.437   0.412
   3  13   7  8.1935  0.3011
   4  13   7  0.3655  0.2241
   5  13   7  8.2596  0.2892
   6  13   7  5.4629  0.2629
   7  13   7  23.905   0.396
   8  13   7  9.3539  0.2996
  -7  14   7  1.8854  0.2953
  -6  14   7  49.699   0.618
  -5  14   7  0.1557  0.2637
  -4  14   7  3.7941  0.3082
  -3  14   7  14.180   0.387
  -2  14   7 -0.3502  0.2663
  -1  14   7  4.8897  0.2829
   0  14   7  0.6061  0.2766
   1  14   7  25.782   0.457
   2  14   7  0.9407  0.2487
   3  14   7  0.6060  0.2565
   4  14   7  14.188   0.395
   5  14   7  1.8377  0.2619
 -20   0   8  10.030   0.528
 -19   0   8  16.696   0.569
 -18   0   8  18.726   0.540
 -17   0   8  2.1253  0.3108
 -16   0   8  44.316   0.618
 -15   0   8  47.663   0.541
 -14   0   8  72.688   0.615
 -13   0   8  266.80    1.00
 -12   0   8  0.0395  0.1392
 -11   0   8  24.736   0.291
 -10   0   8  11.545   0.259
  -9   0   8  2.9582  0.1703
  -8   0   8  482.47    1.50
  -7   0   8  170.00    0.74
  -6   0   8  799.21    2.21
  -5   0   8  537.21    2.13
  -4   0   8  522.02    1.59
  -3   0   8  645.17    1.84
  -2   0   8 1134.72    3.65
  -1   0   8  581.54    2.12
   0   0   8  20.661   0.343
   1   0   8  100.69    0.63
   2   0   8  553.05    1.57
   3   0   8  686.30    1.78
   4   0   8  50.725   0.420
   5   0   8  279.62    1.02
   6   0   8  230.42    1.03
   7   0   8  15.160   0.309
   8   0   8  166.75    0.74
   9   0   8  475.55    1.22
  10   0   8  96.172   0.607
  11   0   8  200.43    1.01
  12   0   8  12.053   0.328
  13   0   8  104.96    0.79
  14   0   8  0.0041  0.2712
  15   0   8  0.2347  0.2994
  16   0   8  102.83    0.99
  17   0   8  3.6217  0.3425
 -20   1   8 -0.2067  0.2820
 -19   1   8  4.5213  0.3020
 -18   1   8 -0.2525  0.2513
 -17   1   8  19.290   0.345
 -16   1   8  0.2281  0.2059
 -15   1   8  3.7822  0.1897
 -14   1   8  38.211   0.315
 -13   1   8  38.355   0.297
 -12   1   8  193.60    0.58
 -11   1   8  1.8725  0.1141
 -10   1   8  357.36    0.93
  -9   1   8  54.207   0.324
  -8   1   8  3.7307  0.1137
  -7   1   8 1063.90    1.74
  -5   1   8  217.99    0.75
  -4   1   8  123.30    0.55
  -3   1   8 1665.45    2.70
  -2   1   8  12.867   0.222
  -1   1   8  103.07    0.52
   0   1   8 1297.86    2.51
   1   1   8  341.59    0.83
   2   1   8  761.66    1.27
   3   1   8  381.47    0.90
   4   1   8  546.04    1.01
   5   1   8  27.242   0.227
   6   1   8  0.2402  0.0913
   7   1   8  242.50    0.68
   8   1   8  40.626   0.254
   9   1   8  38.534   0.260
  10   1   8  1.2163  0.1226
  11   1   8  0.2463  0.1397
  12   1   8  28.497   0.311
  13   1   8  26.285   0.323
  14   1   8  18.721   0.299
  15   1   8  39.377   0.419
  16   1   8  25.327   0.397
  17   1   8  37.639   0.442
 -20   2   8  4.1854  0.2946
 -19   2   8 -0.4342  0.2647
 -18   2   8  51.573   0.555
 -17   2   8  13.001   0.314
 -16   2   8  194.06    0.90
 -15   2   8  6.9050  0.2447
 -14   2   8  5.4869  0.1814
 -13   2   8  189.33    0.70
 -12   2   8  4.6354  0.1385
 -11   2   8  153.31    0.54
 -10   2   8  36.990   0.276
  -9   2   8  81.880   0.392
  -8   2   8  338.14    0.85
  -7   2   8  3.5205  0.1181
  -6   2   8  507.41    1.08
  -5   2   8  33.460   0.270
  -4   2   8  293.07    0.93
  -3   2   8  128.47    0.57
  -2   2   8  567.92    1.53
  -1   2   8  365.50    0.89
   0   2   8  239.04    0.71
   1   2   8  345.10    0.86
   2   2   8  0.2030  0.0874
   3   2   8  648.49    1.23
   4   2   8  131.73    0.51
   5   2   8  7.7885  0.1461
   6   2   8  239.52    0.70
   7   2   8  0.2813  0.0910
   8   2   8  281.21    0.67
   9   2   8  21.710   0.215
  10   2   8  72.292   0.393
  11   2   8  12.332   0.214
  12   2   8  0.4144  0.1594
  13   2   8  75.581   0.482
  14   2   8  0.1231  0.1713
  15   2   8  7.2151  0.2491
  16   2   8  23.856   0.340
  17   2   8  2.8916  0.2512
 -20   3   8  3.7514  0.3244
 -19   3   8  8.0732  0.3381
 -18   3   8  4.5714  0.2770
 -17   3   8  29.404   0.413
 -16   3   8  16.512   0.334
 -15   3   8  20.158   0.317
 -14   3   8  31.391   0.365
 -13   3   8  2.0198  0.1615
 -12   3   8  44.806   0.324
 -11   3   8  3.0181  0.1349
 -10   3   8  62.083   0.323
  -9   3   8  125.56    0.50
  -8   3   8  351.57    0.86
  -7   3   8  481.20    0.96
  -6   3   8  814.93    1.50
  -5   3   8  71.656   0.389
  -4   3   8  134.41    0.54
  -3   3   8  223.49    0.67
  -2   3   8  654.86    1.22
  -1   3   8  59.339   0.350
   0   3   8  414.58    1.01
   1   3   8  4.7406  0.1296
   2   3   8  133.34    0.58
   3   3   8  176.59    0.65
   4   3   8  99.924   0.438
   5   3   8  173.67    0.56
   6   3   8  5.8969  0.1384
   7   3   8  225.90    0.58
   8   3   8  6.8185  0.1358
   9   3   8  66.957   0.350
  10   3   8  1.3518  0.1297
  11   3   8  0.0315  0.1390
  12   3   8  47.388   0.376
  13   3   8  0.1348  0.1819
  14   3   8  0.8067  0.1911
  15   3   8  14.225   0.300
  16   3   8  12.240   0.302
  17   3   8  6.6445  0.2729
 -20   4   8  0.4017  0.2967
 -19   4   8  3.8701  0.3034
 -18   4   8  8.4761  0.3247
 -17   4   8  8.5049  0.3161
 -16   4   8  55.175   0.500
 -15   4   8  0.0380  0.1886
 -14   4   8  42.929   0.423
 -13   4   8  107.31    0.55
 -12   4   8  2.7954  0.1525
 -11   4   8  110.89    0.48
 -10   4   8  87.916   0.396
  -9   4   8  1.4228  0.1076
  -8   4   8  190.25    0.68
  -7   4   8  4.5582  0.1433
  -6   4   8  52.021   0.339
  -5   4   8  56.336   0.342
  -4   4   8  3.2479  0.1105
  -3   4   8  361.45    0.84
  -2   4   8  58.181   0.363
  -1   4   8  100.39    0.46
   0   4   8  79.369   0.432
   1   4   8  164.79    0.62
   2   4   8  13.490   0.193
   3   4   8  288.44    0.84
   4   4   8  190.39    0.68
   5   4   8  20.346   0.229
   6   4   8  309.24    0.70
   7   4   8  45.617   0.277
   8   4   8  163.29    0.53
   9   4   8  6.3955  0.1576
  10   4   8  31.399   0.293
  11   4   8  132.17    0.61
  12   4   8  3.8177  0.1964
  13   4   8  140.35    0.68
  14   4   8  0.6631  0.1950
  15   4   8  16.777   0.325
  16   4   8  7.3820  0.2700
  17   4   8  3.9896  0.2553
 -19   5   8  6.9328  0.3197
 -18   5   8  10.818   0.361
 -17   5   8  6.3217  0.2973
 -16   5   8  0.6602  0.2215
 -15   5   8  0.2237  0.2010
 -14   5   8  2.1465  0.1930
 -13   5   8  14.761   0.238
 -12   5   8  101.64    0.50
 -11   5   8  0.2081  0.1267
 -10   5   8  16.354   0.190
  -9   5   8  0.8130  0.1018
  -8   5   8  65.496   0.317
  -7   5   8  33.661   0.254
  -6   5   8  106.30    0.53
  -5   5   8  236.49    0.79
  -4   5   8  91.922   0.434
  -3   5   8  34.782   0.296
  -2   5   8  286.92    0.84
  -1   5   8  26.563   0.256
   0   5   8  10.571   0.169
   1   5   8  279.36    0.81
   2   5   8  187.82    0.65
   3   5   8  304.60    0.86
   4   5   8  21.197   0.214
   5   5   8  269.39    0.64
   6   5   8  18.396   0.202
   7   5   8  162.38    0.55
   8   5   8  2.7078  0.1349
   9   5   8  56.107   0.365
  10   5   8  27.910   0.295
  11   5   8  0.8579  0.1768
  12   5   8  188.48    0.77
  13   5   8  0.6751  0.1970
  14   5   8  23.425   0.372
  15   5   8  0.7632  0.2167
  16   5   8  0.3996  0.2108
 -19   6   8 -0.0773  0.2894
 -18   6   8  14.866   0.390
 -17   6   8  1.5594  0.2776
 -16   6   8  19.014   0.363
 -15   6   8  16.859   0.339
 -14   6   8  67.038   0.489
 -13   6   8  93.139   0.525
 -12   6   8  19.525   0.245
 -11   6   8  65.364   0.387
 -10   6   8  4.7514  0.1442
  -9   6   8  7.0659  0.1491
  -8   6   8  74.924   0.354
  -7   6   8  45.676   0.279
  -6   6   8  8.4697  0.1589
  -5   6   8  0.8465  0.1142
  -4   6   8  0.1464  0.1341
  -3   6   8  290.25    0.95
  -2   6   8  57.311   0.430
  -1   6   8  1.8761  0.1322
   0   6   8  61.327   0.417
   1   6   8  0.2704  0.1172
   2   6   8  0.7958  0.1182
   3   6   8  44.823   0.299
   4   6   8  200.61    0.60
   5   6   8  12.240   0.183
   6   6   8  63.057   0.354
   7   6   8  4.3284  0.1549
   8   6   8  53.600   0.359
   9   6   8  1.1168  0.1471
  10   6   8  1.0483  0.1687
  11   6   8  196.46    0.83
  12   6   8  11.726   0.272
  13   6   8  37.487   0.425
  14   6   8  3.2290  0.2382
  15   6   8 -0.2226  0.2272
  16   6   8 -0.0500  0.2233
 -18   7   8  7.2230  0.3248
 -17   7   8  8.3836  0.3086
 -16   7   8  0.7870  0.2303
 -15   7   8  17.154   0.325
 -14   7   8 -0.2456  0.2023
 -13   7   8  12.315   0.256
 -12   7   8  66.270   0.425
 -11   7   8  12.102   0.225
 -10   7   8  18.096   0.238
  -9   7   8  43.211   0.308
  -8   7   8  145.06    0.53
  -7   7   8  12.651   0.187
  -6   7   8  159.64    0.56
  -5   7   8  18.518   0.217
  -4   7   8  15.951   0.207
  -3   7   8  0.0956  0.1133
  -2   7   8  84.609   0.448
  -1   7   8  60.512   0.352
   0   7   8  0.4288  0.1085
   1   7   8  22.612   0.230
   2   7   8  120.03    0.49
   3   7   8  46.974   0.335
   4   7   8  0.2458  0.1202
   5   7   8  83.922   0.478
   6   7   8  11.940   0.219
   7   7   8  29.992   0.325
   8   7   8  17.138   0.281
   9   7   8  4.3193  0.2087
  10   7   8  3.5203  0.2224
  11   7   8 -0.2728  0.2265
  12   7   8  16.215   0.360
  13   7   8  0.3174  0.2563
  14   7   8  7.5155  0.3272
  15   7   8  2.4995  0.2822
 -17   8   8  1.9311  0.2825
 -16   8   8  26.120   0.425
 -15   8   8  3.4110  0.2419
 -14   8   8  12.233   0.296
 -13   8   8  2.0759  0.2058
 -12   8   8  0.1525  0.1839
 -11   8   8  21.116   0.293
 -10   8   8  8.0775  0.2223
  -9   8   8  1.9297  0.1533
  -8   8   8  23.196   0.271
  -7   8   8  18.913   0.255
  -6   8   8  12.332   0.210
  -5   8   8  0.0296  0.1226
  -4   8   8  1.5428  0.1325
  -3   8   8  62.369   0.376
  -2   8   8  2.7248  0.1438
  -1   8   8  8.7870  0.1654
   0   8   8  8.6562  0.1613
   1   8   8  32.924   0.272
   2   8   8  19.020   0.218
   3   8   8  3.3720  0.1492
   4   8   8  7.3552  0.1787
   5   8   8  0.6197  0.1501
   6   8   8  12.612   0.251
   7   8   8  29.695   0.350
   8   8   8  230.19    0.94
   9   8   8  3.9385  0.2348
  10   8   8  1.1109  0.2076
  11   8   8  38.985   0.473
  12   8   8  0.7133  0.2407
  13   8   8  6.7242  0.3117
  14   8   8  2.7686  0.2761
 -16   9   8  0.9267  0.2352
 -15   9   8  1.5740  0.2443
 -14   9   8 -0.1224  0.2111
 -13   9   8  3.1332  0.2313
 -12   9   8  7.0890  0.2593
 -11   9   8  4.7193  0.2180
 -10   9   8  3.2952  0.2081
  -9   9   8  46.027   0.408
  -8   9   8  4.6873  0.2153
  -7   9   8  11.906   0.246
  -6   9   8  1.3571  0.1659
  -5   9   8  1.0560  0.1466
  -4   9   8  2.8263  0.1592
  -3   9   8  8.8225  0.1956
  -2   9   8  56.147   0.394
  -1   9   8  29.624   0.306
   0   9   8  2.1393  0.1492
   1   9   8  92.840   0.491
   2   9   8  51.998   0.374
   3   9   8  46.409   0.378
   4   9   8  0.4731  0.1477
   5   9   8  22.674   0.318
   6   9   8  11.153   0.276
   7   9   8  17.213   0.314
   8   9   8  7.6947  0.2692
   9   9   8  0.2613  0.2121
  10   9   8  3.1563  0.2556
  11   9   8  0.4045  0.2522
  12   9   8  0.1966  0.2740
  13   9   8  1.5732  0.2789
 -15  10   8  1.0827  0.2786
 -14  10   8  3.3842  0.2731
 -13  10   8  2.5167  0.2434
 -12  10   8 -0.1171  0.2209
 -11  10   8  15.270   0.335
 -10  10   8  22.195   0.357
  -9  10   8  9.0562  0.2732
  -8  10   8  19.119   0.311
  -7  10   8  14.768   0.291
  -6  10   8  3.5752  0.2101
  -5  10   8  29.149   0.351
  -4  10   8  2.0846  0.1688
  -3  10   8  10.284   0.247
  -2  10   8  38.326   0.406
  -1  10   8  3.4676  0.1947
   0  10   8  10.771   0.241
   1  10   8  2.1312  0.1775
   2  10   8  13.752   0.285
   3  10   8  6.7609  0.2236
   4  10   8  2.3601  0.2029
   5  10   8  18.309   0.315
   6  10   8  8.1128  0.2679
   7  10   8  17.032   0.333
   8  10   8  22.823   0.378
   9  10   8  6.3143  0.2733
  10  10   8  1.7201  0.2439
  11  10   8  22.656   0.409
  12  10   8  5.3443  0.2994
 -14  11   8  0.6271  0.2644
 -13  11   8  25.058   0.472
 -12  11   8  15.222   0.379
 -11  11   8  12.210   0.335
 -10  11   8  3.5914  0.2568
  -9  11   8  12.401   0.331
  -8  11   8 -0.3144  0.2287
  -7  11   8  2.4210  0.2194
  -6  11   8  3.7748  0.2269
  -5  11   8  42.753   0.438
  -4  11   8  12.348   0.278
  -3  11   8  39.790   0.420
  -2  11   8  8.9222  0.2631
  -1  11   8  5.1117  0.2456
   0  11   8  8.5422  0.2504
   1  11   8  73.944   0.617
   2  11   8  23.852   0.403
   3  11   8  3.2118  0.2273
   4  11   8  19.736   0.356
   5  11   8  39.933   0.457
   6  11   8  0.1826  0.2235
   7  11   8 -0.0611  0.2257
   8  11   8 -0.1427  0.2179
   9  11   8  1.4016  0.2352
  10  11   8  0.5626  0.2310
  11  11   8  1.5633  0.2448
 -12  12   8  3.3422  0.2943
 -11  12   8  8.1203  0.3384
 -10  12   8  7.8721  0.3035
  -9  12   8  2.0099  0.2692
  -8  12   8  14.491   0.358
  -7  12   8  1.1159  0.2443
  -6  12   8  0.0404  0.2176
  -5  12   8  0.6512  0.2225
  -4  12   8  0.9963  0.2240
  -3  12   8  0.0834  0.2145
  -2  12   8  34.483   0.470
  -1  12   8  5.8669  0.2875
   0  12   8  10.608   0.320
   1  12   8  0.1790  0.2288
   2  12   8  0.1578  0.2437
   3  12   8  8.4347  0.2989
   4  12   8  10.286   0.299
   5  12   8  4.9292  0.2579
   6  12   8  9.6090  0.2997
   7  12   8  1.9783  0.2354
   8  12   8 -0.2497  0.2339
   9  12   8  1.0689  0.2387
 -10  13   8  5.7442  0.2904
  -9  13   8 -0.1758  0.2408
  -8  13   8  0.6955  0.2650
  -7  13   8  1.8807  0.2701
  -6  13   8  11.494   0.353
  -5  13   8  3.8072  0.2779
  -4  13   8  1.1517  0.2689
  -3  13   8  0.0560  0.2570
  -2  13   8  6.9291  0.3190
  -1  13   8  0.9945  0.2385
   0  13   8  0.6916  0.2750
   1  13   8  2.6118  0.2553
   2  13   8  0.7326  0.2453
   3  13   8  1.0968  0.2383
   4  13   8  0.0754  0.2569
   5  13   8  8.1920  0.3114
   6  13   8  0.4216  0.2117
   7  13   8  1.8647  0.2291
  -7  14   8  0.6623  0.2819
  -6  14   8  3.6606  0.3021
  -5  14   8  1.4691  0.2683
  -4  14   8  6.7560  0.3230
  -3  14   8  2.4749  0.2871
  -2  14   8  0.6574  0.2430
  -1  14   8  0.0400  0.2276
   0  14   8 -0.2024  0.2234
   1  14   8  0.2176  0.2363
   2  14   8  0.5311  0.2493
   3  14   8  1.2458  0.2335
   4  14   8  6.5670  0.2889
 -20   0   9 -0.6537  0.4078
 -19   0   9  0.6315  0.3805
 -18   0   9 -0.1441  0.3638
 -17   0   9 -0.3787  0.3271
 -16   0   9 -0.2387  0.2981
 -15   0   9 -0.2376  0.2319
 -14   0   9  0.3829  0.2032
 -13   0   9  0.0729  0.1637
 -12   0   9  0.2841  0.1459
 -11   0   9  0.0933  0.1169
 -10   0   9 -0.0281  0.1515
  -9   0   9  0.2007  0.1410
  -8   0   9  0.1419  0.1390
  -7   0   9  0.1568  0.1402
  -6   0   9  0.4161  0.1305
  -5   0   9  0.1772  0.1281
  -4   0   9  0.1506  0.1197
  -3   0   9  0.2538  0.1196
  -2   0   9  0.4010  0.1178
  -1   0   9  0.2254  0.1152
   0   0   9  0.4146  0.1226
   1   0   9  0.3119  0.1392
   2   0   9 -0.0652  0.1385
   3   0   9  0.1229  0.1288
   4   0   9 -0.0818  0.1193
   5   0   9  0.1193  0.1193
   6   0   9 -0.1602  0.1458
   7   0   9  0.0662  0.1288
   8   0   9  0.3888  0.1568
   9   0   9  0.2285  0.1664
  10   0   9  0.6140  0.1919
  11   0   9 -0.3442  0.2025
  12   0   9  0.4647  0.2260
  13   0   9 -0.0500  0.2559
  14   0   9  0.1825  0.2770
  15   0   9  0.3970  0.3093
  16   0   9  0.4017  0.3182
  17   0   9 -0.0047  0.3215
 -20   1   9  0.1505  0.2972
 -19   1   9  0.4783  0.2791
 -18   1   9  6.1312  0.2886
 -17   1   9 -0.1581  0.2334
 -16   1   9  13.148   0.284
 -15   1   9  4.3488  0.2003
 -14   1   9  0.1032  0.1411
 -13   1   9  3.8091  0.1476
 -12   1   9  3.7609  0.1295
 -11   1   9  65.366   0.336
 -10   1   9  0.1809  0.1004
  -9   1   9  31.631   0.270
  -8   1   9  4.8583  0.1368
  -7   1   9  3.1951  0.1191
  -6   1   9  5.0989  0.1313
  -5   1   9  158.02    0.52
  -4   1   9  18.026   0.183
  -3   1   9  284.50    0.79
  -2   1   9  28.644   0.228
  -1   1   9  5.1759  0.1184
   0   1   9  83.342   0.375
   1   1   9  0.3835  0.0822
   2   1   9  111.62    0.42
   3   1   9  6.8773  0.1412
   4   1   9  142.31    0.49
   5   1   9  10.197   0.152
   6   1   9  1.3292  0.1153
   7   1   9  2.3048  0.1021
   8   1   9  5.1440  0.1301
   9   1   9  41.755   0.271
  10   1   9 -0.0712  0.1271
  11   1   9  56.999   0.396
  12   1   9  1.4330  0.1763
  13   1   9  0.1315  0.1721
  14   1   9  0.6645  0.1859
  15   1   9  0.8357  0.2115
  16   1   9  0.4051  0.2252
  17   1   9  0.0427  0.2231
 -20   2   9 -0.2231  0.2960
 -19   2   9  0.0278  0.2661
 -18   2   9 -0.2051  0.2497
 -17   2   9  10.802   0.308
 -16   2   9  2.1151  0.2307
 -15   2   9  2.7109  0.1829
 -14   2   9  4.0131  0.1801
 -13   2   9  4.5014  0.1689
 -12   2   9  39.361   0.285
 -11   2   9  3.3177  0.1335
 -10   2   9  89.714   0.389
  -9   2   9  11.891   0.178
  -8   2   9  68.663   0.356
  -7   2   9  0.2668  0.0943
  -6   2   9  159.25    0.57
  -5   2   9  6.1486  0.1268
  -4   2   9  22.563   0.196
  -3   2   9  372.68    0.84
  -2   2   9  34.409   0.244
  -1   2   9  27.306   0.237
   0   2   9  115.58    0.47
   1   2   9  14.754   0.184
   2   2   9  226.81    0.68
   3   2   9  195.76    0.63
   4   2   9  35.380   0.276
   5   2   9  74.496   0.377
   6   2   9  42.164   0.247
   7   2   9  18.685   0.178
   8   2   9  34.602   0.249
   9   2   9  0.3796  0.1115
  10   2   9  9.0186  0.1732
  11   2   9  1.8286  0.1507
  12   2   9  10.466   0.220
  13   2   9  3.7334  0.1874
  14   2   9  13.197   0.263
  15   2   9  8.9058  0.2483
  16   2   9  0.6423  0.2211
  17   2   9  8.0340  0.3127
 -20   3   9  2.3375  0.3261
 -19   3   9  7.5142  0.3102
 -18   3   9  3.8865  0.2790
 -17   3   9  3.4766  0.2634
 -16   3   9  0.4977  0.2110
 -15   3   9  10.206   0.253
 -14   3   9  12.570   0.259
 -13   3   9  0.0944  0.1598
 -12   3   9  9.7140  0.1939
 -11   3   9  27.222   0.259
 -10   3   9  6.0344  0.1359
  -9   3   9  6.8491  0.1425
  -8   3   9  12.212   0.188
  -7   3   9  21.273   0.232
  -6   3   9  149.83    0.58
  -5   3   9  27.448   0.217
  -4   3   9  38.816   0.253
  -3   3   9  491.50    1.00
  -2   3   9  24.091   0.230
  -1   3   9  47.297   0.313
   0   3   9  10.439   0.168
   1   3   9  264.71    0.71
   2   3   9  6.8662  0.1512
   3   3   9  36.369   0.303
   4   3   9  158.04    0.60
   5   3   9  4.4284  0.1336
   6   3   9  17.919   0.172
   7   3   9  1.6933  0.0941
   8   3   9  123.50    0.43
   9   3   9  18.415   0.203
  10   3   9  2.0527  0.1329
  11   3   9  16.510   0.238
  12   3   9  25.643   0.312
  13   3   9  0.7846  0.1805
  14   3   9  0.1145  0.1956
  15   3   9 -0.2489  0.2107
  16   3   9  9.1954  0.2832
  17   3   9  0.0686  0.2324
 -20   4   9  0.1041  0.2813
 -19   4   9  0.2376  0.2712
 -18   4   9  7.1541  0.3156
 -17   4   9  0.0238  0.2232
 -16   4   9  31.116   0.395
 -15   4   9  51.032   0.452
 -14   4   9  4.7910  0.2197
 -13   4   9  0.5315  0.1635
 -12   4   9  1.7701  0.1563
 -11   4   9  55.223   0.364
 -10   4   9  49.236   0.321
  -9   4   9  219.82    0.61
  -8   4   9  67.442   0.339
  -7   4   9  0.6874  0.1186
  -6   4   9  14.610   0.195
  -5   4   9  8.8691  0.1611
  -4   4   9  173.44    0.57
  -3   4   9  257.14    0.70
  -2   4   9  379.35    0.86
  -1   4   9  1.8771  0.0965
   0   4   9  59.496   0.337
   1   4   9  2.0770  0.0962
   2   4   9  44.500   0.316
   3   4   9  120.78    0.54
   4   4   9  1.0302  0.1190
   5   4   9  50.959   0.291
   6   4   9  4.1532  0.1257
   7   4   9  59.557   0.316
   8   4   9  17.829   0.202
   9   4   9  5.5123  0.1538
  10   4   9  11.399   0.203
  11   4   9 -0.0408  0.1652
  12   4   9  4.1919  0.2035
  13   4   9  31.048   0.373
  14   4   9  5.0705  0.2360
  15   4   9  0.6016  0.2166
  16   4   9  0.8662  0.2184
 -19   5   9  14.193   0.378
 -18   5   9  1.6042  0.2901
 -17   5   9  0.0396  0.2501
 -16   5   9  2.6065  0.2433
 -15   5   9 -0.0519  0.2082
 -14   5   9  0.0466  0.1813
 -13   5   9  0.1508  0.1745
 -12   5   9  28.156   0.307
 -11   5   9  0.0804  0.1353
 -10   5   9  38.366   0.283
  -9   5   9  43.001   0.284
  -8   5   9  44.088   0.278
  -7   5   9  94.712   0.395
  -6   5   9  49.586   0.315
  -5   5   9  52.975   0.362
  -4   5   9  21.191   0.241
  -3   5   9  203.18    0.69
  -2   5   9  9.9124  0.1712
  -1   5   9  88.599   0.425
   0   5   9  139.19    0.55
   1   5   9  270.66    0.77
   2   5   9  44.131   0.316
   3   5   9  43.810   0.289
   4   5   9  273.19    0.71
   5   5   9  80.873   0.371
   6   5   9  44.271   0.292
   7   5   9  107.08    0.45
   8   5   9  49.069   0.328
   9   5   9  2.5207  0.1479
  10   5   9  7.5862  0.2039
  11   5   9  24.244   0.319
  12   5   9  5.3967  0.2253
  13   5   9  8.9514  0.2762
  14   5   9  3.8792  0.2340
  15   5   9  2.1106  0.2365
  16   5   9  5.9181  0.2658
 -19   6   9  5.1065  0.3201
 -18   6   9  0.9738  0.2847
 -17   6   9 -0.1007  0.2579
 -16   6   9  18.142   0.366
 -15   6   9  28.710   0.402
 -14   6   9  13.685   0.275
 -13   6   9  85.103   0.491
 -12   6   9  33.309   0.317
 -11   6   9  3.5903  0.1677
 -10   6   9  9.5215  0.1805
  -9   6   9  27.848   0.241
  -8   6   9  45.938   0.291
  -7   6   9  9.2268  0.1582
  -6   6   9  254.53    0.68
  -5   6   9  52.473   0.338
  -4   6   9  97.401   0.454
  -3   6   9  54.332   0.349
  -2   6   9  130.09    0.54
  -1   6   9  238.34    0.71
   0   6   9  5.8305  0.1421
   1   6   9  340.83    0.87
   2   6   9  0.9933  0.1080
   3   6   9  77.370   0.376
   4   6   9  4.2457  0.1314
   5   6   9  28.543   0.252
   6   6   9  14.746   0.209
   7   6   9  63.016   0.396
   8   6   9  56.112   0.374
   9   6   9  1.3480  0.1577
  10   6   9  147.47    0.66
  11   6   9  1.5331  0.2014
  12   6   9  17.862   0.312
  13   6   9  25.721   0.405
  14   6   9  6.7719  0.2833
  15   6   9  9.4430  0.3014
 -18   7   9  1.5295  0.2774
 -17   7   9  2.3033  0.2730
 -16   7   9  6.2361  0.2955
 -15   7   9  19.767   0.352
 -14   7   9  5.3842  0.2458
 -13   7   9  9.6977  0.2392
 -12   7   9  15.037   0.257
 -11   7   9  26.773   0.296
 -10   7   9  40.067   0.314
  -9   7   9  4.1594  0.1563
  -8   7   9  61.277   0.349
  -7   7   9  107.89    0.48
  -6   7   9  19.612   0.232
  -5   7   9  78.030   0.389
  -4   7   9  64.154   0.365
  -3   7   9  62.228   0.337
  -2   7   9  101.65    0.43
  -1   7   9  2.1579  0.1154
   0   7   9  125.70    0.49
   1   7   9  4.6214  0.1414
   2   7   9  254.35    0.71
   3   7   9  0.8267  0.1251
   4   7   9  153.84    0.59
   5   7   9  0.3058  0.1355
   6   7   9  0.3275  0.1502
   7   7   9  172.13    0.77
   8   7   9  15.859   0.288
   9   7   9  125.88    0.69
  10   7   9  2.3516  0.2131
  11   7   9  17.980   0.347
  12   7   9  8.9038  0.3069
  13   7   9  0.2055  0.2586
  14   7   9  4.8686  0.3025
  15   7   9  1.2586  0.2728
 -17   8   9  10.915   0.366
 -16   8   9  22.873   0.426
 -15   8   9  6.1970  0.2614
 -14   8   9  31.848   0.400
 -13   8   9  29.868   0.360
 -12   8   9  84.180   0.520
 -11   8   9  14.290   0.269
 -10   8   9  59.295   0.431
  -9   8   9  51.874   0.374
  -8   8   9  5.0920  0.1861
  -7   8   9  35.381   0.321
  -6   8   9  70.449   0.424
  -5   8   9  32.605   0.291
  -4   8   9  9.7014  0.1875
  -3   8   9  10.261   0.190
  -2   8   9  19.987   0.236
  -1   8   9  35.426   0.301
   0   8   9  6.0188  0.1508
   1   8   9  99.886   0.460
   2   8   9  1.8050  0.1329
   3   8   9  6.3837  0.1716
   4   8   9  14.799   0.231
   5   8   9  1.2896  0.1571
   6   8   9  4.3560  0.1970
   7   8   9  7.7865  0.2531
   8   8   9  29.413   0.385
   9   8   9  4.7148  0.2483
  10   8   9  26.230   0.387
  11   8   9 -0.2824  0.2426
  12   8   9  6.7744  0.3131
  13   8   9  7.5227  0.3294
  14   8   9  2.3382  0.2655
 -16   9   9  0.9909  0.2466
 -15   9   9  7.2853  0.2868
 -14   9   9  14.905   0.330
 -13   9   9  0.6937  0.2207
 -12   9   9  21.566   0.343
 -11   9   9  11.612   0.281
 -10   9   9  15.618   0.305
  -9   9   9  1.1063  0.1918
  -8   9   9  63.565   0.476
  -7   9   9  6.1523  0.2143
  -6   9   9  56.547   0.433
  -5   9   9  13.721   0.229
  -4   9   9  56.604   0.399
  -3   9   9  39.367   0.341
  -2   9   9  0.9060  0.1574
  -1   9   9  72.529   0.457
   0   9   9  42.040   0.340
   1   9   9  1.9529  0.1546
   2   9   9  20.784   0.259
   3   9   9  6.2481  0.1913
   4   9   9  6.6689  0.2088
   5   9   9  45.392   0.412
   6   9   9  49.917   0.441
   7   9   9  84.419   0.611
   8   9   9  2.6050  0.2208
   9   9   9  45.899   0.485
  10   9   9  3.0458  0.2508
  11   9   9  2.7118  0.2536
  12   9   9  8.0103  0.3122
  13   9   9  3.4597  0.2848
 -15  10   9  0.1454  0.2649
 -14  10   9  14.489   0.384
 -13  10   9  8.3057  0.2936
 -12  10   9  5.1474  0.2779
 -11  10   9  88.065   0.648
 -10  10   9  11.540   0.304
  -9  10   9  90.439   0.617
  -8  10   9  7.0407  0.2562
  -7  10   9  9.3488  0.2750
  -6  10   9  28.047   0.371
  -5  10   9  40.575   0.403
  -4  10   9  70.364   0.492
  -3  10   9  5.6331  0.2331
  -2  10   9  38.333   0.387
  -1  10   9  12.538   0.252
   0  10   9  10.610   0.264
   1  10   9  56.977   0.441
   2  10   9  0.0330  0.1819
   3  10   9  70.698   0.512
   4  10   9  1.4402  0.1994
   5  10   9  28.363   0.365
   6  10   9  34.172   0.398
   7  10   9  1.2135  0.2169
   8  10   9  54.435   0.509
   9  10   9  0.2245  0.2123
  10  10   9  16.715   0.361
  11  10   9  0.9421  0.2477
  12  10   9  14.163   0.371
 -14  11   9  14.470   0.396
 -13  11   9  0.2963  0.2798
 -12  11   9  16.082   0.384
 -11  11   9  0.0442  0.2457
 -10  11   9  6.5089  0.2794
  -9  11   9  0.7838  0.2352
  -8  11   9  25.276   0.395
  -7  11   9  4.9004  0.2570
  -6  11   9  33.599   0.410
  -5  11   9  54.477   0.497
  -4  11   9  28.123   0.363
  -3  11   9  46.676   0.450
  -2  11   9  6.0487  0.2508
  -1  11   9  38.475   0.437
   0  11   9  23.445   0.359
   1  11   9  1.0628  0.2209
   2  11   9  67.104   0.594
   3  11   9  1.7618  0.2513
   4  11   9  13.642   0.326
   5  11   9  53.011   0.508
   6  11   9  28.789   0.411
   7  11   9  28.828   0.423
   8  11   9  0.0143  0.2128
   9  11   9  50.432   0.524
  10  11   9  0.2412  0.2286
 -12  12   9  22.016   0.413
 -11  12   9  21.281   0.412
 -10  12   9  4.7740  0.2849
  -9  12   9  4.5826  0.2707
  -8  12   9  17.993   0.370
  -7  12   9  32.670   0.454
  -6  12   9  6.4884  0.2774
  -5  12   9  0.2540  0.2317
  -4  12   9  22.331   0.390
  -3  12   9  2.4004  0.2300
  -2  12   9  2.0724  0.2432
  -1  12   9  21.762   0.437
   0  12   9  13.663   0.365
   1  12   9  8.9967  0.3120
   2  12   9  9.6639  0.3291
   3  12   9  12.926   0.358
   4  12   9  0.3411  0.2363
   5  12   9  13.583   0.332
   6  12   9  1.2979  0.2241
   7  12   9  0.3174  0.2183
   8  12   9  2.1412  0.2304
   9  12   9 -0.1800  0.2141
  -9  13   9  0.4150  0.2540
  -8  13   9  23.074   0.449
  -7  13   9  0.5963  0.2627
  -6  13   9  11.083   0.359
  -5  13   9  13.405   0.385
  -4  13   9  6.3653  0.3316
  -3  13   9  20.964   0.465
  -2  13   9  0.5371  0.2447
  -1  13   9  23.912   0.428
   0  13   9  3.8852  0.2792
   1  13   9  0.2685  0.2743
   2  13   9  33.970   0.514
   3  13   9  0.7698  0.2471
   4  13   9  14.423   0.354
   5  13   9  19.253   0.419
   6  13   9  7.9575  0.2990
  -6  14   9 -0.1810  0.2748
  -5  14   9  5.1622  0.2910
  -4  14   9  34.686   0.522
  -3  14   9  17.384   0.409
  -2  14   9  19.573   0.405
  -1  14   9  18.302   0.389
   0  14   9  11.130   0.335
   1  14   9  1.0932  0.2455
   2  14   9  0.5996  0.2432
 -20   0  10  0.2911  0.4055
 -19   0  10  4.1427  0.4448
 -18   0  10  0.1874  0.3683
 -17   0  10  21.648   0.549
 -16   0  10  22.869   0.445
 -15   0  10  6.2443  0.3175
 -14   0  10  134.15    0.80
 -13   0  10  12.281   0.273
 -12   0  10  56.250   0.491
 -11   0  10  9.3798  0.2082
 -10   0  10  17.991   0.289
  -9   0  10  342.43    1.11
  -8   0  10  9.2840  0.2136
  -7   0  10  298.25    1.02
  -6   0  10  340.34    1.15
  -5   0  10  851.67    1.77
  -4   0  10  8.5510  0.1876
  -3   0  10  31.153   0.309
  -2   0  10  780.15    1.74
  -1   0  10  566.63    1.43
   0   0  10 1247.72    2.65
   1   0  10 1912.70    3.14
   2   0  10  879.91    2.21
   3   0  10  10.337   0.235
   4   0  10  0.6805  0.1337
   5   0  10  210.34    0.89
   6   0  10  0.1696  0.1226
   7   0  10  469.24    1.13
   8   0  10  54.733   0.408
   9   0  10  239.20    0.90
  10   0  10  27.302   0.372
  11   0  10  81.841   0.632
  12   0  10  5.3208  0.2912
  13   0  10  11.776   0.369
  14   0  10  60.550   0.716
  15   0  10  66.120   0.715
  16   0  10  16.410   0.449
  17   0  10  15.876   0.470
 -20   1  10  16.235   0.425
 -19   1  10  0.8918  0.2757
 -18   1  10  53.190   0.566
 -17   1  10  1.0423  0.2384
 -16   1  10 -0.0075  0.2085
 -15   1  10  162.47    0.67
 -14   1  10  10.656   0.212
 -13   1  10  39.558   0.298
 -12   1  10  2.4965  0.1174
 -11   1  10  12.835   0.176
 -10   1  10  39.142   0.266
  -9   1  10  14.214   0.167
  -8   1  10  454.14    0.94
  -7   1  10  129.05    0.52
  -6   1  10  30.620   0.251
  -5   1  10  429.45    0.86
  -4   1  10  120.80    0.44
  -3   1  10  84.568   0.362
  -2   1  10  48.262   0.280
  -1   1  10  559.53    0.98
   0   1  10  132.41    0.45
   1   1  10 1085.51    1.49
   2   1  10  16.237   0.192
   3   1  10  141.99    0.53
   4   1  10  279.17    0.72
   5   1  10  40.491   0.273
   6   1  10  390.28    0.73
   7   1  10  204.77    0.53
   8   1  10  213.67    0.57
   9   1  10  175.93    0.56
  10   1  10  3.5524  0.1624
  11   1  10  85.938   0.472
  12   1  10  43.811   0.374
  13   1  10  0.0683  0.1683
  14   1  10  37.298   0.408
  15   1  10  34.479   0.408
  16   1  10  19.928   0.335
 -20   2  10  0.9978  0.2957
 -19   2  10  21.059   0.429
 -18   2  10  7.8093  0.2980
 -17   2  10  15.020   0.347
 -16   2  10 -0.3763  0.2096
 -15   2  10  0.1206  0.1701
 -14   2  10  57.935   0.416
 -13   2  10  4.7248  0.1701
 -12   2  10  59.054   0.361
 -11   2  10  1.8902  0.1219
 -10   2  10  99.440   0.386
  -9   2  10  223.44    0.66
  -8   2  10  209.49    0.63
  -7   2  10  62.425   0.327
  -6   2  10  74.941   0.368
  -5   2  10  174.12    0.54
  -4   2  10  103.36    0.40
  -3   2  10  26.806   0.225
  -2   2  10  340.98    0.76
  -1   2  10  18.191   0.177
   0   2  10  140.46    0.48
   1   2  10  458.22    0.95
   2   2  10  91.963   0.409
   3   2  10  137.20    0.52
   4   2  10  1.2864  0.1183
   5   2  10  361.08    0.70
   6   2  10  40.583   0.237
   7   2  10  58.578   0.292
   8   2  10  3.0591  0.1164
   9   2  10  0.1560  0.1143
  10   2  10  57.980   0.354
  11   2  10  10.027   0.199
  12   2  10  13.223   0.231
  13   2  10  3.4723  0.1906
  14   2  10  14.612   0.285
  15   2  10  30.352   0.388
  16   2  10  1.4092  0.2408
 -20   3  10  12.710   0.390
 -19   3  10  3.9124  0.2687
 -18   3  10  85.725   0.671
 -17   3  10  0.0687  0.2384
 -16   3  10  24.025   0.369
 -15   3  10  37.953   0.431
 -14   3  10  0.2787  0.1842
 -13   3  10  67.573   0.440
 -12   3  10  46.516   0.356
 -11   3  10  48.769   0.329
 -10   3  10  26.232   0.227
  -9   3  10  5.6432  0.1365
  -8   3  10  0.2440  0.1050
  -7   3  10  10.397   0.188
  -6   3  10  13.814   0.181
  -5   3  10  262.55    0.71
  -4   3  10  459.55    0.90
  -3   3  10  117.00    0.46
  -2   3  10  137.88    0.50
  -1   3  10  117.35    0.46
   0   3  10  15.249   0.186
   1   3  10  301.91    0.78
   2   3  10  5.7617  0.1381
   3   3  10  7.7462  0.1707
   4   3  10  156.10    0.56
   5   3  10  3.5743  0.1115
   6   3  10  180.72    0.52
   7   3  10  10.115   0.155
   8   3  10  57.762   0.321
   9   3  10  44.213   0.309
  10   3  10  1.0209  0.1397
  11   3  10  164.71    0.67
  12   3  10  2.1627  0.1876
  13   3  10  27.729   0.360
  14   3  10  20.701   0.334
  15   3  10  6.1532  0.2541
  16   3  10 -0.0680  0.2345
 -19   4  10  6.8627  0.3205
 -18   4  10  8.3618  0.3078
 -17   4  10  0.0861  0.2267
 -16   4  10  0.9110  0.2173
 -15   4  10  1.4122  0.2228
 -14   4  10  41.249   0.388
 -13   4  10  3.7059  0.1900
 -12   4  10  66.941   0.430
 -11   4  10  94.688   0.453
 -10   4  10  106.93    0.45
  -9   4  10  360.06    0.80
  -8   4  10  167.45    0.52
  -7   4  10  208.54    0.61
  -6   4  10  18.527   0.220
  -5   4  10  164.65    0.63
  -4   4  10  335.27    0.87
  -3   4  10  19.146   0.210
  -2   4  10  126.06    0.48
  -1   4  10  10.959   0.172
   0   4  10  93.826   0.432
   1   4  10  23.947   0.234
   2   4  10  142.97    0.53
   3   4  10  237.81    0.67
   4   4  10  0.4988  0.0953
   5   4  10  447.34    0.87
   6   4  10 -0.2439  0.1093
   7   4  10  55.934   0.326
   8   4  10 -0.0291  0.1171
   9   4  10 -0.0162  0.1278
  10   4  10  76.525   0.460
  11   4  10  7.2898  0.2252
  12   4  10  37.092   0.386
  13   4  10  0.6076  0.2047
  14   4  10  14.116   0.303
  15   4  10  6.0682  0.2517
  16   4  10  17.225   0.348
 -19   5  10  5.3114  0.3223
 -18   5  10  6.7007  0.3130
 -17   5  10  41.239   0.490
 -16   5  10  4.6571  0.2493
 -15   5  10  114.08    0.66
 -14   5  10  11.296   0.265
 -13   5  10  86.961   0.537
 -12   5  10  12.828   0.242
 -11   5  10  16.654   0.230
 -10   5  10  258.44    0.72
  -9   5  10  0.4836  0.1175
  -8   5  10  94.742   0.405
  -7   5  10  53.832   0.311
  -6   5  10  62.449   0.328
  -5   5  10  49.040   0.307
  -4   5  10  159.44    0.62
  -3   5  10  277.25    0.80
  -2   5  10  49.635   0.351
  -1   5  10  168.53    0.57
   0   5  10  27.040   0.250
   1   5  10  171.32    0.58
   2   5  10  2.2026  0.1058
   3   5  10  11.212   0.159
   4   5  10  166.50    0.51
   5   5  10  22.143   0.218
   6   5  10  107.80    0.47
   7   5  10 -0.0254  0.1297
   8   5  10  6.9603  0.1758
   9   5  10  114.20    0.55
  10   5  10  33.892   0.342
  11   5  10  185.28    0.81
  12   5  10  0.2778  0.2024
  13   5  10  16.842   0.321
  14   5  10  11.238   0.290
  15   5  10  0.2172  0.2142
 -18   6  10  6.3063  0.3261
 -17   6  10  1.0472  0.2599
 -16   6  10  0.6638  0.2499
 -15   6  10  4.6235  0.2440
 -14   6  10  21.070   0.303
 -13   6  10  8.9018  0.2384
 -12   6  10  30.917   0.312
 -11   6  10  70.515   0.429
 -10   6  10  66.415   0.392
  -9   6  10  93.371   0.424
  -8   6  10  105.54    0.42
  -7   6  10  95.084   0.403
  -6   6  10  27.768   0.235
  -5   6  10  124.73    0.49
  -4   6  10  64.978   0.334
  -3   6  10  47.224   0.301
  -2   6  10  2.0841  0.1170
  -1   6  10  96.273   0.433
   0   6  10  63.011   0.338
   1   6  10  0.3730  0.1039
   2   6  10  39.200   0.277
   3   6  10  22.388   0.215
   4   6  10  10.932   0.164
   5   6  10  36.453   0.284
   6   6  10  21.685   0.251
   7   6  10  14.899   0.234
   8   6  10  2.1969  0.1666
   9   6  10 -0.1720  0.1847
  10   6  10  36.568   0.365
  11   6  10 -0.3612  0.1994
  12   6  10  17.651   0.336
  13   6  10  10.639   0.304
  14   6  10  0.1013  0.2203
  15   6  10  8.6026  0.3055
 -18   7  10  9.7592  0.3502
 -17   7  10  4.8539  0.3041
 -16   7  10  6.3242  0.3121
 -15   7  10  3.3082  0.2633
 -14   7  10  4.2903  0.2259
 -13   7  10  38.241   0.374
 -12   7  10  7.4631  0.2183
 -11   7  10  0.5666  0.1618
 -10   7  10  50.340   0.363
  -9   7  10  35.473   0.299
  -8   7  10  0.7447  0.1319
  -7   7  10  6.2360  0.1780
  -6   7  10  2.6106  0.1382
  -5   7  10  18.352   0.218
  -4   7  10  32.974   0.282
  -3   7  10  5.5948  0.1421
  -2   7  10  39.393   0.285
  -1   7  10  1.8531  0.1250
   0   7  10  67.972   0.381
   1   7  10  12.493   0.193
   2   7  10  11.605   0.194
   3   7  10  3.0837  0.1479
   4   7  10  17.937   0.234
   5   7  10  43.240   0.342
   6   7  10  45.390   0.389
   7   7  10  0.5210  0.1834
   8   7  10  31.013   0.374
   9   7  10  54.870   0.484
  10   7  10  1.9354  0.2151
  11   7  10  24.421   0.402
  12   7  10  6.8291  0.2958
  13   7  10  3.5948  0.2692
  14   7  10  0.0383  0.2663
 -17   8  10  0.2368  0.2657
 -16   8  10  0.3460  0.2472
 -15   8  10  1.9246  0.2322
 -14   8  10  17.223   0.326
 -13   8  10  0.5360  0.1872
 -12   8  10  2.5293  0.2088
 -11   8  10  21.070   0.300
 -10   8  10  17.345   0.260
  -9   8  10  20.179   0.269
  -8   8  10  57.053   0.409
  -7   8  10  7.2373  0.2001
  -6   8  10  31.029   0.301
  -5   8  10  2.9605  0.1518
  -4   8  10  83.047   0.438
  -3   8  10  110.00    0.50
  -2   8  10  5.7022  0.1732
  -1   8  10  9.2025  0.1867
   0   8  10  20.089   0.229
   1   8  10  3.3524  0.1429
   2   8  10  37.663   0.320
   3   8  10  56.706   0.415
   4   8  10  2.4034  0.1626
   5   8  10  14.293   0.256
   6   8  10  22.965   0.311
   7   8  10  0.1468  0.1935
   8   8  10  17.880   0.310
   9   8  10  5.4440  0.2423
  10   8  10  33.114   0.411
  11   8  10  0.3161  0.2279
  12   8  10  15.217   0.361
  13   8  10  0.1134  0.2434
 -16   9  10  0.0060  0.2808
 -15   9  10  1.6858  0.2405
 -14   9  10  6.4094  0.2787
 -13   9  10  25.716   0.398
 -12   9  10  2.6113  0.2330
 -11   9  10  1.1346  0.2153
 -10   9  10  24.494   0.356
  -9   9  10  6.0075  0.2302
  -8   9  10  2.1325  0.1997
  -7   9  10  58.792   0.469
  -6   9  10  6.1267  0.2168
  -5   9  10  55.252   0.404
  -4   9  10  27.712   0.303
  -3   9  10  0.2050  0.1513
  -2   9  10  8.2660  0.2065
  -1   9  10  4.4017  0.1779
   0   9  10  0.9558  0.1539
   1   9  10  71.284   0.429
   2   9  10 -0.1076  0.1607
   3   9  10  36.289   0.367
   4   9  10  0.0626  0.1683
   5   9  10  10.762   0.255
   6   9  10  92.389   0.597
   7   9  10  0.1405  0.2051
   8   9  10  0.1287  0.2242
   9   9  10  38.099   0.457
  10   9  10  1.0293  0.2228
  11   9  10 -0.0612  0.2265
  12   9  10  0.1842  0.2498
 -15  10  10  6.1296  0.3077
 -14  10  10  6.6404  0.2920
 -13  10  10  0.6500  0.2524
 -12  10  10  0.0496  0.2365
 -11  10  10  2.5265  0.2621
 -10  10  10  0.5464  0.2281
  -9  10  10  7.5182  0.2676
  -8  10  10 -0.5130  0.2373
  -7  10  10  33.101   0.408
  -6  10  10  0.1464  0.2108
  -5  10  10  8.4458  0.2594
  -4  10  10  0.2217  0.1765
  -3  10  10  16.216   0.281
  -2  10  10  5.7317  0.2162
  -1  10  10  96.010   0.582
   0  10  10  83.402   0.537
   1  10  10  23.783   0.340
   2  10  10  11.140   0.266
   3  10  10  0.1987  0.1871
   4  10  10 -0.0840  0.1827
   5  10  10  0.0017  0.1984
   6  10  10  1.1985  0.2114
   7  10  10  14.240   0.312
   8  10  10  0.7282  0.2157
   9  10  10  4.8515  0.2481
  10  10  10 -0.0370  0.2313
  11  10  10  5.3712  0.2803
 -13  11  10  5.8270  0.3330
 -12  11  10  32.637   0.478
 -11  11  10  22.128   0.403
 -10  11  10 -0.1760  0.2362
  -9  11  10  2.1821  0.2507
  -8  11  10  0.0361  0.2194
  -7  11  10  0.9830  0.2312
  -6  11  10  1.6557  0.2159
  -5  11  10  3.0615  0.2418
  -4  11  10  0.0361  0.2115
  -3  11  10  7.2262  0.2551
  -2  11  10  0.1130  0.2177
  -1  11  10  4.8360  0.2492
   0  11  10  9.0481  0.2705
   1  11  10  13.485   0.324
   2  11  10  1.6882  0.2458
   3  11  10  0.5085  0.2312
   4  11  10  23.224   0.418
   5  11  10  1.8914  0.2378
   6  11  10  2.0267  0.2196
   7  11  10 -0.1527  0.2106
   8  11  10  0.7353  0.2170
   9  11  10  20.285   0.386
  10  11  10  3.7319  0.2598
 -11  12  10  9.7731  0.3338
 -10  12  10  0.9588  0.2508
  -9  12  10  0.3711  0.2417
  -8  12  10  1.1361  0.2341
  -7  12  10  0.3705  0.2361
  -6  12  10  4.3345  0.2355
  -5  12  10  0.0407  0.2147
  -4  12  10  1.7683  0.2447
  -3  12  10  0.2915  0.2329
  -2  12  10  35.456   0.459
  -1  12  10  26.147   0.443
   0  12  10  1.1802  0.2424
   1  12  10  2.7356  0.2583
   2  12  10  4.3978  0.2782
   3  12  10  9.4051  0.3332
   4  12  10 -0.0411  0.2467
   5  12  10 -0.0456  0.2399
   6  12  10  0.1378  0.2256
   7  12  10  0.0826  0.2169
   8  12  10  0.1826  0.2076
  -9  13  10 -0.1830  0.2587
  -8  13  10  13.701   0.384
  -7  13  10  4.4284  0.2992
  -6  13  10  8.0781  0.3236
  -5  13  10  9.6071  0.3203
  -4  13  10  3.3090  0.2773
  -3  13  10 -0.5156  0.2605
  -2  13  10  0.7475  0.2395
  -1  13  10 -0.1904  0.2272
   0  13  10  5.4771  0.2890
   1  13  10  2.2108  0.2590
   2  13  10  0.0269  0.2359
   3  13  10  0.8320  0.2442
   4  13  10  0.1120  0.2426
   5  13  10  0.2812  0.2396
  -4  14  10  6.4060  0.3022
  -3  14  10  0.1448  0.2642
  -2  14  10  0.0095  0.3104
  -1  14  10  0.4842  0.2594
   0  14  10  2.1978  0.2413
   1  14  10 -0.1406  0.2347
 -20   0  11  0.5659  0.4597
 -19   0  11 -0.1851  0.4042
 -18   0  11 -0.3253  0.3841
 -17   0  11  0.2542  0.3132
 -16   0  11  0.0856  0.2842
 -15   0  11 -0.1115  0.2654
 -14   0  11  0.2787  0.2115
 -13   0  11  0.0230  0.1890
 -12   0  11  0.1759  0.1588
 -11   0  11 -0.0845  0.1384
 -10   0  11 -0.0469  0.1559
  -9   0  11  0.1325  0.1391
  -8   0  11  0.1885  0.1417
  -7   0  11  0.2013  0.1344
  -6   0  11 -0.0088  0.1206
  -5   0  11  0.4052  0.1150
  -4   0  11  0.0639  0.1068
  -3   0  11  0.2955  0.0958
  -2   0  11  0.2536  0.1180
   1   0  11  0.2279  0.1268
   2   0  11  0.1770  0.1340
   3   0  11  0.1512  0.1277
   4   0  11 -0.0050  0.1328
   5   0  11 -0.0202  0.1215
   6   0  11 -0.1941  0.1400
   7   0  11 -0.0593  0.1549
   8   0  11 -0.3711  0.1854
   9   0  11 -0.0569  0.1860
  10   0  11 -0.1876  0.2117
  11   0  11  0.1378  0.2234
  12   0  11 -0.2549  0.2570
  13   0  11  0.0849  0.2772
  14   0  11  0.6494  0.3039
  15   0  11  0.2225  0.3085
  16   0  11  0.2799  0.2858
 -20   1  11  2.8884  0.3257
 -19   1  11  1.5276  0.2892
 -18   1  11  9.7540  0.3535
 -17   1  11 -0.3618  0.2352
 -16   1  11  7.6941  0.2503
 -15   1  11  0.2621  0.1764
 -14   1  11  14.637   0.232
 -13   1  11  8.1894  0.1806
 -12   1  11  6.3162  0.1558
 -11   1  11  15.621   0.194
 -10   1  11  29.852   0.224
  -9   1  11  1.0009  0.0963
  -8   1  11  9.4814  0.1628
  -7   1  11  52.434   0.320
  -6   1  11  14.097   0.163
  -5   1  11  0.0775  0.0773
  -4   1  11  7.3882  0.1249
  -3   1  11  103.09    0.40
  -2   1  11  11.067   0.152
  -1   1  11  149.09    0.49
   0   1  11  131.83    0.45
   1   1  11  8.3851  0.1352
   2   1  11  0.9560  0.0898
   3   1  11  5.1453  0.1237
   4   1  11  91.600   0.369
   5   1  11  11.085   0.136
   6   1  11  16.239   0.163
   7   1  11  56.388   0.293
   8   1  11  0.5375  0.1283
   9   1  11  37.577   0.294
  10   1  11  10.079   0.203
  11   1  11  7.0553  0.1936
  12   1  11  18.439   0.275
  13   1  11  2.2327  0.2098
  14   1  11  0.9501  0.2042
  15   1  11  0.1722  0.2133
  16   1  11  2.0209  0.2265
 -20   2  11  0.3319  0.3079
 -19   2  11  7.9542  0.3391
 -18   2  11  18.298   0.391
 -17   2  11  18.672   0.392
 -16   2  11  4.6335  0.2414
 -15   2  11  1.8282  0.1939
 -14   2  11  24.422   0.320
 -13   2  11  0.4985  0.1405
 -12   2  11 -0.0318  0.1307
 -11   2  11  25.964   0.251
 -10   2  11  72.807   0.341
  -9   2  11  3.4487  0.1132
  -8   2  11  46.818   0.270
  -7   2  11  15.226   0.191
  -6   2  11  6.9396  0.1350
  -5   2  11  62.467   0.345
  -4   2  11  166.31    0.51
  -3   2  11  5.8279  0.1269
  -2   2  11  85.873   0.386
  -1   2  11  0.7591  0.0923
   0   2  11  41.542   0.279
   1   2  11  4.2742  0.1266
   2   2  11  149.22    0.51
   3   2  11  7.2613  0.1472
   4   2  11  80.421   0.339
   5   2  11  143.36    0.43
   6   2  11  27.648   0.203
   7   2  11  6.8587  0.1337
   8   2  11  0.7344  0.1178
   9   2  11  53.973   0.331
  10   2  11  1.0586  0.1426
  11   2  11  2.2294  0.1570
  12   2  11  3.9667  0.1889
  13   2  11 -0.1377  0.1830
  14   2  11  1.5204  0.2178
  15   2  11  3.8006  0.2481
  16   2  11  1.7396  0.2415
 -20   3  11  0.3532  0.2775
 -19   3  11  1.6973  0.2699
 -18   3  11  6.0305  0.2954
 -17   3  11  5.7402  0.2691
 -16   3  11  5.4418  0.2494
 -15   3  11  5.4723  0.2462
 -14   3  11  28.206   0.328
 -13   3  11  0.2383  0.1662
 -12   3  11  6.6507  0.1944
 -11   3  11  34.369   0.275
 -10   3  11  0.9203  0.1169
  -9   3  11  44.521   0.282
  -8   3  11  25.803   0.223
  -7   3  11  1.7813  0.1152
  -6   3  11  54.037   0.330
  -5   3  11  106.94    0.44
  -4   3  11  99.362   0.409
  -3   3  11  35.744   0.258
  -2   3  11  15.634   0.189
  -1   3  11  24.772   0.237
   0   3  11  1.1598  0.1049
   1   3  11  6.7147  0.1478
   2   3  11  103.26    0.47
   3   3  11  127.70    0.45
   4   3  11  111.75    0.39
   5   3  11  7.7167  0.1325
   6   3  11  0.3856  0.1019
   7   3  11  0.5936  0.1095
   8   3  11  0.4161  0.1138
   9   3  11 -0.1038  0.1314
  10   3  11  33.707   0.314
  11   3  11  54.682   0.417
  12   3  11  28.265   0.346
  13   3  11  2.4266  0.2152
  14   3  11  4.0854  0.2350
  15   3  11  0.2479  0.2242
  16   3  11  0.0413  0.2351
 -19   4  11  1.5991  0.2744
 -18   4  11  0.9826  0.2446
 -17   4  11 -0.0681  0.2287
 -16   4  11  9.8386  0.2667
 -15   4  11  4.1050  0.2479
 -14   4  11  4.2824  0.2129
 -13   4  11  31.928   0.356
 -12   4  11  3.3156  0.1785
 -11   4  11  3.5574  0.1649
 -10   4  11  0.1073  0.1252
  -9   4  11  1.7047  0.1211
  -8   4  11  4.1116  0.1296
  -7   4  11  5.0191  0.1354
  -6   4  11  1.9562  0.1177
  -5   4  11  72.060   0.375
  -4   4  11  5.7857  0.1542
  -3   4  11  0.4829  0.1079
  -2   4  11  91.604   0.447
  -1   4  11  0.8191  0.1044
   0   4  11  0.5108  0.1042
   1   4  11  64.821   0.366
   2   4  11  130.69    0.44
   3   4  11  83.936   0.358
   4   4  11  24.544   0.208
   5   4  11  205.01    0.59
   6   4  11  54.753   0.317
   7   4  11  6.6771  0.1559
   8   4  11  16.102   0.217
   9   4  11  23.575   0.266
  10   4  11  27.006   0.307
  11   4  11  12.935   0.255
  12   4  11  36.594   0.398
  13   4  11  11.730   0.287
  14   4  11  8.1047  0.2670
  15   4  11  0.1097  0.2091
 -19   5  11  0.7223  0.2743
 -18   5  11  12.737   0.348
 -17   5  11  3.5817  0.2589
 -16   5  11  10.697   0.289
 -15   5  11  11.945   0.279
 -14   5  11  20.934   0.328
 -13   5  11  5.5150  0.2282
 -12   5  11  0.3679  0.1755
 -11   5  11  77.762   0.429
 -10   5  11  1.5673  0.1523
  -9   5  11  10.326   0.183
  -8   5  11  35.416   0.263
  -7   5  11  6.6035  0.1413
  -6   5  11  26.516   0.222
  -5   5  11  116.45    0.44
  -4   5  11  195.78    0.56
  -3   5  11  16.634   0.195
  -2   5  11  0.7871  0.0978
  -1   5  11  53.578   0.285
   0   5  11  7.2646  0.1343
   1   5  11  59.388   0.321
   2   5  11  4.0003  0.1186
   3   5  11  235.47    0.62
   4   5  11  8.6489  0.1538
   5   5  11  90.494   0.423
   6   5  11  15.917   0.208
   7   5  11  0.0424  0.1336
   8   5  11  69.145   0.419
   9   5  11  0.9528  0.1728
  10   5  11  25.422   0.316
  11   5  11  20.156   0.310
  12   5  11  20.251   0.341
  13   5  11  0.3224  0.2158
  14   5  11  0.2584  0.2200
  15   5  11  14.013   0.325
 -18   6  11  1.1817  0.2708
 -17   6  11  26.912   0.442
 -16   6  11  0.2034  0.2474
 -15   6  11  12.199   0.288
 -14   6  11  20.684   0.321
 -13   6  11  3.4553  0.2103
 -12   6  11  16.161   0.273
 -11   6  11  30.673   0.322
 -10   6  11  83.064   0.439
  -9   6  11  35.346   0.288
  -8   6  11  58.651   0.340
  -7   6  11  46.575   0.307
  -6   6  11  32.585   0.275
  -5   6  11  101.38    0.44
  -4   6  11  11.791   0.175
  -3   6  11  131.18    0.47
  -2   6  11  101.21    0.42
  -1   6  11  147.18    0.51
   0   6  11  184.85    0.57
   1   6  11  6.4521  0.1524
   2   6  11  189.96    0.58
   3   6  11  8.2389  0.1657
   4   6  11  1.8445  0.1178
   5   6  11  87.947   0.429
   6   6  11  24.178   0.263
   7   6  11  49.240   0.381
   8   6  11  0.9761  0.1620
   9   6  11  98.669   0.570
  10   6  11  10.065   0.237
  11   6  11  7.2110  0.2383
  12   6  11  6.6412  0.2679
  13   6  11  1.6026  0.2302
  14   6  11  22.094   0.400
 -18   7  11  8.2979  0.3363
 -17   7  11  0.7150  0.2570
 -16   7  11  11.004   0.337
 -15   7  11  23.849   0.385
 -14   7  11  15.272   0.302
 -13   7  11  10.528   0.261
 -12   7  11  10.854   0.244
 -11   7  11  20.691   0.282
 -10   7  11  1.4623  0.1579
  -9   7  11  38.595   0.315
  -8   7  11  177.54    0.62
  -7   7  11  51.206   0.368
  -6   7  11  44.208   0.327
  -5   7  11  1.7012  0.1347
  -4   7  11  0.9778  0.1342
  -3   7  11  31.255   0.264
  -2   7  11  2.2127  0.1257
  -1   7  11  221.47    0.70
   0   7  11  101.47    0.47
   1   7  11  41.401   0.317
   2   7  11  43.958   0.339
   3   7  11  0.4695  0.1427
   4   7  11  1.9961  0.1541
   5   7  11  21.389   0.273
   6   7  11  98.913   0.541
   7   7  11  5.8557  0.2134
   8   7  11  101.37    0.62
   9   7  11  1.5731  0.2069
  10   7  11  0.0180  0.2104
  11   7  11  16.950   0.353
  12   7  11  0.2621  0.2495
  13   7  11  13.598   0.350
  14   7  11  0.5714  0.2591
 -17   8  11  2.7420  0.2769
 -16   8  11  1.5741  0.2502
 -15   8  11  0.6215  0.2376
 -14   8  11  11.209   0.305
 -13   8  11  0.5471  0.1947
 -12   8  11  0.2566  0.1915
 -11   8  11 -0.1134  0.1811
 -10   8  11  28.998   0.317
  -9   8  11  8.9548  0.2210
  -8   8  11  40.473   0.354
  -7   8  11  65.802   0.446
  -6   8  11  21.432   0.263
  -5   8  11  50.134   0.364
  -4   8  11  24.826   0.283
  -3   8  11  43.947   0.340
  -2   8  11  6.5812  0.1783
  -1   8  11  21.610   0.252
   0   8  11  97.440   0.501
   1   8  11  7.2479  0.1794
   2   8  11  35.966   0.327
   3   8  11  4.0361  0.1812
   4   8  11  0.6805  0.1632
   5   8  11  25.179   0.324
   6   8  11  3.0273  0.1968
   7   8  11  67.875   0.537
   8   8  11  16.788   0.314
   9   8  11  20.661   0.344
  10   8  11  0.4204  0.2237
  11   8  11  0.5811  0.2103
  12   8  11  1.3847  0.2402
  13   8  11  2.2814  0.2512
 -16   9  11  9.3991  0.3504
 -15   9  11  21.938   0.433
 -14   9  11  5.4478  0.2701
 -13   9  11  55.488   0.518
 -12   9  11  5.5205  0.2595
 -11   9  11  32.678   0.406
 -10   9  11  0.5038  0.2098
  -9   9  11  14.115   0.284
  -8   9  11  32.571   0.364
  -7   9  11  5.3256  0.2314
  -6   9  11  81.335   0.499
  -5   9  11 -0.1222  0.1610
  -4   9  11  58.348   0.405
  -3   9  11  4.9918  0.1968
  -2   9  11  35.718   0.325
  -1   9  11  26.885   0.305
   0   9  11  0.0859  0.1706
   1   9  11  89.508   0.520
   2   9  11  0.2899  0.1608
   3   9  11  25.809   0.327
   4   9  11  9.6020  0.2531
   5   9  11  9.8177  0.2687
   6   9  11  0.4911  0.1962
   7   9  11  2.8677  0.2331
   8   9  11  36.362   0.451
   9   9  11  8.0538  0.2873
  10   9  11  11.816   0.312
  11   9  11  6.3349  0.2880
  12   9  11  0.7478  0.2519
 -14  10  11  29.886   0.444
 -13  10  11  1.6366  0.2497
 -12  10  11  20.568   0.409
 -11  10  11  6.1477  0.2867
 -10  10  11  26.284   0.400
  -9  10  11  17.225   0.327
  -8  10  11  42.136   0.457
  -7  10  11  174.63    0.84
  -6  10  11  38.722   0.419
  -5  10  11  137.19    0.69
  -4  10  11  7.1715  0.2243
  -3  10  11  60.167   0.447
  -2  10  11  5.3811  0.2167
  -1  10  11  18.638   0.310
   0  10  11  62.865   0.506
   1  10  11  11.517   0.271
   2  10  11  24.495   0.345
   3  10  11  7.0230  0.2364
   4  10  11  53.208   0.489
   5  10  11  22.087   0.350
   6  10  11  9.9765  0.2898
   7  10  11  44.410   0.466
   8  10  11  0.0895  0.2211
   9  10  11  2.5172  0.2360
  10  10  11  9.6336  0.3038
 -13  11  11  42.008   0.546
 -12  11  11  0.7115  0.2678
 -11  11  11  23.714   0.429
 -10  11  11  17.757   0.380
  -9  11  11  32.248   0.461
  -8  11  11  4.9832  0.2545
  -7  11  11  0.1275  0.2295
  -6  11  11  35.706   0.429
  -5  11  11  0.0609  0.2172
  -4  11  11  32.491   0.405
  -3  11  11  16.458   0.311
  -2  11  11  64.943   0.537
  -1  11  11  24.471   0.385
   0  11  11  14.781   0.327
   1  11  11  50.870   0.537
   2  11  11  2.8562  0.2533
   3  11  11  22.623   0.402
   4  11  11  2.1729  0.2424
   5  11  11  14.676   0.331
   6  11  11  4.3149  0.2368
   7  11  11  2.4199  0.2251
   8  11  11  9.1839  0.2683
   9  11  11  0.2398  0.2085
 -11  12  11  3.9084  0.2787
 -10  12  11  28.370   0.430
  -9  12  11  1.6611  0.2521
  -8  12  11  33.418   0.474
  -7  12  11  2.1882  0.2412
  -6  12  11  5.1402  0.2599
  -5  12  11  23.458   0.389
  -4  12  11  4.6155  0.2698
  -3  12  11  43.056   0.501
  -2  12  11  2.0300  0.2324
  -1  12  11  2.5906  0.2392
   0  12  11  13.199   0.358
   1  12  11  0.7998  0.2432
   2  12  11  4.0181  0.2842
   3  12  11  25.723   0.468
   4  12  11  18.345   0.393
   5  12  11  12.853   0.338
   6  12  11  1.2179  0.2421
   7  12  11  28.373   0.443
  -8  13  11  0.7772  0.2512
  -7  13  11 -0.5935  0.2565
  -6  13  11  5.3733  0.3157
  -5  13  11  1.4396  0.2498
  -4  13  11  0.1405  0.2732
  -3  13  11  39.562   0.607
  -2  13  11  4.2187  0.3014
  -1  13  11  3.8071  0.2572
   0  13  11  3.6267  0.2695
   1  13  11  2.4975  0.2683
   2  13  11  1.3046  0.2441
   3  13  11  4.2711  0.2726
   4  13  11  12.785   0.346
 -20   0  12  34.623   0.824
 -19   0  12  0.0181  0.4290
 -18   0  12  11.987   0.523
 -17   0  12  94.663   0.888
 -16   0  12  25.053   0.509
 -15   0  12  149.22    0.92
 -14   0  12 -0.0825  0.2219
 -13   0  12  62.866   0.524
 -12   0  12  6.4284  0.2176
 -11   0  12  3.2317  0.1852
 -10   0  12  199.39    0.80
  -9   0  12  31.453   0.317
  -8   0  12  54.355   0.400
  -7   0  12  61.595   0.425
  -6   0  12  93.254   0.571
  -5   0  12  7.0817  0.1835
  -4   0  12  22.979   0.284
  -3   0  12  329.92    1.02
  -2   0  12  43.856   0.389
  -1   0  12 1220.73    2.10
   0   0  12  12.567   0.225
   1   0  12  75.036   0.476
   2   0  12  230.53    0.83
   3   0  12  36.695   0.308
   4   0  12  272.15    0.79
   5   0  12  59.876   0.373
   6   0  12  277.29    0.87
   7   0  12  98.760   0.570
   8   0  12  12.980   0.260
   9   0  12  175.05    0.84
  10   0  12  43.946   0.503
  11   0  12  1.5077  0.2301
  12   0  12  13.322   0.366
  13   0  12  104.42    0.86
  14   0  12  13.412   0.422
  15   0  12  16.457   0.449
 -20   1  12 -0.1187  0.3038
 -19   1  12  20.930   0.442
 -18   1  12  0.4272  0.2867
 -17   1  12  2.3869  0.2450
 -16   1  12  72.896   0.536
 -15   1  12  1.2273  0.2014
 -14   1  12  34.369   0.347
 -13   1  12  12.675   0.222
 -12   1  12  84.424   0.415
 -11   1  12  82.619   0.399
 -10   1  12  263.70    0.64
  -9   1  12  159.67    0.49
  -8   1  12  11.364   0.157
  -7   1  12  358.48    0.75
  -6   1  12  68.955   0.338
  -5   1  12  19.762   0.189
  -4   1  12  40.082   0.256
  -3   1  12  31.946   0.239
  -2   1  12  49.666   0.291
  -1   1  12  564.51    1.03
   0   1  12  250.33    0.68
   1   1  12  65.954   0.337
   2   1  12  27.802   0.232
   3   1  12  205.61    0.51
   4   1  12  21.890   0.176
   5   1  12  180.67    0.46
   6   1  12  60.140   0.295
   7   1  12  249.00    0.64
   8   1  12  134.51    0.50
   9   1  12  27.464   0.265
  10   1  12  19.228   0.248
  11   1  12  4.3715  0.1836
  12   1  12  13.821   0.258
  13   1  12  45.930   0.440
  14   1  12  53.790   0.488
  15   1  12  27.147   0.387
 -20   2  12  17.350   0.428
 -19   2  12 -0.1094  0.2697
 -18   2  12  2.2702  0.2848
 -17   2  12  36.269   0.489
 -16   2  12  3.2610  0.2398
 -15   2  12  40.026   0.425
 -14   2  12  2.1560  0.1866
 -13   2  12  20.455   0.274
 -12   2  12  0.2803  0.1550
 -11   2  12  2.5656  0.1403
 -10   2  12  2.9734  0.1274
  -9   2  12  0.5941  0.1070
  -8   2  12  0.3490  0.1013
  -7   2  12  277.58    0.68
  -6   2  12  212.67    0.60
  -5   2  12  12.551   0.174
  -4   2  12  48.495   0.303
  -3   2  12  38.001   0.269
  -2   2  12  31.697   0.258
  -1   2  12  297.72    0.75
   0   2  12  148.55    0.55
   1   2  12  82.073   0.406
   2   2  12  192.00    0.54
   3   2  12  0.3518  0.0854
   4   2  12  103.66    0.36
   5   2  12  117.47    0.40
   6   2  12  65.010   0.309
   7   2  12  281.83    0.69
   8   2  12  0.4407  0.1257
   9   2  12  268.14    0.76
  10   2  12  6.8961  0.1828
  11   2  12  6.8855  0.2027
  12   2  12  41.923   0.399
  13   2  12  40.111   0.428
  14   2  12  17.343   0.360
  15   2  12  1.8739  0.2461
 -19   3  12  1.5076  0.2655
 -18   3  12  5.5455  0.3016
 -17   3  12  4.9011  0.2824
 -16   3  12  36.261   0.443
 -15   3  12  6.5344  0.2505
 -14   3  12  66.511   0.481
 -13   3  12  2.6341  0.1847
 -12   3  12  39.409   0.346
 -11   3  12  115.00    0.48
 -10   3  12  10.590   0.181
  -9   3  12  116.79    0.44
  -8   3  12  24.931   0.222
  -7   3  12  150.15    0.48
  -6   3  12  31.970   0.233
  -5   3  12  33.067   0.252
  -4   3  12  57.268   0.327
  -3   3  12  19.142   0.208
  -2   3  12  90.477   0.433
  -1   3  12  143.84    0.55
   0   3  12  87.648   0.439
   1   3  12  129.64    0.46
   2   3  12  16.252   0.173
   3   3  12  470.65    0.83
   4   3  12  10.513   0.154
   5   3  12  57.714   0.306
   6   3  12  0.1818  0.1090
   7   3  12  0.9599  0.1193
   8   3  12  78.992   0.408
   9   3  12  9.2919  0.1929
  10   3  12  96.196   0.519
  11   3  12  2.9808  0.1970
  12   3  12  26.242   0.342
  13   3  12  23.418   0.358
  14   3  12  1.0188  0.2276
  15   3  12  39.175   0.460
 -19   4  12  16.696   0.379
 -18   4  12  2.5497  0.2714
 -17   4  12  49.029   0.476
 -16   4  12  0.7553  0.2249
 -15   4  12  23.475   0.344
 -14   4  12 -0.0816  0.1872
 -13   4  12  2.4827  0.1919
 -12   4  12  57.459   0.409
 -11   4  12  13.567   0.216
 -10   4  12  46.137   0.320
  -9   4  12  14.621   0.187
  -8   4  12  24.467   0.233
  -7   4  12  69.273   0.344
  -6   4  12  279.17    0.69
  -5   4  12  252.40    0.64
  -4   4  12  110.83    0.41
  -3   4  12  279.22    0.69
  -2   4  12  0.5440  0.1060
  -1   4  12  217.09    0.62
   0   4  12  18.728   0.179
   1   4  12  103.73    0.39
   2   4  12  56.472   0.306
   3   4  12  39.950   0.256
   4   4  12  247.79    0.61
   5   4  12  0.5574  0.1119
   6   4  12  36.314   0.276
   7   4  12  44.791   0.309
   8   4  12  1.5709  0.1519
   9   4  12  112.96    0.54
  10   4  12  1.1902  0.1805
  11   4  12  22.673   0.319
  12   4  12  12.618   0.282
  13   4  12  3.7893  0.2227
  14   4  12 -0.0620  0.2045
  15   4  12  0.9321  0.2241
 -19   5  12  4.4360  0.3065
 -18   5  12  4.6921  0.3049
 -17   5  12  8.5826  0.3013
 -16   5  12  3.7292  0.2408
 -15   5  12  15.746   0.307
 -14   5  12  6.3745  0.2429
 -13   5  12  82.569   0.543
 -12   5  12  53.597   0.395
 -11   5  12  355.95    0.94
 -10   5  12  69.639   0.408
  -9   5  12  84.603   0.409
  -8   5  12  2.9563  0.1365
  -7   5  12  49.480   0.305
  -6   5  12  94.948   0.381
  -5   5  12  167.30    0.51
  -4   5  12  154.59    0.49
  -3   5  12 -0.0031  0.1020
  -2   5  12  211.15    0.59
  -1   5  12  0.6889  0.0982
   0   5  12  110.14    0.40
   1   5  12  11.809   0.166
   2   5  12  29.531   0.232
   3   5  12  194.86    0.59
   4   5  12  0.0766  0.1186
   5   5  12  99.944   0.460
   6   5  12  24.193   0.248
   7   5  12  2.7746  0.1587
   8   5  12  3.0329  0.1798
   9   5  12  37.827   0.347
  10   5  12  4.7225  0.2070
  11   5  12  1.3400  0.2010
  12   5  12  25.807   0.375
  13   5  12  18.958   0.345
  14   5  12  12.096   0.302
 -18   6  12  0.5127  0.2661
 -17   6  12  8.1167  0.3250
 -16   6  12 -0.0530  0.2243
 -15   6  12  7.4376  0.2630
 -14   6  12  8.1560  0.2505
 -13   6  12  5.1626  0.2328
 -12   6  12  73.366   0.489
 -11   6  12  0.3446  0.1744
 -10   6  12  43.581   0.338
  -9   6  12  0.0564  0.1441
  -8   6  12  6.0696  0.1579
  -7   6  12  0.7505  0.1258
  -6   6  12  17.615   0.228
  -5   6  12  148.42    0.56
  -4   6  12  15.635   0.207
  -3   6  12  289.24    0.73
  -2   6  12  11.638   0.186
  -1   6  12  195.24    0.60
   0   6  12  97.437   0.421
   1   6  12  9.8567  0.1681
   2   6  12  32.627   0.258
   3   6  12  7.1188  0.1706
   4   6  12  251.42    0.74
   5   6  12  3.8387  0.1560
   6   6  12 -0.1255  0.1442
   7   6  12  4.9587  0.1819
   8   6  12  0.7747  0.1723
   9   6  12  37.404   0.383
  10   6  12  1.7746  0.1864
  11   6  12  37.345   0.411
  12   6  12  7.7344  0.2796
  13   6  12  0.0307  0.2325
  14   6  12  4.6635  0.2684
 -17   7  12  1.2711  0.2592
 -16   7  12  0.1413  0.2493
 -15   7  12  0.5693  0.2160
 -14   7  12  0.6051  0.2149
 -13   7  12  4.6080  0.2251
 -12   7  12  0.6072  0.1829
 -11   7  12  49.199   0.414
 -10   7  12  8.3337  0.2010
  -9   7  12  22.843   0.278
  -8   7  12  0.2531  0.1589
  -7   7  12  17.704   0.260
  -6   7  12  80.365   0.461
  -5   7  12  54.522   0.373
  -4   7  12  21.578   0.248
  -3   7  12  67.607   0.395
  -2   7  12  40.434   0.317
  -1   7  12  4.3432  0.1616
   0   7  12  1.5768  0.1406
   1   7  12  16.237   0.232
   2   7  12  4.2617  0.1729
   3   7  12  43.776   0.359
   4   7  12 -0.0354  0.1618
   5   7  12  37.278   0.367
   6   7  12  10.730   0.241
   7   7  12  9.7239  0.2484
   8   7  12  28.112   0.337
   9   7  12  0.9239  0.2051
  10   7  12  11.788   0.278
  11   7  12  6.4016  0.2583
  12   7  12  0.1720  0.2349
  13   7  12  13.162   0.337
 -16   8  12  0.7700  0.2321
 -15   8  12  19.412   0.372
 -14   8  12  1.7223  0.2373
 -13   8  12 -0.0858  0.2124
 -12   8  12  26.050   0.357
 -11   8  12  5.3288  0.2240
 -10   8  12  1.5895  0.1877
  -9   8  12  38.442   0.392
  -8   8  12  0.1934  0.1723
  -7   8  12  44.248   0.399
  -6   8  12  34.274   0.333
  -5   8  12  7.2866  0.2009
  -4   8  12  91.124   0.509
  -3   8  12  0.2477  0.1647
  -2   8  12  0.1196  0.1572
  -1   8  12  90.014   0.499
   0   8  12  8.5478  0.2133
   1   8  12  74.319   0.455
   2   8  12  14.779   0.256
   3   8  12 -0.0103  0.1692
   4   8  12  10.650   0.247
   5   8  12 -0.0114  0.1869
   6   8  12  22.908   0.354
   7   8  12  35.164   0.421
   8   8  12  3.7314  0.2368
   9   8  12  3.9607  0.2398
  10   8  12  0.4774  0.2156
  11   8  12  3.3041  0.2355
  12   8  12  0.1253  0.2493
 -15   9  12  0.3306  0.2672
 -14   9  12  6.2166  0.3038
 -13   9  12  2.6035  0.2408
 -12   9  12  2.0501  0.2301
 -11   9  12  5.2364  0.2770
 -10   9  12  10.157   0.270
  -9   9  12  54.600   0.455
  -8   9  12  0.5645  0.2070
  -7   9  12  60.554   0.490
  -6   9  12  13.450   0.271
  -5   9  12  42.501   0.371
  -4   9  12  3.8653  0.1889
  -3   9  12  29.703   0.352
  -2   9  12  40.577   0.382
  -1   9  12  0.0964  0.1883
   0   9  12  1.6015  0.1910
   1   9  12  2.4635  0.1838
   2   9  12  6.1723  0.2096
   3   9  12  0.4627  0.1767
   4   9  12  15.164   0.292
   5   9  12  24.832   0.363
   6   9  12  29.798   0.402
   7   9  12  0.2987  0.2270
   8   9  12  18.267   0.356
   9   9  12  9.2065  0.2936
  10   9  12  0.8711  0.2308
  11   9  12  0.7498  0.2356
 -14  10  12  4.1397  0.3072
 -13  10  12  2.2401  0.2599
 -12  10  12  2.8546  0.2609
 -11  10  12  2.7289  0.2543
 -10  10  12  0.0469  0.2282
  -9  10  12 -0.2076  0.2350
  -8  10  12  2.1648  0.2298
  -7  10  12  0.3351  0.2244
  -6  10  12 -0.0704  0.2145
  -5  10  12  0.4753  0.2027
  -4  10  12  4.4136  0.2091
  -3  10  12  0.1553  0.1889
  -2  10  12 -0.0028  0.2045
  -1  10  12  73.042   0.523
   0  10  12  2.7192  0.2138
   1  10  12  6.8454  0.2466
   2  10  12  0.8583  0.1987
   3  10  12  8.9346  0.2703
   4  10  12  10.998   0.292
   5  10  12  0.5174  0.2163
   6  10  12 -0.0138  0.2292
   7  10  12  17.697   0.353
   8  10  12  7.2419  0.2743
   9  10  12 -0.0679  0.2193
  10  10  12 -0.1725  0.2157
 -12  11  12  0.4983  0.2606
 -11  11  12  0.5760  0.2672
 -10  11  12  14.468   0.358
  -9  11  12  0.7052  0.2471
  -8  11  12  0.3620  0.2334
  -7  11  12  0.9568  0.2410
  -6  11  12  1.1974  0.2257
  -5  11  12  0.5945  0.2394
  -4  11  12  42.705   0.483
  -3  11  12  20.489   0.356
  -2  11  12  0.3454  0.2344
  -1  11  12  12.103   0.315
   0  11  12  0.5723  0.2150
   1  11  12  2.1691  0.2455
   2  11  12  6.6887  0.2825
   3  11  12  4.8935  0.2926
   4  11  12  14.109   0.357
   5  11  12  2.3559  0.2326
   6  11  12  1.4177  0.2188
   7  11  12  5.3906  0.2470
   8  11  12  2.9111  0.2267
 -10  12  12  12.891   0.341
  -9  12  12 -0.0939  0.2399
  -8  12  12  1.8407  0.2501
  -7  12  12  0.5005  0.2363
  -6  12  12  0.8845  0.2257
  -5  12  12  3.2070  0.2482
  -4  12  12  5.7076  0.2737
  -3  12  12  6.8341  0.3016
  -2  12  12  12.604   0.329
  -1  12  12  1.4485  0.2219
   0  12  12  0.3858  0.2526
   1  12  12  5.4916  0.3176
   2  12  12  3.3728  0.2788
   3  12  12  9.6172  0.3405
   4  12  12  1.6006  0.2572
   5  12  12 -0.0652  0.2432
   6  12  12  0.4022  0.2287
  -7  13  12 -0.1279  0.2563
  -6  13  12  0.5748  0.2681
  -5  13  12  2.1243  0.2613
  -4  13  12  18.368   0.434
  -3  13  12  0.2400  0.2941
  -2  13  12  2.2178  0.2961
  -1  13  12  1.4678  0.2361
   0  13  12 -0.1966  0.2540
   1  13  12  0.0057  0.2565
   2  13  12  2.6374  0.2694
   3  13  12  1.1988  0.2440
 -20   0  13 -0.1529  0.4592
 -19   0  13  0.2807  0.4367
 -18   0  13  0.6784  0.3519
 -17   0  13  0.6013  0.3189
 -16   0  13 -0.0800  0.2886
 -15   0  13  0.6034  0.2552
 -14   0  13  0.3053  0.2336
 -13   0  13  0.2827  0.1983
 -12   0  13  0.1573  0.2035
 -11   0  13  0.0694  0.1969
 -10   0  13  0.2391  0.1682
  -9   0  13  0.0900  0.1490
  -8   0  13  0.2737  0.1358
  -7   0  13 -0.0524  0.1236
  -6   0  13  0.1714  0.1242
  -5   0  13 -0.0746  0.1301
  -4   0  13 -0.0185  0.1352
  -3   0  13  0.0791  0.1366
  -2   0  13  0.2690  0.1465
   0   0  13  0.0084  0.1397
   1   0  13  0.3438  0.1194
   2   0  13  0.1701  0.1246
   3   0  13  0.1002  0.1097
   4   0  13  0.0325  0.1107
   5   0  13 -0.0157  0.1212
   6   0  13  0.2081  0.1428
   7   0  13 -0.1406  0.1680
   8   0  13  0.0231  0.1895
   9   0  13 -0.2328  0.2032
  10   0  13 -0.1550  0.2074
  11   0  13 -0.1035  0.2378
  12   0  13 -0.0583  0.2654
  13   0  13  0.2301  0.3007
  14   0  13  0.1712  0.2851
  15   0  13 -0.0189  0.3091
 -20   1  13  0.5739  0.3063
 -19   1  13  8.2596  0.3633
 -18   1  13  0.1165  0.2832
 -17   1  13  3.7515  0.2696
 -16   1  13  3.8873  0.2550
 -15   1  13  9.3380  0.2599
 -14   1  13 -0.0301  0.1897
 -13   1  13  0.3136  0.1605
 -12   1  13  98.154   0.476
 -11   1  13  0.5273  0.1256
 -10   1  13  71.631   0.344
  -9   1  13  24.671   0.219
  -8   1  13  5.4665  0.1352
  -7   1  13  28.233   0.203
  -6   1  13  5.9160  0.1148
  -5   1  13  46.654   0.272
  -4   1  13  0.1972  0.1009
  -3   1  13  110.56    0.45
  -2   1  13  112.65    0.45
  -1   1  13  7.0115  0.1546
   0   1  13  32.974   0.243
   1   1  13  7.7760  0.1339
   2   1  13  23.228   0.175
   3   1  13  47.175   0.235
   4   1  13  36.031   0.209
   5   1  13  9.4174  0.1298
   6   1  13  3.6243  0.1194
   7   1  13  14.216   0.188
   8   1  13  1.4903  0.1387
   9   1  13 -0.1108  0.1428
  10   1  13  0.1328  0.1484
  11   1  13  11.787   0.244
  12   1  13  0.2713  0.1852
  13   1  13  0.2951  0.2111
  14   1  13  0.2762  0.2184
  15   1  13  2.1779  0.2328
 -19   2  13 -0.1612  0.2601
 -18   2  13  15.593   0.396
 -17   2  13  0.2283  0.2634
 -16   2  13  0.0904  0.2230
 -15   2  13  1.7094  0.2230
 -14   2  13  0.9629  0.1820
 -13   2  13  52.984   0.421
 -12   2  13  4.7629  0.1883
 -11   2  13  16.641   0.228
 -10   2  13  11.950   0.182
  -9   2  13  21.826   0.216
  -8   2  13  47.654   0.279
  -7   2  13  8.7667  0.1448
  -6   2  13  61.965   0.284
  -5   2  13  1.3438  0.0960
  -4   2  13  12.992   0.160
  -3   2  13  56.335   0.311
  -2   2  13  2.6148  0.1240
  -1   2  13  78.026   0.342
   0   2  13  4.0085  0.1090
   1   2  13  12.964   0.151
   2   2  13  2.4021  0.0988
   3   2  13  5.6492  0.1165
   4   2  13  54.456   0.273
   5   2  13  26.978   0.211
   6   2  13  0.3752  0.1253
   7   2  13  3.7774  0.1436
   8   2  13  0.5217  0.1460
   9   2  13  33.484   0.298
  10   2  13  11.520   0.232
  11   2  13  52.039   0.426
  12   2  13 -0.0299  0.2004
  13   2  13  0.8512  0.2308
  14   2  13  3.2888  0.2651
  15   2  13  10.346   0.306
 -19   3  13  3.8266  0.2874
 -18   3  13 -0.0008  0.2513
 -17   3  13  0.6587  0.2421
 -16   3  13 -0.1920  0.2324
 -15   3  13  12.434   0.290
 -14   3  13 -0.0006  0.1922
 -13   3  13 -0.1513  0.1856
 -12   3  13  65.457   0.423
 -11   3  13  6.3747  0.1721
 -10   3  13  1.6360  0.1357
  -9   3  13  7.3698  0.1606
  -8   3  13  2.6095  0.1208
  -7   3  13  0.3607  0.1014
  -6   3  13  1.2427  0.0961
  -5   3  13  12.013   0.151
  -4   3  13  12.746   0.153
  -3   3  13  0.2347  0.0968
  -2   3  13  3.0688  0.1114
  -1   3  13  29.220   0.223
   0   3  13  3.5956  0.1131
   1   3  13  13.297   0.154
   2   3  13  6.7440  0.1291
   3   3  13  260.18    0.62
   4   3  13  2.7699  0.1131
   5   3  13  18.776   0.202
   6   3  13  94.534   0.426
   7   3  13  8.7953  0.1752
   8   3  13  2.7164  0.1627
   9   3  13  3.9690  0.1816
  10   3  13  52.638   0.413
  11   3  13  33.410   0.374
  12   3  13  7.0726  0.2545
  13   3  13  1.7844  0.2251
  14   3  13  4.0166  0.2536
 -19   4  13  11.201   0.349
 -18   4  13  5.5145  0.2868
 -17   4  13  17.570   0.342
 -16   4  13  14.685   0.356
 -15   4  13 -0.1007  0.1987
 -14   4  13  2.8788  0.2082
 -13   4  13  8.1022  0.2325
 -12   4  13  4.1327  0.1889
 -11   4  13  6.2538  0.1833
 -10   4  13  29.184   0.268
  -9   4  13  24.683   0.242
  -8   4  13  16.724   0.204
  -7   4  13  6.3119  0.1513
  -6   4  13  35.123   0.252
  -5   4  13  0.2086  0.1035
  -4   4  13  0.3769  0.0978
  -3   4  13  58.851   0.300
  -2   4  13  0.0445  0.0949
  -1   4  13  7.0725  0.1318
   0   4  13  67.460   0.310
   1   4  13  90.415   0.376
   2   4  13  9.4506  0.1512
   3   4  13  29.505   0.241
   4   4  13  26.587   0.234
   5   4  13  15.419   0.199
   6   4  13  9.7864  0.1831
   7   4  13  57.950   0.370
   8   4  13  57.386   0.405
   9   4  13  38.091   0.351
  10   4  13  55.182   0.443
  11   4  13  13.411   0.283
  12   4  13  7.5794  0.2640
  13   4  13  14.334   0.312
  14   4  13  5.2577  0.2838
 -18   5  13 -0.1948  0.2522
 -17   5  13  2.9636  0.2423
 -16   5  13  12.507   0.303
 -15   5  13  14.382   0.309
 -14   5  13  4.1621  0.2272
 -13   5  13  0.2369  0.1979
 -12   5  13  40.334   0.357
 -11   5  13  1.3013  0.1698
 -10   5  13  15.562   0.237
  -9   5  13  34.035   0.285
  -8   5  13  74.532   0.393
  -7   5  13  69.406   0.367
  -6   5  13  39.629   0.268
  -5   5  13  63.208   0.345
  -4   5  13  9.2249  0.1538
  -3   5  13  8.1330  0.1490
  -2   5  13  35.715   0.255
  -1   5  13  4.6353  0.1272
   0   5  13  43.076   0.274
   1   5  13  2.1632  0.1169
   2   5  13  0.2918  0.1180
   3   5  13  53.203   0.346
   4   5  13  15.435   0.222
   5   5  13  10.306   0.188
   6   5  13  5.9184  0.1719
   7   5  13  64.584   0.404
   8   5  13  0.4149  0.1641
   9   5  13  2.8837  0.1847
  10   5  13  32.724   0.371
  11   5  13  8.4348  0.2644
  12   5  13  0.5849  0.2188
  13   5  13  1.0901  0.2185
  14   5  13  0.8902  0.2201
 -18   6  13  11.647   0.349
 -17   6  13  0.9386  0.2662
 -16   6  13  13.215   0.314
 -15   6  13  17.982   0.329
 -14   6  13  9.2672  0.2655
 -13   6  13  59.133   0.488
 -12   6  13  3.8825  0.2084
 -11   6  13  39.092   0.348
 -10   6  13  20.513   0.260
  -9   6  13  22.739   0.257
  -8   6  13  13.170   0.209
  -7   6  13  4.6831  0.1724
  -6   6  13  29.496   0.283
  -5   6  13  5.4843  0.1629
  -4   6  13  4.9669  0.1497
  -3   6  13  25.772   0.248
  -2   6  13  147.93    0.54
  -1   6  13  31.023   0.266
   0   6  13  24.644   0.241
   1   6  13  93.396   0.432
   2   6  13  0.2860  0.1341
   3   6  13  19.846   0.241
   4   6  13  41.416   0.352
   5   6  13  15.209   0.248
   6   6  13  21.696   0.268
   7   6  13  2.3227  0.1684
   8   6  13  1.2459  0.1683
   9   6  13  4.7240  0.2165
  10   6  13  2.1114  0.2034
  11   6  13  6.1480  0.2448
  12   6  13  0.7004  0.2246
  13   6  13  22.773   0.398
 -17   7  13  2.3954  0.2583
 -16   7  13  5.8980  0.2713
 -15   7  13  0.9525  0.2160
 -14   7  13 -0.2501  0.1991
 -13   7  13  7.9652  0.2555
 -12   7  13  15.230   0.289
 -11   7  13 -0.0784  0.1740
 -10   7  13  50.746   0.407
  -9   7  13  20.945   0.280
  -8   7  13  25.431   0.296
  -7   7  13  65.586   0.438
  -6   7  13  15.210   0.244
  -5   7  13  111.15    0.54
  -4   7  13  39.166   0.325
  -3   7  13  86.957   0.466
  -2   7  13  40.449   0.339
  -1   7  13  0.9148  0.1526
   0   7  13  51.103   0.370
   1   7  13  37.071   0.329
   2   7  13  6.7956  0.1934
   3   7  13  31.943   0.325
   4   7  13  33.453   0.356
   5   7  13  11.998   0.266
   6   7  13  1.1613  0.2003
   7   7  13  91.772   0.599
   8   7  13 -0.1641  0.2022
   9   7  13  5.6996  0.2436
  10   7  13  9.2052  0.2704
  11   7  13 -0.0583  0.2222
  12   7  13  6.9623  0.3012
 -16   8  13  1.3838  0.2445
 -15   8  13  28.087   0.434
 -14   8  13 -0.1733  0.2211
 -13   8  13  7.8927  0.2777
 -12   8  13  0.8865  0.2194
 -11   8  13  0.1545  0.2076
 -10   8  13  19.298   0.299
  -9   8  13  3.3004  0.2133
  -8   8  13  73.329   0.480
  -7   8  13  16.847   0.284
  -6   8  13  26.262   0.312
  -5   8  13  7.8433  0.2151
  -4   8  13 -0.0018  0.1674
  -3   8  13  73.073   0.486
  -2   8  13  16.312   0.272
  -1   8  13  192.36    0.74
   0   8  13  2.8526  0.1945
   1   8  13  98.607   0.555
   2   8  13  1.0127  0.1730
   3   8  13  11.160   0.255
   4   8  13  25.676   0.344
   5   8  13  3.9526  0.2266
   6   8  13  100.94    0.65
   7   8  13  0.3655  0.2214
   8   8  13  24.307   0.380
   9   8  13  14.328   0.332
  10   8  13  0.1663  0.2217
  11   8  13  10.971   0.317
 -15   9  13  2.0956  0.2602
 -14   9  13  4.9557  0.2902
 -13   9  13  1.3674  0.2625
 -12   9  13  0.6157  0.2377
 -11   9  13  5.8336  0.2656
 -10   9  13  1.9951  0.2166
  -9   9  13  134.39    0.71
  -8   9  13  5.9891  0.2502
  -7   9  13  150.28    0.72
  -6   9  13  2.6283  0.2007
  -5   9  13  16.540   0.271
  -4   9  13  2.9124  0.1974
  -3   9  13  1.5441  0.1993
  -2   9  13  141.60    0.72
  -1   9  13  4.7375  0.2310
   0   9  13  165.12    0.77
   1   9  13  1.1042  0.2080
   2   9  13  16.113   0.291
   3   9  13  9.4834  0.2518
   4   9  13  0.4101  0.1950
   5   9  13  47.849   0.475
   6   9  13 -0.1281  0.2301
   7   9  13  50.227   0.528
   8   9  13 -0.0120  0.2340
   9   9  13  6.6249  0.2748
  10   9  13  0.4147  0.2049
 -14  10  13  2.6857  0.2895
 -13  10  13  1.8537  0.2825
 -12  10  13  4.4831  0.2679
 -11  10  13  7.5373  0.2919
 -10  10  13  3.5010  0.2609
  -9  10  13  5.9179  0.2635
  -8  10  13  34.577   0.420
  -7  10  13  2.8047  0.2303
  -6  10  13  30.355   0.389
  -5  10  13  9.4585  0.2503
  -4  10  13  39.911   0.400
  -3  10  13  20.589   0.319
  -2  10  13  8.1777  0.2863
  -1  10  13  82.356   0.575
   0  10  13  5.3280  0.2333
   1  10  13  58.646   0.528
   2  10  13  5.2191  0.2438
   3  10  13  57.387   0.537
   4  10  13  6.3298  0.2727
   5  10  13  7.6227  0.2652
   6  10  13  25.859   0.392
   7  10  13  0.4665  0.2326
   8  10  13  36.724   0.439
   9  10  13  1.7729  0.2289
 -12  11  13  19.344   0.386
 -11  11  13  4.2171  0.2838
 -10  11  13  22.205   0.420
  -9  11  13  14.441   0.335
  -8  11  13  2.6959  0.2426
  -7  11  13  47.929   0.497
  -6  11  13  0.1682  0.2178
  -5  11  13  48.069   0.531
  -4  11  13  1.0443  0.2375
  -3  11  13  24.628   0.399
  -2  11  13  21.544   0.387
  -1  11  13  11.188   0.304
   0  11  13  21.477   0.387
   1  11  13  7.3682  0.2946
   2  11  13  37.517   0.504
   3  11  13  12.631   0.356
   4  11  13  3.8533  0.2624
   5  11  13  27.406   0.418
   6  11  13  2.5232  0.2371
   7  11  13  1.1439  0.2194
 -10  12  13  0.5870  0.2512
  -9  12  13  1.4379  0.2439
  -8  12  13  4.6006  0.2563
  -7  12  13  1.1077  0.2266
  -6  12  13  4.4640  0.2740
  -5  12  13  28.593   0.419
  -4  12  13  24.572   0.421
  -3  12  13  13.580   0.351
  -2  12  13  2.2509  0.2306
  -1  12  13  18.826   0.358
   0  12  13  2.9926  0.2824
   1  12  13  4.1306  0.3056
   2  12  13  14.770   0.407
   3  12  13  28.954   0.476
   4  12  13  16.454   0.409
   5  12  13  9.3334  0.3331
  -6  13  13  3.9102  0.2780
  -5  13  13  38.519   0.539
  -4  13  13  13.481   0.381
  -3  13  13  11.875   0.385
  -2  13  13  2.6726  0.2855
  -1  13  13  0.7470  0.2436
   0  13  13  0.0515  0.2248
   1  13  13  38.977   0.518
 -19   0  14  1.6323  0.5624
 -18   0  14  16.937   0.611
 -17   0  14  15.459   0.594
 -16   0  14  24.766   0.560
 -15   0  14  28.554   0.587
 -14   0  14  103.96    0.91
 -13   0  14  107.61    0.76
 -12   0  14  228.85    1.08
 -11   0  14  114.09    0.69
 -10   0  14  22.849   0.337
  -9   0  14  228.54    0.90
  -8   0  14  124.68    0.70
  -7   0  14  137.45    0.63
  -6   0  14  37.478   0.324
  -5   0  14  61.867   0.406
  -4   0  14  26.353   0.283
  -3   0  14  4.1154  0.1490
  -2   0  14  80.655   0.456
  -1   0  14  0.3026  0.1186
   0   0  14  1.0766  0.1151
   1   0  14  273.31    0.77
   2   0  14  83.009   0.412
   3   0  14  5.2321  0.1379
   4   0  14  7.0064  0.1620
   5   0  14  66.913   0.417
   6   0  14  65.931   0.452
   7   0  14  12.166   0.270
   8   0  14  43.865   0.453
   9   0  14  1.6702  0.2144
  10   0  14  5.1356  0.2608
  11   0  14  53.641   0.605
  12   0  14  44.663   0.590
  13   0  14  18.652   0.459
  14   0  14  12.685   0.414
 -19   1  14  12.109   0.384
 -18   1  14  1.8116  0.2861
 -17   1  14  53.763   0.518
 -16   1  14  6.6937  0.2732
 -15   1  14  53.899   0.464
 -14   1  14  13.445   0.259
 -13   1  14  7.5374  0.2105
 -12   1  14  8.8106  0.2105
 -11   1  14  36.417   0.302
 -10   1  14  6.0795  0.1553
  -9   1  14  39.708   0.275
  -8   1  14  399.66    0.88
  -7   1  14  6.7790  0.1333
  -6   1  14  94.444   0.348
  -5   1  14  125.74    0.39
  -4   1  14  40.236   0.237
  -3   1  14  392.32    0.74
  -2   1  14  2.4586  0.1074
  -1   1  14  233.80    0.54
   0   1  14  58.357   0.274
   1   1  14  13.949   0.154
   2   1  14  57.748   0.262
   3   1  14  13.416   0.146
   4   1  14  14.972   0.158
   5   1  14  43.708   0.259
   6   1  14  8.7786  0.1520
   7   1  14  228.31    0.65
   8   1  14  5.1102  0.1580
   9   1  14  17.354   0.239
  10   1  14  66.441   0.451
  11   1  14  44.914   0.415
  12   1  14  8.3169  0.2370
  13   1  14  8.5590  0.2649
  14   1  14  20.626   0.349
 -19   2  14  2.3436  0.2885
 -18   2  14  24.453   0.422
 -17   2  14  1.1294  0.2406
 -16   2  14  31.065   0.434
 -15   2  14  15.370   0.309
 -14   2  14  28.345   0.344
 -13   2  14  69.687   0.469
 -12   2  14  5.6549  0.1894
 -11   2  14  142.75    0.58
 -10   2  14  20.969   0.230
  -9   2  14  306.45    0.74
  -8   2  14  47.630   0.284
  -7   2  14  106.50    0.39
  -6   2  14  10.896   0.140
  -5   2  14  28.597   0.204
  -4   2  14  43.751   0.249
  -3   2  14  155.66    0.47
  -2   2  14  273.62    0.61
  -1   2  14  20.384   0.186
   0   2  14  0.0026  0.0921
   1   2  14  234.54    0.56
   2   2  14  2.0721  0.1038
   3   2  14  84.502   0.348
   4   2  14  30.844   0.226
   5   2  14  129.87    0.44
   6   2  14  95.940   0.417
   7   2  14  36.190   0.299
   8   2  14  110.53    0.51
   9   2  14  0.1873  0.1466
  10   2  14  14.618   0.268
  11   2  14  54.685   0.468
  12   2  14  31.817   0.388
  13   2  14  45.183   0.485
  14   2  14  2.8351  0.2464
 -19   3  14  35.175   0.494
 -18   3  14  0.5550  0.2431
 -17   3  14  22.534   0.396
 -16   3  14  5.1724  0.2644
 -15   3  14  0.3201  0.2078
 -14   3  14  6.1636  0.2324
 -13   3  14  2.4193  0.2094
 -12   3  14  52.055   0.377
 -11   3  14  9.7358  0.2056
 -10   3  14  10.881   0.194
  -9   3  14  68.691   0.385
  -8   3  14  99.246   0.425
  -7   3  14  66.189   0.326
  -6   3  14  31.594   0.222
  -5   3  14  143.48    0.45
  -4   3  14  0.0981  0.0936
  -3   3  14  235.50    0.54
  -2   3  14  27.668   0.207
  -1   3  14  192.16    0.51
   0   3  14  111.33    0.39
   1   3  14  48.399   0.272
   2   3  14  163.04    0.49
   3   3  14  10.795   0.162
   4   3  14  21.027   0.204
   5   3  14  240.34    0.67
   6   3  14  3.3051  0.1500
   7   3  14  215.12    0.71
   8   3  14  28.872   0.310
   9   3  14  3.6551  0.1868
  10   3  14  12.476   0.272
  11   3  14  21.335   0.325
  12   3  14  21.062   0.342
  13   3  14  13.518   0.304
  14   3  14  16.605   0.341
 -18   4  14  14.275   0.345
 -17   4  14  10.442   0.299
 -16   4  14  7.7684  0.3074
 -15   4  14  3.0776  0.2226
 -14   4  14  19.204   0.332
 -13   4  14  76.675   0.542
 -12   4  14  28.293   0.309
 -11   4  14  49.356   0.359
 -10   4  14  0.4494  0.1366
  -9   4  14  35.072   0.286
  -8   4  14  3.2440  0.1404
  -7   4  14  90.911   0.409
  -6   4  14  22.757   0.221
  -5   4  14  0.0103  0.1086
  -4   4  14  158.72    0.47
  -3   4  14  44.601   0.261
  -2   4  14  48.059   0.273
  -1   4  14  14.745   0.163
   0   4  14  7.0079  0.1357
   1   4  14  126.18    0.45
   2   4  14  15.541   0.189
   3   4  14  137.68    0.49
   4   4  14  19.837   0.224
   5   4  14  26.730   0.258
   6   4  14  3.4616  0.1582
   7   4  14  29.353   0.288
   8   4  14  23.535   0.292
   9   4  14  3.2475  0.1865
  10   4  14  36.065   0.384
  11   4  14  20.899   0.331
  12   4  14  5.7723  0.2363
  13   4  14  8.2623  0.2805
 -18   5  14  0.5174  0.2396
 -17   5  14  2.5902  0.2358
 -16   5  14  8.0326  0.2888
 -15   5  14  0.4435  0.2178
 -14   5  14  1.1556  0.2126
 -13   5  14  46.400   0.414
 -12   5  14  7.3246  0.2206
 -11   5  14  8.7336  0.2144
 -10   5  14 -0.0685  0.1485
  -9   5  14  9.7235  0.1935
  -8   5  14  3.2879  0.1456
  -7   5  14  33.790   0.263
  -6   5  14  22.140   0.230
  -5   5  14  159.04    0.55
  -4   5  14  0.6839  0.1237
  -3   5  14  254.31    0.65
  -2   5  14  38.366   0.262
  -1   5  14  14.181   0.183
   0   5  14  10.312   0.167
   1   5  14  2.0948  0.1290
   2   5  14  366.10    0.86
   3   5  14  8.3554  0.1861
   4   5  14  89.924   0.469
   5   5  14  2.2309  0.1570
   6   5  14  14.616   0.231
   7   5  14  8.9006  0.2034
   8   5  14  4.1536  0.1951
   9   5  14  25.120   0.325
  10   5  14 -0.3528  0.1961
  11   5  14  28.464   0.386
  12   5  14  1.8024  0.2266
  13   5  14  0.1448  0.1926
 -17   6  14  3.8790  0.2735
 -16   6  14  2.2834  0.2266
 -15   6  14  1.1491  0.2161
 -14   6  14  0.2793  0.2113
 -13   6  14  76.487   0.545
 -12   6  14  35.419   0.365
 -11   6  14  21.860   0.283
 -10   6  14  0.0686  0.1576
  -9   6  14  3.2657  0.1647
  -8   6  14  59.725   0.396
  -7   6  14  10.569   0.221
  -6   6  14  76.710   0.420
  -5   6  14  0.6651  0.1463
  -4   6  14  114.74    0.48
  -3   6  14  8.5365  0.1704
  -2   6  14  1.5771  0.1321
  -1   6  14  56.770   0.353
   0   6  14  0.6110  0.1350
   1   6  14  176.04    0.63
   2   6  14  13.725   0.222
   3   6  14  237.74    0.76
   4   6  14  20.978   0.261
   5   6  14  3.4782  0.1777
   6   6  14  15.945   0.262
   7   6  14  27.652   0.310
   8   6  14  5.5731  0.2183
   9   6  14  2.0614  0.2065
  10   6  14  37.593   0.399
  11   6  14  8.3990  0.2613
  12   6  14  11.794   0.323
 -17   7  14  8.0067  0.3053
 -16   7  14  2.2192  0.2475
 -15   7  14  5.1119  0.2441
 -14   7  14  9.2621  0.2684
 -13   7  14  0.5082  0.2089
 -12   7  14 -0.0100  0.1878
 -11   7  14  12.790   0.264
 -10   7  14  0.2524  0.1811
  -9   7  14  12.079   0.251
  -8   7  14 -0.0488  0.1699
  -7   7  14  32.508   0.344
  -6   7  14  13.347   0.242
  -5   7  14  68.672   0.439
  -4   7  14  39.136   0.336
  -3   7  14  221.87    0.72
  -2   7  14  13.565   0.235
  -1   7  14  15.964   0.249
   0   7  14  52.737   0.398
   1   7  14 -0.2042  0.1702
   2   7  14  121.42    0.59
   3   7  14 -0.0370  0.1714
   4   7  14  17.976   0.295
   5   7  14  32.202   0.381
   6   7  14  6.5790  0.2412
   7   7  14  29.143   0.400
   8   7  14  4.6174  0.2382
   9   7  14  32.590   0.415
  10   7  14  0.1608  0.2120
  11   7  14  6.2057  0.2774
 -16   8  14  2.8313  0.2648
 -15   8  14  7.7160  0.3055
 -14   8  14 -0.1441  0.2209
 -13   8  14  4.1061  0.2493
 -12   8  14  1.2543  0.2323
 -11   8  14  29.747   0.409
 -10   8  14  12.193   0.283
  -9   8  14  52.784   0.449
  -8   8  14  8.7805  0.2485
  -7   8  14  11.415   0.256
  -6   8  14  12.623   0.250
  -5   8  14  86.306   0.530
  -4   8  14  19.579   0.293
  -3   8  14  14.612   0.271
  -2   8  14  19.272   0.283
  -1   8  14  1.0847  0.1833
   0   8  14  16.355   0.279
   1   8  14  7.0201  0.2304
   2   8  14  2.6938  0.2008
   3   8  14  92.191   0.598
   4   8  14  1.1350  0.2185
   5   8  14  0.9508  0.2193
   6   8  14  30.096   0.405
   7   8  14  20.366   0.365
   8   8  14  0.2231  0.2221
   9   8  14 -0.0506  0.2183
  10   8  14  0.5559  0.2130
 -14   9  14  1.5954  0.2556
 -13   9  14  0.5405  0.2426
 -12   9  14  3.8746  0.2700
 -11   9  14  0.5307  0.2336
 -10   9  14  0.0690  0.1945
  -9   9  14  3.3442  0.2379
  -8   9  14  3.3967  0.2272
  -7   9  14  0.6668  0.2008
  -6   9  14  30.491   0.342
  -5   9  14  1.2334  0.1891
  -4   9  14  0.6803  0.1857
  -3   9  14  51.607   0.447
  -2   9  14  0.3980  0.2145
  -1   9  14  12.876   0.278
   0   9  14  3.7868  0.2209
   1   9  14  0.7816  0.2077
   2   9  14  0.7619  0.2209
   3   9  14  1.6760  0.2148
   4   9  14  20.163   0.366
   5   9  14  10.626   0.313
   6   9  14  7.0521  0.2740
   7   9  14  3.8964  0.2693
   8   9  14  7.6008  0.2783
   9   9  14 -0.1701  0.2205
 -13  10  14  4.3863  0.2902
 -12  10  14  15.624   0.384
 -11  10  14 -0.4579  0.2433
 -10  10  14 -0.0184  0.2316
  -9  10  14  6.9120  0.2802
  -8  10  14  7.4045  0.2724
  -7  10  14  15.934   0.309
  -6  10  14  10.217   0.263
  -5  10  14  1.1458  0.2013
  -4  10  14  2.1504  0.2031
  -3  10  14  2.5151  0.2058
  -2  10  14  0.1877  0.2094
  -1  10  14  0.5779  0.2064
   0  10  14  0.3478  0.2034
   1  10  14  0.0130  0.2269
   2  10  14  0.4197  0.2354
   3  10  14  2.0025  0.2494
   4  10  14  10.020   0.313
   5  10  14  0.5597  0.2395
   6  10  14  9.9996  0.3129
   7  10  14  11.347   0.306
   8  10  14  0.4725  0.2297
 -11  11  14  0.1827  0.2424
 -10  11  14 -0.0648  0.2431
  -9  11  14  4.0743  0.2568
  -8  11  14  2.3473  0.2425
  -7  11  14  1.6750  0.2315
  -6  11  14  0.0141  0.2282
  -5  11  14  5.7134  0.2750
  -4  11  14  3.5082  0.2352
  -3  11  14  14.811   0.326
  -2  11  14  8.2968  0.2802
  -1  11  14  1.0449  0.2165
   0  11  14 -0.1255  0.2392
   1  11  14  9.1392  0.3160
   2  11  14  4.9301  0.2740
   3  11  14  0.3337  0.2497
   4  11  14  0.3082  0.2524
   5  11  14  2.2357  0.2524
   6  11  14 -0.3113  0.2358
  -9  12  14  1.0790  0.2439
  -8  12  14  1.8397  0.2292
  -7  12  14  8.8329  0.2929
  -6  12  14  2.6083  0.2463
  -5  12  14  0.3365  0.2183
  -4  12  14  1.9030  0.2508
  -3  12  14  0.5791  0.2412
  -2  12  14  0.3548  0.2211
  -1  12  14  1.8886  0.2412
   0  12  14  3.4111  0.2663
   1  12  14 -0.1855  0.2762
   2  12  14  0.9593  0.2761
   3  12  14  2.9019  0.3033
 -19   0  15 -0.2958  0.4797
 -18   0  15 -0.0378  0.3899
 -17   0  15 -0.5063  0.4012
 -16   0  15 -0.4976  0.3837
 -15   0  15 -0.3248  0.3480
 -14   0  15 -0.2622  0.2697
 -13   0  15  0.4588  0.2606
 -12   0  15  0.2562  0.2494
 -11   0  15  0.1245  0.2016
 -10   0  15  0.6583  0.2179
  -9   0  15  0.8002  0.2073
  -8   0  15  0.4251  0.1977
  -7   0  15  0.3295  0.1466
  -6   0  15 -0.0309  0.1371
  -5   0  15 -0.0469  0.1329
  -4   0  15 -0.0989  0.1270
  -3   0  15  0.2543  0.1233
  -2   0  15  0.2196  0.1317
  -1   0  15  0.0113  0.1239
   0   0  15  0.3782  0.1292
   1   0  15  0.1503  0.1263
   2   0  15  0.0906  0.1104
   3   0  15  0.0506  0.1137
   4   0  15 -0.1866  0.1280
   5   0  15  0.0736  0.1481
   6   0  15 -0.1905  0.1787
   7   0  15 -0.1815  0.1898
   8   0  15 -0.1327  0.1882
   9   0  15  0.1129  0.2160
  10   0  15 -0.0638  0.2273
  11   0  15 -0.2161  0.2602
  12   0  15 -0.2507  0.2602
  13   0  15 -0.1433  0.3059
 -19   1  15  1.0104  0.3106
 -18   1  15  1.0141  0.2927
 -17   1  15  0.3316  0.2462
 -16   1  15  1.9357  0.2524
 -15   1  15  3.6365  0.2456
 -14   1  15  11.779   0.273
 -13   1  15  15.509   0.277
 -12   1  15  19.489   0.280
 -11   1  15  0.2753  0.1565
 -10   1  15  1.8086  0.1448
  -9   1  15  9.7376  0.1888
  -8   1  15  27.808   0.239
  -7   1  15  12.492   0.161
  -6   1  15  15.953   0.178
  -5   1  15  18.399   0.180
  -4   1  15  0.3217  0.0975
  -3   1  15  44.336   0.247
  -2   1  15  7.7461  0.1329
  -1   1  15  3.1951  0.1106
   0   1  15  32.357   0.215
   1   1  15  3.6575  0.1074
   2   1  15  3.7098  0.1039
   3   1  15  8.7273  0.1324
   4   1  15  3.8965  0.1151
   5   1  15  9.1054  0.1490
   6   1  15  19.004   0.214
   7   1  15  5.6196  0.1631
   8   1  15  12.921   0.212
   9   1  15  3.7410  0.1778
  10   1  15 -0.3914  0.1754
  11   1  15 -0.0135  0.1828
  12   1  15  0.1626  0.1955
  13   1  15  11.502   0.288
 -19   2  15  0.1820  0.2667
 -18   2  15  2.2213  0.2583
 -17   2  15  1.2284  0.2447
 -16   2  15  0.2096  0.2378
 -15   2  15  0.2934  0.2036
 -14   2  15  21.400   0.319
 -13   2  15  2.6022  0.1945
 -12   2  15  7.1221  0.2047
 -11   2  15  15.599   0.243
 -10   2  15  3.0045  0.1571
  -9   2  15  8.3747  0.1799
  -8   2  15  0.5296  0.1246
  -7   2  15  36.271   0.239
  -6   2  15  4.0832  0.1203
  -5   2  15  175.99    0.48
  -4   2  15  0.2492  0.0934
  -3   2  15  22.607   0.194
  -2   2  15  20.007   0.186
  -1   2  15  19.490   0.181
   0   2  15  4.7006  0.1183
   1   2  15  27.501   0.212
   2   2  15  56.931   0.306
   3   2  15  16.641   0.187
   4   2  15  0.7808  0.1149
   5   2  15  41.180   0.285
   6   2  15  3.2587  0.1529
   7   2  15  15.184   0.232
   8   2  15  20.472   0.259
   9   2  15  51.802   0.399
  10   2  15  1.3785  0.1947
  11   2  15  0.0457  0.2040
  12   2  15  0.4519  0.2101
  13   2  15  8.8603  0.2777
 -18   3  15  0.3334  0.2549
 -17   3  15  1.4934  0.2588
 -16   3  15  2.0959  0.2380
 -15   3  15  0.7402  0.2080
 -14   3  15  4.8201  0.2335
 -13   3  15  30.694   0.361
 -12   3  15  41.872   0.345
 -11   3  15  45.911   0.359
 -10   3  15  11.692   0.206
  -9   3  15  1.5102  0.1412
  -8   3  15  29.782   0.264
  -7   3  15  0.8551  0.1154
  -6   3  15  37.189   0.247
  -5   3  15  98.093   0.391
  -4   3  15  113.76    0.39
  -3   3  15  0.1207  0.0973
  -2   3  15  0.0933  0.0929
  -1   3  15  6.4974  0.1307
   0   3  15  22.783   0.203
   1   3  15  35.120   0.255
   2   3  15  34.644   0.255
   3   3  15  81.453   0.379
   4   3  15  12.139   0.195
   5   3  15  15.343   0.213
   6   3  15  1.1661  0.1550
   7   3  15  14.116   0.225
   8   3  15  0.8277  0.1569
   9   3  15  17.207   0.267
  10   3  15  2.6090  0.2006
  11   3  15  12.342   0.292
  12   3  15  0.2449  0.2105
  13   3  15  0.0576  0.2169
 -18   4  15  3.2392  0.2683
 -17   4  15  0.8990  0.2398
 -16   4  15  0.3076  0.2235
 -15   4  15  15.874   0.309
 -14   4  15  38.543   0.405
 -13   4  15  10.819   0.263
 -12   4  15  26.984   0.310
 -11   4  15  72.032   0.447
 -10   4  15  21.523   0.256
  -9   4  15  29.158   0.278
  -8   4  15  0.1641  0.1346
  -7   4  15  90.256   0.400
  -6   4  15  0.7575  0.1253
  -5   4  15  49.151   0.298
  -4   4  15  83.651   0.356
  -3   4  15  9.7389  0.1551
  -2   4  15  50.963   0.292
  -1   4  15  15.546   0.176
   0   4  15  0.8356  0.1096
   1   4  15  4.6150  0.1421
   2   4  15  7.1489  0.1608
   3   4  15  34.263   0.277
   4   4  15  10.463   0.180
   5   4  15  73.989   0.401
   6   4  15  12.192   0.207
   7   4  15  0.9566  0.1432
   8   4  15  5.4991  0.1909
   9   4  15  11.064   0.233
  10   4  15  11.935   0.260
  11   4  15  2.7345  0.2146
  12   4  15  31.952   0.405
  13   4  15  0.0066  0.2030
 -18   5  15  5.9293  0.2925
 -17   5  15  6.8588  0.2735
 -16   5  15  4.5078  0.2569
 -15   5  15  4.8732  0.2530
 -14   5  15  1.2649  0.2296
 -13   5  15  9.9394  0.2653
 -12   5  15  22.138   0.291
 -11   5  15  25.410   0.299
 -10   5  15  0.6783  0.1463
  -9   5  15  3.9703  0.1635
  -8   5  15  3.4314  0.1494
  -7   5  15  7.6965  0.1723
  -6   5  15  5.7675  0.1596
  -5   5  15  51.704   0.339
  -4   5  15  129.20    0.48
  -3   5  15  8.1180  0.1566
  -2   5  15  3.7110  0.1371
  -1   5  15  39.135   0.278
   0   5  15  1.7820  0.1336
   1   5  15  3.3320  0.1576
   2   5  15  25.076   0.271
   3   5  15  17.475   0.235
   4   5  15 -0.1344  0.1412
   5   5  15  3.8907  0.1785
   6   5  15  6.0494  0.1930
   7   5  15  3.4641  0.1764
   8   5  15  4.5908  0.2062
   9   5  15  13.377   0.271
  10   5  15  0.3072  0.1922
  11   5  15  13.776   0.276
  12   5  15  6.0838  0.2371
 -17   6  15  5.7721  0.2674
 -16   6  15  0.2636  0.2261
 -15   6  15  1.7351  0.2146
 -14   6  15  10.890   0.284
 -13   6  15  8.5355  0.2597
 -12   6  15  12.676   0.260
 -11   6  15  13.903   0.250
 -10   6  15  38.091   0.342
  -9   6  15  41.242   0.348
  -8   6  15  0.5113  0.1644
  -7   6  15  65.534   0.419
  -6   6  15  2.4971  0.1542
  -5   6  15  7.3964  0.1864
  -4   6  15  0.9436  0.1390
  -3   6  15  0.9612  0.1389
  -2   6  15  0.9121  0.1381
  -1   6  15  0.3813  0.1363
   0   6  15  8.6551  0.1928
   1   6  15  16.679   0.245
   2   6  15  31.336   0.305
   3   6  15  0.9696  0.1469
   4   6  15  1.8607  0.1617
   5   6  15  25.621   0.301
   6   6  15  1.8000  0.1806
   7   6  15  0.6711  0.1749
   8   6  15  23.535   0.335
   9   6  15  4.2596  0.2301
  10   6  15  0.8219  0.1975
  11   6  15  2.0881  0.2242
 -16   7  15  1.0029  0.2244
 -15   7  15  33.340   0.403
 -14   7  15  0.1046  0.2183
 -13   7  15  4.0239  0.2298
 -12   7  15  2.5609  0.2140
 -11   7  15  4.0975  0.2047
 -10   7  15  4.4901  0.2142
  -9   7  15  5.7147  0.2169
  -8   7  15  67.961   0.462
  -7   7  15  4.3028  0.2054
  -6   7  15  8.7668  0.2171
  -5   7  15  1.4506  0.1737
  -4   7  15  4.8638  0.1851
  -3   7  15  61.743   0.405
  -2   7  15  2.0128  0.1782
  -1   7  15  234.38    0.79
   0   7  15  1.5155  0.1753
   1   7  15  26.990   0.322
   2   7  15  16.182   0.277
   3   7  15  0.6253  0.1800
   4   7  15  19.553   0.311
   5   7  15  0.5145  0.1988
   6   7  15  48.242   0.459
   7   7  15  1.1237  0.2108
   8   7  15  9.1738  0.2723
   9   7  15  19.279   0.359
  10   7  15  0.0824  0.2034
  11   7  15  24.146   0.371
 -15   8  15  1.0090  0.2315
 -14   8  15  5.8096  0.2658
 -13   8  15  1.0880  0.2378
 -12   8  15  1.4127  0.2389
 -11   8  15  37.299   0.436
 -10   8  15  10.586   0.294
  -9   8  15  89.786   0.543
  -8   8  15  0.6845  0.2069
  -7   8  15  44.140   0.408
  -6   8  15  22.016   0.304
  -5   8  15  1.0707  0.1891
  -4   8  15  54.903   0.428
  -3   8  15  0.0990  0.1843
  -2   8  15  89.751   0.537
  -1   8  15  10.063   0.248
   0   8  15  49.096   0.430
   1   8  15  52.278   0.465
   2   8  15  7.9387  0.2604
   3   8  15  39.352   0.417
   4   8  15  0.9947  0.2285
   5   8  15  102.62    0.67
   6   8  15  0.5799  0.2213
   7   8  15  59.684   0.522
   8   8  15  7.9517  0.2754
   9   8  15  6.3982  0.2576
  10   8  15  4.7321  0.2401
 -14   9  15  1.0447  0.2481
 -13   9  15  0.8296  0.2429
 -12   9  15  1.0417  0.2426
 -11   9  15  5.5283  0.2660
 -10   9  15  11.072   0.296
  -9   9  15  6.7277  0.2623
  -8   9  15  5.3572  0.2365
  -7   9  15  11.932   0.274
  -6   9  15  0.2784  0.1874
  -5   9  15  41.666   0.409
  -4   9  15  0.7170  0.1953
  -3   9  15  75.542   0.550
  -2   9  15  9.5427  0.2830
  -1   9  15  82.094   0.572
   0   9  15  3.6209  0.2357
   1   9  15  37.329   0.429
   2   9  15  23.421   0.378
   3   9  15  2.5046  0.2372
   4   9  15  71.161   0.587
   5   9  15  0.1915  0.2335
   6   9  15  67.450   0.579
   7   9  15  5.5918  0.2676
   8   9  15  7.9709  0.2896
 -12  10  15  6.1056  0.2936
 -11  10  15  0.9538  0.2686
 -10  10  15  1.4944  0.2348
  -9  10  15  22.207   0.356
  -8  10  15  4.2537  0.2346
  -7  10  15  15.331   0.316
  -6  10  15  0.1767  0.1885
  -5  10  15  0.5917  0.1968
  -4  10  15  21.406   0.320
  -3  10  15 -0.1417  0.2081
  -2  10  15  53.892   0.501
  -1  10  15  3.3554  0.2418
   0  10  15  8.7777  0.2792
   1  10  15  6.9659  0.2714
   2  10  15  11.708   0.323
   3  10  15  26.111   0.434
   4  10  15 -0.1577  0.2411
   5  10  15  38.094   0.475
   6  10  15  2.3246  0.2597
   7  10  15  22.575   0.379
 -10  11  15  1.1124  0.2364
  -9  11  15  0.2842  0.2138
  -8  11  15  1.3203  0.2335
  -7  11  15  6.5445  0.2672
  -6  11  15  6.1229  0.2746
  -5  11  15  2.5038  0.2305
  -4  11  15 -0.0811  0.2179
  -3  11  15  15.732   0.306
  -2  11  15  2.8157  0.2250
  -1  11  15  8.7515  0.2725
   0  11  15  4.9435  0.2745
   1  11  15  45.015   0.532
   2  11  15  2.5209  0.2650
   3  11  15  7.6729  0.3133
   4  11  15  20.695   0.400
   5  11  15  0.2021  0.2418
  -7  12  15  27.583   0.397
  -6  12  15  8.8096  0.2951
  -5  12  15  32.908   0.434
  -4  12  15  5.1998  0.2686
  -3  12  15 -0.2090  0.2241
  -2  12  15  0.8465  0.2191
  -1  12  15  27.598   0.425
   0  12  15  13.816   0.378
   1  12  15  21.438   0.410
   2  12  15  14.726   0.380
 -19   0  16  2.3286  0.4948
 -18   0  16  1.9213  0.4043
 -17   0  16  15.563   0.571
 -16   0  16  3.1420  0.3943
 -15   0  16  19.346   0.562
 -14   0  16  4.3802  0.3053
 -13   0  16  9.8393  0.3720
 -12   0  16  25.288   0.496
 -11   0  16  66.669   0.579
 -10   0  16  287.47    1.21
  -9   0  16  48.574   0.494
  -8   0  16  157.15    0.77
  -7   0  16  128.00    0.62
  -6   0  16 -0.0299  0.1492
  -5   0  16  81.769   0.496
  -4   0  16  62.133   0.440
  -3   0  16  291.21    0.93
  -2   0  16  17.987   0.255
  -1   0  16  62.314   0.443
   0   0  16  76.809   0.466
   1   0  16  13.233   0.226
   2   0  16  2.4106  0.1467
   3   0  16  26.717   0.295
   4   0  16  4.2943  0.1700
   5   0  16  103.97    0.58
   6   0  16  9.9361  0.2562
   7   0  16  24.363   0.388
   8   0  16  76.527   0.617
   9   0  16  10.031   0.317
  10   0  16  7.6849  0.3070
  11   0  16 -0.1174  0.2665
  12   0  16  4.0150  0.3254
  13   0  16  0.0997  0.3426
 -18   1  16  6.7499  0.3297
 -17   1  16  4.7279  0.3069
 -16   1  16  34.309   0.526
 -15   1  16  49.203   0.534
 -14   1  16  3.3901  0.2366
 -13   1  16  61.037   0.516
 -12   1  16  8.9139  0.2438
 -11   1  16  65.384   0.438
 -10   1  16  73.178   0.431
  -9   1  16  143.29    0.59
  -8   1  16  33.605   0.282
  -7   1  16  8.7724  0.1592
  -6   1  16  20.367   0.209
  -5   1  16  1.6535  0.1121
  -4   1  16  105.27    0.40
  -3   1  16  0.6279  0.1114
  -2   1  16  45.255   0.264
  -1   1  16  339.61    0.69
   0   1  16  95.015   0.370
   1   1  16  62.517   0.304
   2   1  16  1.1939  0.1014
   3   1  16  28.746   0.224
   4   1  16  11.315   0.169
   5   1  16  38.847   0.268
   6   1  16  87.457   0.412
   7   1  16  42.119   0.328
   8   1  16  0.1852  0.1495
   9   1  16  49.181   0.394
  10   1  16  12.132   0.255
  11   1  16  18.863   0.319
  12   1  16  0.1341  0.2101
  13   1  16  38.238   0.475
 -18   2  16  0.7789  0.2500
 -17   2  16  4.4576  0.2754
 -16   2  16  7.8116  0.2897
 -15   2  16  2.1698  0.2156
 -14   2  16  44.501   0.443
 -13   2  16  11.783   0.262
 -12   2  16  18.121   0.271
 -11   2  16  10.628   0.226
 -10   2  16  135.45    0.56
  -9   2  16  30.204   0.275
  -8   2  16  28.318   0.252
  -7   2  16  289.56    0.66
  -6   2  16  3.7483  0.1291
  -5   2  16  395.30    0.74
  -4   2  16  2.4756  0.1175
  -3   2  16  332.42    0.65
  -2   2  16  37.655   0.241
  -1   2  16  36.011   0.239
   0   2  16  227.70    0.56
   1   2  16  10.444   0.160
   2   2  16  28.176   0.238
   3   2  16  36.383   0.281
   4   2  16  26.950   0.246
   5   2  16  108.80    0.48
   6   2  16  58.013   0.376
   7   2  16  15.587   0.235
   8   2  16  7.8534  0.2062
   9   2  16  23.589   0.316
  10   2  16  11.915   0.274
  11   2  16  18.903   0.330
  12   2  16  15.425   0.312
 -18   3  16  2.4405  0.2615
 -17   3  16  8.1184  0.2869
 -16   3  16  5.7815  0.2581
 -15   3  16  49.158   0.461
 -14   3  16  14.918   0.302
 -13   3  16  64.563   0.481
 -12   3  16  0.1675  0.1686
 -11   3  16  92.260   0.500
 -10   3  16  24.358   0.272
  -9   3  16  115.81    0.52
  -8   3  16  7.8294  0.1768
  -7   3  16  1.2907  0.1331
  -6   3  16  74.863   0.350
  -5   3  16  50.495   0.295
  -4   3  16  165.32    0.50
  -3   3  16  0.2788  0.1056
  -2   3  16  8.8727  0.1457
  -1   3  16  40.708   0.259
   0   3  16  6.2628  0.1459
   1   3  16  124.95    0.47
   2   3  16  4.2890  0.1503
   3   3  16  260.21    0.71
   4   3  16  24.003   0.239
   5   3  16  106.64    0.48
   6   3  16  28.701   0.296
   7   3  16  1.1538  0.1569
   8   3  16  10.803   0.232
   9   3  16  51.035   0.418
  10   3  16  50.606   0.455
  11   3  16  7.5255  0.2572
  12   3  16  2.8325  0.2101
 -18   4  16  6.7976  0.2831
 -17   4  16  0.5626  0.2380
 -16   4  16 -0.1582  0.2184
 -15   4  16  14.839   0.318
 -14   4  16  6.9827  0.2493
 -13   4  16  19.736   0.318
 -12   4  16  1.6622  0.1833
 -11   4  16  2.0294  0.1754
 -10   4  16  2.2468  0.1615
  -9   4  16  0.2404  0.1437
  -8   4  16  2.6623  0.1533
  -7   4  16  26.895   0.256
  -6   4  16  6.0397  0.1662
  -5   4  16  202.17    0.61
  -4   4  16  0.8273  0.1267
  -3   4  16  49.860   0.288
  -2   4  16  38.729   0.264
  -1   4  16  5.1479  0.1409
   0   4  16  150.27    0.51
   1   4  16  1.2031  0.1318
   2   4  16  23.505   0.254
   3   4  16  42.475   0.317
   4   4  16  4.9198  0.1654
   5   4  16  63.990   0.410
   6   4  16  0.2720  0.1503
   7   4  16  9.2149  0.2109
   8   4  16  1.3875  0.1697
   9   4  16  48.241   0.415
  10   4  16  4.7286  0.2247
  11   4  16  19.274   0.328
  12   4  16  7.9398  0.2609
 -17   5  16  0.1838  0.2237
 -16   5  16  0.0434  0.2221
 -15   5  16  5.9384  0.2590
 -14   5  16  29.565   0.382
 -13   5  16  12.004   0.280
 -12   5  16  7.9180  0.2264
 -11   5  16  8.4146  0.2240
 -10   5  16  4.3773  0.1761
  -9   5  16  6.2347  0.1806
  -8   5  16  1.1048  0.1405
  -7   5  16  0.0690  0.1346
  -6   5  16  15.652   0.222
  -5   5  16 -0.1017  0.1417
  -4   5  16  7.7145  0.1689
  -3   5  16  10.914   0.184
  -2   5  16  96.199   0.432
  -1   5  16  75.627   0.396
   0   5  16  1.2752  0.1397
   1   5  16  124.07    0.52
   2   5  16  38.267   0.329
   3   5  16  11.884   0.216
   4   5  16  63.981   0.407
   5   5  16  0.9999  0.1618
   6   5  16  65.309   0.438
   7   5  16  0.5720  0.1624
   8   5  16  34.368   0.372
   9   5  16  2.6095  0.1967
  10   5  16  9.2880  0.2478
  11   5  16  7.5283  0.2420
 -16   6  16  2.5959  0.2398
 -15   6  16  21.975   0.357
 -14   6  16  0.4451  0.2320
 -13   6  16  9.4843  0.2736
 -12   6  16 -0.1750  0.1777
 -11   6  16  4.8104  0.2009
 -10   6  16  3.2872  0.1856
  -9   6  16  6.6446  0.2170
  -8   6  16  29.674   0.318
  -7   6  16  0.6268  0.1603
  -6   6  16  0.9135  0.1531
  -5   6  16  127.13    0.55
  -4   6  16  2.3660  0.1513
  -3   6  16  10.856   0.202
  -2   6  16  37.151   0.315
  -1   6  16  0.5837  0.1595
   0   6  16  64.952   0.411
   1   6  16  0.1071  0.1548
   2   6  16  49.310   0.371
   3   6  16  19.121   0.261
   4   6  16  0.1371  0.1648
   5   6  16  39.262   0.382
   6   6  16  2.8967  0.1916
   7   6  16  19.788   0.290
   8   6  16  0.1518  0.1964
   9   6  16  57.422   0.492
  10   6  16  0.0627  0.1938
  11   6  16  25.486   0.375
 -16   7  16  0.4347  0.2520
 -15   7  16  19.846   0.372
 -14   7  16  13.970   0.319
 -13   7  16  27.457   0.382
 -12   7  16  0.1626  0.2057
 -11   7  16  29.778   0.362
 -10   7  16  3.4255  0.2138
  -9   7  16  5.9321  0.2158
  -8   7  16  1.4754  0.1963
  -7   7  16  3.5513  0.1993
  -6   7  16  19.855   0.269
  -5   7  16 -0.0566  0.1661
  -4   7  16  19.171   0.268
  -3   7  16  2.5086  0.1705
  -2   7  16  0.3005  0.1623
  -1   7  16  26.783   0.323
   0   7  16  5.6302  0.2024
   1   7  16  136.52    0.68
   2   7  16  2.9135  0.2038
   3   7  16  20.103   0.324
   4   7  16  39.309   0.407
   5   7  16  40.009   0.434
   6   7  16  1.7795  0.2238
   7   7  16  0.8283  0.2155
   8   7  16  29.060   0.411
   9   7  16  0.2683  0.2127
  10   7  16  24.413   0.364
 -15   8  16  0.0637  0.2270
 -14   8  16 -0.1906  0.2266
 -13   8  16  4.7377  0.2751
 -12   8  16  3.6707  0.2525
 -11   8  16  19.278   0.340
 -10   8  16  0.4740  0.2108
  -9   8  16  0.4867  0.1977
  -8   8  16  1.6536  0.2112
  -7   8  16  7.8116  0.2399
  -6   8  16  18.910   0.288
  -5   8  16  101.86    0.57
  -4   8  16  4.7232  0.2178
  -3   8  16 -0.1837  0.1934
  -2   8  16  2.8881  0.2092
  -1   8  16  0.7115  0.1893
   0   8  16  10.175   0.258
   1   8  16 -0.2736  0.2064
   2   8  16  5.1765  0.2433
   3   8  16  11.585   0.306
   4   8  16  2.2884  0.2442
   5   8  16  32.038   0.407
   6   8  16  3.5507  0.2462
   7   8  16  4.3268  0.2562
   8   8  16  1.1633  0.2185
   9   8  16  0.1197  0.2051
 -13   9  16  0.2244  0.2357
 -12   9  16  2.2458  0.2508
 -11   9  16  2.5636  0.2508
 -10   9  16  0.9108  0.2345
  -9   9  16  7.3608  0.2733
  -8   9  16  16.145   0.316
  -7   9  16  3.9838  0.2187
  -6   9  16  5.7553  0.2202
  -5   9  16  1.6733  0.2002
  -4   9  16  0.5860  0.1924
  -3   9  16  0.1800  0.2071
  -2   9  16  2.4824  0.2236
  -1   9  16  0.2345  0.2023
   0   9  16  13.450   0.298
   1   9  16  7.6888  0.2668
   2   9  16  1.6829  0.2276
   3   9  16  3.2730  0.2608
   4   9  16  18.757   0.370
   5   9  16  19.197   0.368
   6   9  16  5.8735  0.2752
   7   9  16  1.3476  0.2373
 -12  10  16  5.6203  0.2948
 -11  10  16  0.9127  0.2517
 -10  10  16  2.5385  0.2435
  -9  10  16  3.2685  0.2468
  -8  10  16  13.032   0.296
  -7  10  16  4.2771  0.2298
  -6  10  16  10.209   0.256
  -5  10  16  5.8558  0.2333
  -4  10  16  0.9145  0.1993
  -3  10  16  0.7993  0.2143
  -2  10  16  2.3498  0.2232
  -1  10  16  4.4149  0.2453
   0  10  16  0.1309  0.2193
   1  10  16  0.6152  0.2182
   2  10  16  11.645   0.321
   3  10  16  0.8474  0.2673
   4  10  16  2.1234  0.2525
   5  10  16  3.4934  0.2494
   6  10  16  1.5916  0.2357
  -9  11  16  16.415   0.335
  -8  11  16  3.0863  0.2455
  -7  11  16  1.4305  0.2277
  -6  11  16 -0.1527  0.2207
  -5  11  16  0.0944  0.1901
  -4  11  16  1.4457  0.2006
  -3  11  16  0.1886  0.2053
  -2  11  16  0.4776  0.2092
  -1  11  16  8.0507  0.2900
   0  11  16  10.192   0.307
   1  11  16  1.7903  0.2503
   2  11  16  19.905   0.384
   3  11  16  10.735   0.323
  -5  12  16  5.2314  0.2632
  -4  12  16  0.7562  0.2277
  -3  12  16  12.918   0.317
  -2  12  16  0.7375  0.2458
  -1  12  16  7.8630  0.2971
 -18   0  17  0.0215  0.4018
 -17   0  17  0.5039  0.3915
 -16   0  17  0.2742  0.4101
 -15   0  17  0.0361  0.3956
 -14   0  17 -0.5548  0.3305
 -13   0  17 -0.2059  0.3141
 -12   0  17 -0.2111  0.2992
 -11   0  17  0.3648  0.2448
 -10   0  17  0.5263  0.2510
  -9   0  17 -0.0151  0.2312
  -8   0  17  0.1105  0.2051
  -7   0  17  0.1587  0.1745
  -6   0  17 -0.0222  0.1729
  -5   0  17  0.0295  0.1697
  -4   0  17  0.0392  0.1638
  -2   0  17 -0.0643  0.1652
   0   0  17  0.2194  0.1550
   1   0  17 -0.0898  0.1478
   2   0  17  0.2531  0.1522
   3   0  17  0.0581  0.1586
   4   0  17  0.3850  0.1781
   5   0  17  0.0597  0.1888
   6   0  17  0.1092  0.2202
   7   0  17 -0.1764  0.2235
   8   0  17 -0.0859  0.2238
   9   0  17 -0.2687  0.2551
  10   0  17 -0.0846  0.2640
  11   0  17  0.0096  0.2893
  12   0  17 -0.2030  0.3224
 -18   1  17 -0.0412  0.2843
 -17   1  17 -0.0241  0.2772
 -16   1  17  4.6962  0.3203
 -15   1  17  2.3044  0.2542
 -14   1  17  17.658   0.342
 -13   1  17  3.8394  0.2392
 -12   1  17  1.1052  0.1940
 -11   1  17  2.1219  0.1795
 -10   1  17  0.0735  0.1678
  -9   1  17  0.2508  0.1641
  -8   1  17  0.2971  0.1445
  -7   1  17  2.0465  0.1326
  -6   1  17  22.763   0.226
  -5   1  17  0.2488  0.1171
  -4   1  17  7.2019  0.1508
  -3   1  17  14.330   0.186
  -2   1  17  7.4697  0.1568
  -1   1  17  4.6844  0.1399
   0   1  17  0.5851  0.1145
   1   1  17  1.1033  0.1108
   2   1  17  6.1018  0.1420
   3   1  17  0.2492  0.1206
   4   1  17  2.5757  0.1425
   5   1  17  1.9681  0.1424
   6   1  17  27.362   0.283
   7   1  17  5.4336  0.1878
   8   1  17 -0.0590  0.1622
   9   1  17  0.2682  0.1702
  10   1  17  1.4088  0.1837
  11   1  17  6.4136  0.2477
  12   1  17  6.6220  0.2698
 -18   2  17  0.0067  0.3030
 -17   2  17  3.2001  0.2708
 -16   2  17  0.3402  0.2384
 -15   2  17  0.7587  0.2167
 -14   2  17  0.2991  0.1976
 -13   2  17  2.3339  0.1975
 -12   2  17  5.0831  0.2032
 -11   2  17  24.544   0.291
 -10   2  17  3.6435  0.1837
  -9   2  17  14.871   0.227
  -8   2  17 -0.0060  0.1351
  -7   2  17  0.7230  0.1321
  -6   2  17  23.640   0.221
  -5   2  17  0.1736  0.1199
  -4   2  17  5.6711  0.1423
  -3   2  17  72.580   0.336
  -2   2  17 -0.0176  0.1200
  -1   2  17  37.235   0.260
   0   2  17  2.5457  0.1382
   1   2  17  51.604   0.318
   2   2  17  0.1622  0.1311
   3   2  17  14.848   0.208
   4   2  17  6.0938  0.1778
   5   2  17  3.4652  0.1605
   6   2  17  5.0484  0.1792
   7   2  17  0.5478  0.1491
   8   2  17  6.2513  0.2107
   9   2  17 -0.0389  0.1880
  10   2  17  0.1268  0.2019
  11   2  17  0.2786  0.2094
  12   2  17  7.4591  0.2536
 -18   3  17 -0.1239  0.2600
 -17   3  17  8.8677  0.2918
 -16   3  17  2.2427  0.2311
 -15   3  17  2.1346  0.2207
 -14   3  17  6.4763  0.2539
 -13   3  17  15.817   0.281
 -12   3  17  18.621   0.273
 -11   3  17  4.0100  0.1866
 -10   3  17  13.706   0.232
  -9   3  17  42.244   0.344
  -8   3  17  9.4554  0.2025
  -7   3  17  68.176   0.388
  -6   3  17  71.997   0.361
  -5   3  17  67.070   0.351
  -4   3  17  30.695   0.241
  -3   3  17  3.7495  0.1313
  -2   3  17  4.8214  0.1342
  -1   3  17  2.5577  0.1263
   0   3  17  46.971   0.304
   1   3  17 -0.0698  0.1335
   2   3  17  77.272   0.403
   3   3  17  24.156   0.251
   4   3  17  28.136   0.280
   5   3  17 -0.1613  0.1514
   6   3  17  2.7480  0.1641
   7   3  17  16.636   0.264
   8   3  17  0.3482  0.1762
   9   3  17  4.4690  0.2047
  10   3  17  9.6084  0.2602
  11   3  17  3.2583  0.2127
 -17   4  17  0.6778  0.2570
 -16   4  17  3.0394  0.2312
 -15   4  17  7.3552  0.2614
 -14   4  17  5.5058  0.2366
 -13   4  17  19.003   0.305
 -12   4  17  10.171   0.243
 -11   4  17  1.6509  0.1746
 -10   4  17  2.7306  0.1639
  -9   4  17  3.3262  0.1624
  -8   4  17  1.1031  0.1442
  -7   4  17  94.239   0.447
  -6   4  17  153.54    0.55
  -5   4  17  52.330   0.331
  -4   4  17  44.251   0.305
  -3   4  17  41.363   0.283
  -2   4  17  3.3534  0.1358
  -1   4  17  2.4572  0.1415
   0   4  17  88.826   0.420
   1   4  17  191.27    0.62
   2   4  17  19.355   0.249
   3   4  17  39.503   0.321
   4   4  17  6.8549  0.1922
   5   4  17  2.5913  0.1728
   6   4  17  7.4918  0.2032
   7   4  17  16.792   0.266
   8   4  17  15.630   0.287
   9   4  17  5.2550  0.2145
  10   4  17  7.2756  0.2424
  11   4  17  0.1460  0.2073
 -17   5  17  0.7604  0.2200
 -16   5  17  4.0849  0.2457
 -15   5  17 -0.2118  0.2245
 -14   5  17  7.4207  0.2636
 -13   5  17  13.957   0.294
 -12   5  17  9.3150  0.2466
 -11   5  17  4.6782  0.2046
 -10   5  17  24.094   0.286
  -9   5  17  31.174   0.306
  -8   5  17  7.8790  0.2040
  -7   5  17  9.8293  0.2012
  -6   5  17  19.907   0.252
  -5   5  17  16.412   0.231
  -4   5  17  8.0071  0.1812
  -3   5  17  2.5448  0.1452
  -2   5  17  22.445   0.237
  -1   5  17  12.976   0.209
   0   5  17  17.617   0.229
   1   5  17  19.243   0.246
   2   5  17 -0.1696  0.1552
   3   5  17  45.406   0.365
   4   5  17  0.5632  0.1644
   5   5  17  0.5700  0.1751
   6   5  17  3.3190  0.1853
   7   5  17  8.3565  0.2250
   8   5  17  0.2135  0.1809
   9   5  17  0.2595  0.1937
  10   5  17  29.280   0.367
 -16   6  17  0.4888  0.2224
 -15   6  17  0.2402  0.2098
 -14   6  17  0.2747  0.2266
 -13   6  17  1.5121  0.2164
 -12   6  17 -0.2477  0.1906
 -11   6  17  0.1153  0.1933
 -10   6  17  16.552   0.276
  -9   6  17  3.8770  0.1923
  -8   6  17  9.4587  0.2265
  -7   6  17  8.7897  0.2104
  -6   6  17  1.2488  0.1606
  -5   6  17  20.792   0.264
  -4   6  17  23.692   0.268
  -3   6  17  97.563   0.490
  -2   6  17 -0.2421  0.1493
  -1   6  17  15.427   0.246
   0   6  17  6.6631  0.1932
   1   6  17  4.4834  0.1921
   2   6  17  1.7746  0.1729
   3   6  17  13.880   0.252
   4   6  17  57.494   0.431
   5   6  17  3.0798  0.2021
   6   6  17  12.998   0.266
   7   6  17  22.383   0.313
   8   6  17  0.5889  0.2054
   9   6  17  11.216   0.277
  10   6  17  12.945   0.293
 -15   7  17  1.7633  0.2491
 -14   7  17  0.0189  0.2353
 -13   7  17  31.671   0.416
 -12   7  17  2.7178  0.2341
 -11   7  17  60.445   0.485
 -10   7  17  5.7300  0.2370
  -9   7  17  43.039   0.397
  -8   7  17  2.3623  0.1937
  -7   7  17  0.8767  0.1824
  -6   7  17  13.446   0.249
  -5   7  17  0.1436  0.1688
  -4   7  17  18.521   0.269
  -3   7  17  2.4356  0.1750
  -2   7  17  37.278   0.346
  -1   7  17  5.6076  0.2113
   0   7  17  7.7530  0.2239
   1   7  17  22.382   0.318
   2   7  17  6.9418  0.2351
   3   7  17  26.709   0.363
   4   7  17  1.7718  0.2237
   5   7  17  18.489   0.329
   6   7  17  9.8133  0.2771
   7   7  17  30.765   0.402
   8   7  17  0.8735  0.2208
   9   7  17  0.1209  0.2163
 -14   8  17  0.0744  0.2466
 -13   8  17  4.7133  0.2655
 -12   8  17  2.4088  0.2358
 -11   8  17  12.384   0.302
 -10   8  17  23.449   0.349
  -9   8  17  5.9263  0.2421
  -8   8  17  27.232   0.352
  -7   8  17  1.4626  0.2076
  -6   8  17  4.1547  0.2086
  -5   8  17  15.287   0.285
  -4   8  17  0.9337  0.1894
  -3   8  17  79.299   0.518
  -2   8  17  1.3980  0.1975
  -1   8  17  61.854   0.463
   0   8  17  4.9592  0.2161
   1   8  17  2.4209  0.2172
   2   8  17  14.313   0.297
   3   8  17  1.5372  0.2288
   4   8  17  47.863   0.499
   5   8  17 -0.0912  0.2351
   6   8  17  29.455   0.396
   7   8  17  6.9258  0.2672
   8   8  17 -0.0709  0.2166
 -12   9  17  5.9229  0.2786
 -11   9  17  10.386   0.311
 -10   9  17  3.9808  0.2550
  -9   9  17  42.167   0.420
  -8   9  17  0.2975  0.2086
  -7   9  17  18.011   0.318
  -6   9  17  4.3875  0.2130
  -5   9  17  0.2979  0.1899
  -4   9  17  4.6332  0.2231
  -3   9  17  0.1242  0.2036
  -2   9  17  8.1537  0.2698
  -1   9  17  4.3033  0.2337
   0   9  17 -0.0840  0.2117
   1   9  17  14.869   0.312
   2   9  17  2.3938  0.2518
   3   9  17  38.531   0.451
   4   9  17  0.1770  0.2494
   5   9  17  42.086   0.478
   6   9  17  0.9870  0.2229
 -10  10  17  0.0756  0.2224
  -9  10  17 -0.1995  0.2204
  -8  10  17 -0.2717  0.2057
  -7  10  17  1.9549  0.2203
  -6  10  17  0.1895  0.1813
  -5  10  17  11.024   0.262
  -4  10  17  13.074   0.282
  -3  10  17  4.5005  0.2338
  -2  10  17  3.3022  0.2276
  -1  10  17  12.967   0.328
   0  10  17  30.319   0.430
   1  10  17  0.0893  0.2275
   2  10  17  39.453   0.465
   3  10  17  0.2234  0.2450
   4  10  17  3.3308  0.2696
  -8  11  17  1.7391  0.2373
  -7  11  17  12.382   0.305
  -6  11  17  1.5336  0.2105
  -5  11  17  0.1628  0.1956
  -4  11  17  2.4228  0.2179
  -3  11  17  7.8592  0.2523
  -2  11  17  0.6041  0.2078
  -1  11  17  6.5829  0.2747
   0  11  17 -0.1230  0.2293
   1  11  17  3.7102  0.2583
 -18   0  18  13.993   0.550
 -17   0  18  1.4456  0.4141
 -16   0  18  0.5727  0.4105
 -15   0  18  9.7786  0.4641
 -14   0  18  33.475   0.671
 -13   0  18  3.6023  0.3616
 -12   0  18  35.916   0.556
 -11   0  18  65.005   0.636
 -10   0  18  1.9855  0.2701
  -9   0  18 -0.3889  0.2482
  -8   0  18  28.969   0.408
  -7   0  18  53.072   0.484
  -6   0  18  49.124   0.461
  -5   0  18  55.534   0.483
  -4   0  18  4.4154  0.2115
  -3   0  18  246.85    0.92
  -2   0  18  33.387   0.373
  -1   0  18  162.54    0.72
   0   0  18  7.7746  0.2290
   1   0  18  51.430   0.441
   2   0  18  53.715   0.481
   3   0  18  38.447   0.422
   4   0  18  183.23    0.91
   5   0  18  163.48    0.86
   6   0  18  40.167   0.482
   7   0  18  15.622   0.363
   8   0  18  24.227   0.445
   9   0  18  25.733   0.490
  10   0  18  14.235   0.453
  11   0  18  59.951   0.762
 -17   1  18  15.491   0.437
 -16   1  18  0.5619  0.2998
 -15   1  18  14.501   0.344
 -14   1  18  1.2505  0.2430
 -13   1  18  18.984   0.363
 -12   1  18  37.984   0.396
 -11   1  18  17.024   0.281
 -10   1  18  27.885   0.312
  -9   1  18  84.734   0.480
  -8   1  18  1.7978  0.1577
  -7   1  18  71.385   0.383
  -6   1  18  104.57    0.45
  -5   1  18  135.97    0.49
  -4   1  18  47.101   0.298
  -3   1  18  65.607   0.363
  -2   1  18  221.58    0.62
  -1   1  18  57.940   0.324
   0   1  18  17.366   0.200
   1   1  18  101.16    0.44
   2   1  18  17.416   0.211
   3   1  18  109.95    0.46
   4   1  18  48.035   0.341
   5   1  18  25.361   0.268
   6   1  18  0.4955  0.1638
   7   1  18  20.636   0.293
   8   1  18  12.214   0.255
   9   1  18  10.621   0.258
  10   1  18  8.0623  0.2772
  11   1  18  11.149   0.323
 -17   2  18  22.434   0.436
 -16   2  18  17.208   0.391
 -15   2  18  29.308   0.430
 -14   2  18  3.1065  0.2476
 -13   2  18  9.1442  0.2586
 -12   2  18  22.929   0.324
 -11   2  18  66.548   0.467
 -10   2  18  7.5977  0.2174
  -9   2  18  15.498   0.246
  -8   2  18  39.087   0.310
  -7   2  18  0.1815  0.1406
  -6   2  18  46.004   0.298
  -5   2  18 -0.3319  0.1341
  -4   2  18  16.162   0.201
  -3   2  18  86.176   0.404
  -2   2  18  53.864   0.322
  -1   2  18  121.72    0.48
   0   2  18 -0.0171  0.1414
   1   2  18  135.37    0.52
   2   2  18  13.051   0.207
   3   2  18  100.84    0.48
   4   2  18  30.702   0.297
   5   2  18  63.665   0.408
   6   2  18  2.2147  0.1665
   7   2  18  28.186   0.327
   8   2  18  52.250   0.440
   9   2  18  1.8905  0.1952
  10   2  18  2.1432  0.2084
  11   2  18  3.2103  0.2312
 -17   3  18  9.9532  0.3269
 -16   3  18  7.3043  0.2679
 -15   3  18  17.074   0.327
 -14   3  18  4.7507  0.2398
 -13   3  18  1.7391  0.2010
 -12   3  18  24.610   0.309
 -11   3  18  0.1683  0.1664
 -10   3  18  5.2799  0.1892
  -9   3  18  72.728   0.441
  -8   3  18  3.0315  0.1772
  -7   3  18  280.12    0.78
  -6   3  18  6.4964  0.1693
  -5   3  18  131.58    0.49
  -4   3  18  2.1142  0.1345
  -3   3  18  5.8016  0.1484
  -2   3  18  164.58    0.53
  -1   3  18  3.2779  0.1447
   0   3  18  48.127   0.319
   1   3  18  0.7124  0.1379
   2   3  18  10.323   0.202
   3   3  18  6.4081  0.1808
   4   3  18  2.6980  0.1603
   5   3  18  23.289   0.299
   6   3  18  3.8432  0.1838
   7   3  18  60.368   0.446
   8   3  18  2.2924  0.1949
   9   3  18  30.427   0.382
  10   3  18  1.6425  0.2138
 -17   4  18  9.6073  0.2993
 -16   4  18  5.6157  0.2487
 -15   4  18  16.213   0.310
 -14   4  18  1.6741  0.2133
 -13   4  18  29.642   0.360
 -12   4  18  17.328   0.288
 -11   4  18  24.712   0.300
 -10   4  18  6.1647  0.1922
  -9   4  18  1.3098  0.1613
  -8   4  18  7.8524  0.2035
  -7   4  18  0.5330  0.1555
  -6   4  18  12.961   0.215
  -5   4  18  4.1898  0.1549
  -4   4  18  0.2246  0.1351
  -3   4  18  32.330   0.268
  -2   4  18 -0.0114  0.1354
  -1   4  18  86.743   0.424
   0   4  18  0.1944  0.1469
   1   4  18  71.470   0.402
   2   4  18  52.276   0.365
   3   4  18  27.559   0.286
   4   4  18  60.124   0.387
   5   4  18  3.3789  0.1875
   6   4  18  8.7469  0.2383
   7   4  18  27.625   0.349
   8   4  18  27.984   0.347
   9   4  18  4.2806  0.2159
  10   4  18  4.4998  0.2279
 -16   5  18  0.2797  0.2081
 -15   5  18  3.6688  0.2294
 -14   5  18 -0.0769  0.2123
 -13   5  18  0.5890  0.1991
 -12   5  18  15.055   0.285
 -11   5  18  4.9927  0.2153
 -10   5  18  21.930   0.286
  -9   5  18  0.8823  0.1674
  -8   5  18  0.0994  0.1681
  -7   5  18  74.905   0.434
  -6   5  18  1.5948  0.1597
  -5   5  18  52.057   0.369
  -4   5  18  51.611   0.354
  -3   5  18 -0.0941  0.1504
  -2   5  18  17.914   0.229
  -1   5  18  1.3299  0.1497
   0   5  18  2.2594  0.1586
   1   5  18  12.608   0.227
   2   5  18  0.2241  0.1583
   3   5  18  64.040   0.431
   4   5  18  0.3082  0.1688
   5   5  18  12.270   0.247
   6   5  18  17.507   0.288
   7   5  18  25.302   0.343
   8   5  18  14.100   0.289
   9   5  18  31.297   0.388
 -15   6  18  11.463   0.288
 -14   6  18  0.5070  0.2255
 -13   6  18  63.980   0.516
 -12   6  18  0.5287  0.2031
 -11   6  18  34.363   0.369
 -10   6  18  2.2482  0.2006
  -9   6  18 -0.2230  0.1855
  -8   6  18  1.9660  0.1977
  -7   6  18  6.2076  0.2062
  -6   6  18  30.403   0.301
  -5   6  18  20.207   0.268
  -4   6  18  0.0425  0.1607
  -3   6  18  3.0734  0.1678
  -2   6  18  1.7769  0.1624
  -1   6  18  36.229   0.329
   0   6  18  20.651   0.270
   1   6  18  6.7374  0.2088
   2   6  18  13.108   0.253
   3   6  18  10.938   0.252
   4   6  18  22.068   0.330
   5   6  18  5.5525  0.2229
   6   6  18  16.365   0.297
   7   6  18  0.1274  0.1948
   8   6  18  3.4483  0.2299
   9   6  18  2.6705  0.2331
 -14   7  18  7.6151  0.2880
 -13   7  18  10.023   0.299
 -12   7  18  17.240   0.329
 -11   7  18  0.9748  0.2167
 -10   7  18  17.348   0.317
  -9   7  18  1.6500  0.2007
  -8   7  18 -0.1985  0.2020
  -7   7  18  81.151   0.503
  -6   7  18  34.523   0.352
  -5   7  18  14.198   0.262
  -4   7  18 -0.3192  0.1670
  -3   7  18  3.4448  0.1921
  -2   7  18  2.4171  0.1811
  -1   7  18  2.0947  0.1876
   0   7  18  6.8152  0.2223
   1   7  18  2.9560  0.2113
   2   7  18  0.3975  0.1950
   3   7  18  9.3331  0.2769
   4   7  18 -0.2342  0.2277
   5   7  18 -0.1463  0.2113
   6   7  18  6.8111  0.2558
   7   7  18  4.9723  0.2417
   8   7  18  0.2857  0.2291
 -13   8  18  1.9195  0.2587
 -12   8  18 -0.2828  0.2159
 -11   8  18  5.2292  0.2522
 -10   8  18  0.0653  0.2140
  -9   8  18  7.8373  0.2493
  -8   8  18  0.6197  0.2065
  -7   8  18  4.8901  0.2178
  -6   8  18  6.5916  0.2228
  -5   8  18  2.9038  0.2017
  -4   8  18  0.3011  0.1810
  -3   8  18  0.8233  0.2034
  -2   8  18  4.3479  0.2246
  -1   8  18  9.7689  0.2491
   0   8  18  1.2549  0.1981
   1   8  18 -0.1708  0.1979
   2   8  18  9.7812  0.2838
   3   8  18  34.541   0.413
   4   8  18  3.2003  0.2395
   5   8  18  0.4353  0.2289
   6   8  18  3.7937  0.2345
 -11   9  18  0.7903  0.2276
 -10   9  18  1.0429  0.2296
  -9   9  18  0.2035  0.2020
  -8   9  18  20.684   0.328
  -7   9  18  26.120   0.351
  -6   9  18  1.8633  0.2037
  -5   9  18  0.0996  0.1862
  -4   9  18  0.4903  0.1952
  -3   9  18  0.3537  0.2036
  -2   9  18  4.8775  0.2402
  -1   9  18  0.0578  0.2143
   0   9  18  7.0770  0.2667
   1   9  18  0.9077  0.2119
   2   9  18  3.7905  0.2457
   3   9  18  14.836   0.356
   4   9  18  0.4587  0.2261
   5   9  18  0.6894  0.2240
  -9  10  18  0.7457  0.2174
  -8  10  18  0.8177  0.2024
  -7  10  18  5.3204  0.2417
  -6  10  18  0.1135  0.1986
  -5  10  18  0.9607  0.1950
  -4  10  18 -0.0009  0.1838
  -3  10  18  3.4965  0.2195
  -2  10  18  1.1870  0.2096
  -1  10  18  4.8239  0.2507
   0  10  18  0.8847  0.2244
   1  10  18  7.7775  0.2758
   2  10  18  22.649   0.366
   3  10  18  7.6149  0.2758
  -5  11  18  1.0135  0.2054
  -4  11  18  10.188   0.276
  -3  11  18  22.800   0.331
  -2  11  18  0.0769  0.2233
 -17   0  19  0.0415  0.4164
 -16   0  19 -0.1275  0.4200
 -15   0  19  0.0110  0.3468
 -14   0  19 -0.0650  0.3635
 -13   0  19 -0.4168  0.3486
 -12   0  19  0.1850  0.2798
 -11   0  19  0.2891  0.2628
 -10   0  19  0.0089  0.2622
  -9   0  19 -0.0557  0.2547
  -8   0  19  0.1160  0.2332
  -7   0  19  0.2041  0.2088
  -6   0  19  0.2784  0.2019
  -5   0  19  0.1662  0.1930
  -4   0  19  0.4490  0.2044
  -3   0  19  0.1519  0.2255
  -2   0  19  0.3076  0.2117
   0   0  19 -0.3391  0.1951
   2   0  19 -0.3317  0.2148
   3   0  19  0.3243  0.2262
   4   0  19 -0.2582  0.2408
   5   0  19  0.4799  0.2298
   6   0  19 -0.0190  0.2279
   7   0  19 -0.0906  0.2652
   8   0  19  0.2127  0.2788
   9   0  19  0.1784  0.3218
  10   0  19  1.0593  0.3531
 -17   1  19  1.9451  0.3216
 -16   1  19  6.1772  0.3317
 -15   1  19 -0.0292  0.2603
 -14   1  19  1.9909  0.2598
 -13   1  19  0.4463  0.2439
 -12   1  19  3.1528  0.2356
 -11   1  19  4.8759  0.2247
 -10   1  19  9.8404  0.2391
  -9   1  19  9.6079  0.2295
  -8   1  19  0.0564  0.1655
  -7   1  19  5.0247  0.1725
  -6   1  19  0.1966  0.1375
  -5   1  19  22.692   0.244
  -4   1  19  18.528   0.215
  -3   1  19  4.0321  0.1624
  -2   1  19  31.476   0.287
  -1   1  19  0.3353  0.1433
   0   1  19  2.3633  0.1570
   1   1  19  8.7346  0.1889
   2   1  19  24.581   0.282
   3   1  19  2.0890  0.1751
   4   1  19  12.631   0.225
   5   1  19  1.2341  0.1670
   6   1  19  5.2279  0.2196
   7   1  19  0.0951  0.1986
   8   1  19  0.0648  0.1989
   9   1  19  11.593   0.290
  10   1  19  1.5404  0.2535
 -17   2  19  0.6002  0.2920
 -16   2  19  1.9356  0.2949
 -15   2  19  0.3782  0.2401
 -14   2  19  5.3841  0.2624
 -13   2  19  2.4357  0.2240
 -12   2  19  0.1757  0.2004
 -11   2  19  4.0951  0.2075
 -10   2  19  2.1422  0.1989
  -9   2  19  23.369   0.304
  -8   2  19  30.187   0.308
  -7   2  19  0.8410  0.1504
  -6   2  19  12.642   0.206
  -5   2  19  0.9616  0.1413
  -4   2  19  2.4862  0.1498
  -3   2  19  1.5483  0.1443
  -2   2  19  5.9791  0.1687
  -1   2  19  24.028   0.251
   0   2  19  8.3023  0.1941
   1   2  19  62.213   0.385
   2   2  19  6.2625  0.1915
   3   2  19  23.192   0.273
   4   2  19  18.168   0.254
   5   2  19  0.5619  0.1615
   6   2  19  5.8144  0.2232
   7   2  19  0.5798  0.1914
   8   2  19  3.4135  0.2170
   9   2  19  12.265   0.283
  10   2  19  0.0306  0.2425
 -16   3  19  1.5454  0.2371
 -15   3  19  2.5262  0.2499
 -14   3  19  1.2332  0.2166
 -13   3  19  3.6347  0.2250
 -12   3  19  1.2560  0.1955
 -11   3  19 -0.0559  0.1791
 -10   3  19  2.3098  0.1867
  -9   3  19  1.2591  0.1854
  -8   3  19  12.327   0.238
  -7   3  19  0.6207  0.1666
  -6   3  19  7.4537  0.1889
  -5   3  19  29.115   0.279
  -4   3  19  4.3018  0.1650
  -3   3  19  0.3593  0.1424
  -2   3  19  78.381   0.389
  -1   3  19  23.595   0.256
   0   3  19  1.2875  0.1416
   1   3  19  8.4750  0.1867
   2   3  19  13.702   0.228
   3   3  19  5.8747  0.1910
   4   3  19  2.6801  0.1728
   5   3  19  20.854   0.297
   6   3  19  13.440   0.263
   7   3  19  0.4368  0.1920
   8   3  19  14.070   0.286
   9   3  19  2.7665  0.2179
 -16   4  19  4.2516  0.2370
 -15   4  19  0.0923  0.2127
 -14   4  19  20.418   0.329
 -13   4  19  4.0001  0.2296
 -12   4  19  6.2865  0.2276
 -11   4  19  6.8165  0.2229
 -10   4  19  8.4917  0.2188
  -9   4  19  6.0514  0.2061
  -8   4  19  4.9959  0.2016
  -7   4  19  41.282   0.348
  -6   4  19  12.849   0.226
  -5   4  19  12.618   0.207
  -4   4  19  2.9214  0.1550
  -3   4  19  38.722   0.304
  -2   4  19  14.508   0.214
  -1   4  19  12.921   0.209
   0   4  19  39.919   0.317
   1   4  19  2.9056  0.1650
   2   4  19  3.0277  0.1659
   3   4  19  6.7230  0.1920
   4   4  19  20.360   0.285
   5   4  19  18.666   0.288
   6   4  19  1.6314  0.1869
   7   4  19  6.3443  0.2279
   8   4  19  6.4704  0.2322
   9   4  19  14.604   0.296
 -15   5  19  0.1410  0.2082
 -14   5  19 -0.1218  0.2130
 -13   5  19  0.8541  0.2036
 -12   5  19  4.8657  0.2225
 -11   5  19  0.0552  0.1964
 -10   5  19  3.1613  0.1947
  -9   5  19  10.713   0.246
  -8   5  19  1.1766  0.1822
  -7   5  19  16.435   0.264
  -6   5  19  2.4088  0.1709
  -5   5  19  44.264   0.342
  -4   5  19  0.3347  0.1549
  -3   5  19  5.5237  0.1888
  -2   5  19  50.929   0.359
  -1   5  19  35.024   0.315
   0   5  19  26.648   0.279
   1   5  19  0.3384  0.1661
   2   5  19  63.791   0.423
   3   5  19 -0.1073  0.1692
   4   5  19 -0.2565  0.1827
   5   5  19  45.671   0.409
   6   5  19  5.3763  0.2114
   7   5  19  10.775   0.257
   8   5  19  1.4030  0.2004
 -14   6  19  0.0750  0.2164
 -13   6  19  16.046   0.309
 -12   6  19  0.6848  0.2152
 -11   6  19  17.340   0.314
 -10   6  19  1.0509  0.1967
  -9   6  19  0.1021  0.1909
  -8   6  19  26.357   0.346
  -7   6  19  2.2729  0.1905
  -6   6  19  32.962   0.319
  -5   6  19  0.5840  0.1636
  -4   6  19  39.433   0.349
  -3   6  19  1.3204  0.1649
  -2   6  19 -0.0449  0.1648
  -1   6  19  33.310   0.327
   0   6  19  4.9693  0.1926
   1   6  19  47.145   0.405
   2   6  19  0.7819  0.1801
   3   6  19  27.582   0.332
   4   6  19  1.3170  0.1964
   5   6  19  28.250   0.364
   6   6  19  5.8188  0.2242
   7   6  19  0.3407  0.1971
 -13   7  19  11.210   0.303
 -12   7  19  5.8381  0.2571
 -11   7  19  3.9441  0.2325
 -10   7  19  12.325   0.289
  -9   7  19  4.2809  0.2319
  -8   7  19  5.0765  0.2364
  -7   7  19  17.634   0.292
  -6   7  19  0.1925  0.1797
  -5   7  19  34.898   0.361
  -4   7  19  3.0684  0.1892
  -3   7  19  40.950   0.391
  -2   7  19 -0.1979  0.1814
  -1   7  19  20.736   0.290
   0   7  19  2.7839  0.2134
   1   7  19  15.119   0.284
   2   7  19  47.913   0.442
   3   7  19  2.3407  0.2279
   4   7  19  18.595   0.343
   5   7  19  0.8509  0.2082
   6   7  19  0.1774  0.1995
 -12   8  19  2.1589  0.2453
 -11   8  19  35.264   0.409
 -10   8  19  7.3289  0.2691
  -9   8  19  19.831   0.325
  -8   8  19  1.2854  0.2056
  -7   8  19  5.2252  0.2253
  -6   8  19  5.9788  0.2119
  -5   8  19  4.6761  0.2155
  -4   8  19  13.086   0.280
  -3   8  19  12.970   0.276
  -2   8  19  5.4790  0.2288
  -1   8  19 -0.0768  0.1899
   0   8  19  0.5746  0.1933
   1   8  19  8.8709  0.2448
   2   8  19 -0.1163  0.2045
   3   8  19  7.8282  0.2638
   4   8  19  0.7938  0.2046
   5   8  19  9.2100  0.2666
 -10   9  19  21.313   0.361
  -9   9  19  0.8773  0.2073
  -8   9  19  13.741   0.275
  -7   9  19  8.5407  0.2557
  -6   9  19  5.6808  0.2275
  -5   9  19  17.842   0.313
  -4   9  19  0.5775  0.2070
  -3   9  19  33.133   0.386
  -2   9  19  1.2252  0.2079
  -1   9  19  9.6201  0.2899
   0   9  19  7.9242  0.2734
   1   9  19  0.1076  0.2060
   2   9  19  0.8073  0.2160
   3   9  19 -0.1383  0.2248
  -7  10  19  3.0769  0.2190
  -6  10  19  0.0849  0.1934
  -5  10  19  0.9965  0.1968
  -4  10  19  1.3695  0.2019
  -3  10  19  3.5618  0.2120
  -2  10  19  20.344   0.339
  -1  10  19  1.3139  0.2156
   0  10  19  2.4643  0.2223
 -16   0  20  9.6959  0.4856
 -15   0  20  0.4141  0.3497
 -14   0  20  15.039   0.525
 -13   0  20  1.8810  0.3771
 -12   0  20  3.0630  0.3112
 -11   0  20  13.025   0.387
 -10   0  20  0.3369  0.2704
  -9   0  20  39.925   0.537
  -8   0  20  33.167   0.476
  -7   0  20  63.566   0.554
  -6   0  20  49.944   0.495
  -5   0  20  8.8504  0.2673
  -4   0  20  170.54    0.81
  -3   0  20  55.277   0.526
  -2   0  20  4.8445  0.2614
  -1   0  20  127.72    0.72
   0   0  20  10.085   0.277
   1   0  20  196.99    0.95
   2   0  20  22.286   0.370
   3   0  20  47.166   0.544
   4   0  20  33.943   0.465
   5   0  20  16.523   0.377
   6   0  20  19.447   0.443
   7   0  20  63.308   0.743
   8   0  20  63.380   0.713
   9   0  20  28.922   0.585
 -16   1  20  0.0340  0.2848
 -15   1  20  4.9905  0.2849
 -14   1  20  11.110   0.331
 -13   1  20  49.916   0.514
 -12   1  20  5.4267  0.2435
 -11   1  20  7.7995  0.2551
 -10   1  20  7.3239  0.2387
  -9   1  20 -0.3392  0.1843
  -8   1  20  17.989   0.277
  -7   1  20  8.9871  0.2023
  -6   1  20  0.4529  0.1432
  -5   1  20  23.565   0.256
  -4   1  20  3.0441  0.1518
  -3   1  20  51.000   0.344
  -2   1  20  0.1636  0.1482
  -1   1  20  77.942   0.408
   0   1  20  81.688   0.440
   1   1  20  55.949   0.377
   2   1  20  135.98    0.61
   3   1  20  56.672   0.415
   4   1  20  24.329   0.294
   5   1  20  14.830   0.265
   6   1  20  69.280   0.534
   7   1  20  11.181   0.286
   8   1  20 -0.0225  0.2177
   9   1  20  35.860   0.458
 -16   2  20  0.0448  0.2627
 -15   2  20  0.5491  0.2501
 -14   2  20  11.701   0.333
 -13   2  20 -0.0652  0.2210
 -12   2  20  16.525   0.307
 -11   2  20  4.9380  0.2224
 -10   2  20  3.7315  0.2155
  -9   2  20  38.285   0.382
  -8   2  20  2.1200  0.1783
  -7   2  20  40.368   0.338
  -6   2  20  1.8659  0.1550
  -5   2  20  0.4381  0.1507
  -4   2  20  78.288   0.410
  -3   2  20  19.965   0.240
  -2   2  20  8.6643  0.1870
  -1   2  20  4.4771  0.1624
   0   2  20  5.0474  0.1821
   1   2  20  11.207   0.217
   2   2  20  0.0225  0.1714
   3   2  20  20.138   0.270
   4   2  20  0.7653  0.1686
   5   2  20  39.069   0.379
   6   2  20  4.8545  0.2270
   7   2  20  34.112   0.396
   8   2  20  1.3061  0.2063
   9   2  20 -0.3485  0.2065
 -16   3  20  4.7800  0.2820
 -15   3  20  1.4498  0.2484
 -14   3  20  6.5230  0.2653
 -13   3  20  10.955   0.276
 -12   3  20  4.4449  0.2195
 -11   3  20  5.4331  0.2168
 -10   3  20  11.224   0.252
  -9   3  20  34.912   0.361
  -8   3  20  1.3881  0.1746
  -7   3  20  14.512   0.252
  -6   3  20  0.1320  0.1609
  -5   3  20  47.727   0.352
  -4   3  20  11.364   0.213
  -3   3  20  101.44    0.48
  -2   3  20  11.288   0.205
  -1   3  20  19.313   0.255
   0   3  20  16.166   0.240
   1   3  20  11.208   0.217
   2   3  20  45.379   0.363
   3   3  20  13.131   0.245
   4   3  20  6.4330  0.2140
   5   3  20  8.6588  0.2375
   6   3  20  29.557   0.363
   7   3  20  0.7188  0.1892
   8   3  20  1.6230  0.2115
 -15   4  20  0.0008  0.2167
 -14   4  20  16.579   0.318
 -13   4  20  2.0019  0.2208
 -12   4  20  16.122   0.298
 -11   4  20  24.854   0.323
 -10   4  20  3.7267  0.1943
  -9   4  20  108.05    0.56
  -8   4  20  4.4096  0.2038
  -7   4  20  71.080   0.463
  -6   4  20  11.124   0.226
  -5   4  20  2.9225  0.1607
  -4   4  20  55.368   0.358
  -3   4  20  3.4860  0.1656
  -2   4  20  14.191   0.218
  -1   4  20  0.6622  0.1462
   0   4  20  19.766   0.240
   1   4  20  4.5165  0.1738
   2   4  20  19.011   0.258
   3   4  20  18.086   0.268
   4   4  20  9.9740  0.2399
   5   4  20  36.633   0.377
   6   4  20  13.985   0.274
   7   4  20  28.147   0.351
   8   4  20  0.1444  0.1825
 -14   5  20  7.5823  0.2693
 -13   5  20  29.231   0.376
 -12   5  20  0.3018  0.2012
 -11   5  20  1.6452  0.2106
 -10   5  20  7.8409  0.2349
  -9   5  20  4.3960  0.2141
  -8   5  20  73.662   0.490
  -7   5  20  12.412   0.256
  -6   5  20  50.724   0.372
  -5   5  20  3.7963  0.1828
  -4   5  20  1.5541  0.1581
  -3   5  20  63.030   0.397
  -2   5  20  2.7598  0.1735
  -1   5  20  53.271   0.378
   0   5  20  11.221   0.221
   1   5  20  69.799   0.439
   2   5  20  4.6656  0.1878
   3   5  20  2.0008  0.1757
   4   5  20  6.9388  0.2316
   5   5  20  11.140   0.256
   6   5  20  14.882   0.278
   7   5  20  0.7077  0.1867
 -13   6  20  0.1282  0.2160
 -12   6  20  5.5803  0.2473
 -11   6  20  7.9801  0.2625
 -10   6  20  6.1113  0.2294
  -9   6  20  69.595   0.500
  -8   6  20  2.2911  0.2176
  -7   6  20  35.408   0.370
  -6   6  20  2.8067  0.1842
  -5   6  20  21.802   0.287
  -4   6  20  11.895   0.233
  -3   6  20  4.1907  0.1961
  -2   6  20  0.7667  0.1852
  -1   6  20  4.0284  0.1932
   0   6  20 -0.1640  0.1788
   1   6  20  5.0067  0.2046
   2   6  20  26.123   0.321
   3   6  20  0.4451  0.1895
   4   6  20  3.6147  0.2103
   5   6  20  0.2044  0.1915
   6   6  20  8.5724  0.2507
 -12   7  20  0.5917  0.2130
 -11   7  20  5.1516  0.2425
 -10   7  20  1.6368  0.2194
  -9   7  20  1.0345  0.2140
  -8   7  20  14.068   0.286
  -7   7  20  17.191   0.289
  -6   7  20  0.5858  0.1817
  -5   7  20 -0.0353  0.1808
  -4   7  20  0.9931  0.1798
  -3   7  20  7.6565  0.2329
  -2   7  20  11.244   0.254
  -1   7  20  1.0727  0.1758
   0   7  20  0.0393  0.1965
   1   7  20  24.513   0.333
   2   7  20  0.5553  0.1865
   3   7  20  0.1250  0.2140
   4   7  20  1.3579  0.2057
   5   7  20  3.4747  0.2275
 -11   8  20 -0.1619  0.2172
 -10   8  20  2.7509  0.2292
  -9   8  20  21.620   0.329
  -8   8  20  4.3178  0.2267
  -7   8  20  6.3940  0.2355
  -6   8  20  0.9318  0.1924
  -5   8  20  6.6944  0.2248
  -4   8  20  8.1630  0.2556
  -3   8  20  0.1519  0.1938
  -2   8  20  17.770   0.303
  -1   8  20  7.8528  0.2608
   0   8  20  1.5099  0.2005
   1   8  20  0.0413  0.1872
   2   8  20  0.0772  0.1922
   3   8  20  2.8479  0.2026
  -8   9  20  2.6937  0.2097
  -7   9  20 -0.3005  0.1986
  -6   9  20  4.2277  0.2119
  -5   9  20  11.722   0.257
  -4   9  20  1.9995  0.2057
  -3   9  20  10.003   0.263
  -2   9  20  10.723   0.267
  -1   9  20 -0.1113  0.2147
   0   9  20  11.760   0.292
   1   9  20  13.554   0.310
 -15   0  21  0.1717  0.3015
 -14   0  21  0.0967  0.3564
 -13   0  21 -0.1931  0.3588
 -12   0  21  0.0942  0.2929
 -11   0  21 -0.1124  0.2986
 -10   0  21  0.2111  0.2820
  -9   0  21  0.0066  0.2609
  -8   0  21 -0.0566  0.2466
  -7   0  21 -0.1543  0.2204
  -6   0  21 -0.3052  0.2094
  -5   0  21  0.1954  0.2138
  -4   0  21  0.1671  0.2004
  -3   0  21  0.1068  0.2223
  -2   0  21  0.8584  0.2360
  -1   0  21  0.9025  0.2444
   1   0  21  0.5454  0.2225
   2   0  21  0.1538  0.2206
   3   0  21 -0.3979  0.2449
   4   0  21 -0.4075  0.2630
   5   0  21  0.2818  0.2894
   6   0  21 -0.4405  0.3102
   7   0  21  0.1689  0.3215
   8   0  21 -0.1644  0.3037
 -15   1  21  0.1833  0.2491
 -14   1  21 -0.0345  0.2505
 -13   1  21  2.9207  0.2567
 -12   1  21  0.5776  0.2100
 -11   1  21  0.2379  0.2113
 -10   1  21  4.7023  0.2369
  -9   1  21  1.0430  0.1988
  -8   1  21  0.5309  0.1786
  -7   1  21  5.8087  0.1871
  -6   1  21  4.4985  0.1717
  -5   1  21  5.8798  0.1792
  -4   1  21  0.5629  0.1510
  -3   1  21  12.208   0.219
  -2   1  21  1.0219  0.1586
  -1   1  21  28.798   0.286
   0   1  21  1.6314  0.1624
   1   1  21  14.807   0.244
   2   1  21  3.2157  0.1871
   3   1  21  0.6744  0.1749
   4   1  21  3.6753  0.2087
   5   1  21  1.3664  0.1997
   6   1  21  14.768   0.308
   7   1  21  8.8869  0.2808
   8   1  21  7.5128  0.2720
 -15   2  21  17.265   0.390
 -14   2  21  2.3910  0.2571
 -13   2  21  6.3485  0.2666
 -12   2  21  0.1133  0.2121
 -11   2  21  4.8322  0.2352
 -10   2  21  2.8656  0.2280
  -9   2  21  8.9292  0.2670
  -8   2  21  17.066   0.301
  -7   2  21 -0.2083  0.1748
  -6   2  21  0.7110  0.1639
  -5   2  21  9.9472  0.2145
  -4   2  21  40.234   0.330
  -3   2  21  0.8733  0.1529
  -2   2  21  4.0353  0.1736
  -1   2  21  0.5115  0.1554
   0   2  21  2.9960  0.1759
   1   2  21  9.6485  0.2189
   2   2  21  0.0669  0.1767
   3   2  21  30.756   0.352
   4   2  21  4.3591  0.2056
   5   2  21  12.243   0.274
   6   2  21  1.1403  0.2083
   7   2  21  8.9687  0.2766
 -15   3  21  0.4459  0.2628
 -14   3  21  1.6516  0.2395
 -13   3  21  1.8790  0.2334
 -12   3  21  0.5436  0.2130
 -11   3  21  2.0918  0.2058
 -10   3  21  0.2478  0.2007
  -9   3  21  2.8835  0.2193
  -8   3  21  26.329   0.335
  -7   3  21  0.6589  0.1778
  -6   3  21  1.3071  0.1745
  -5   3  21  0.0740  0.1551
  -4   3  21  4.6977  0.1836
  -3   3  21  20.047   0.264
  -2   3  21 -0.2007  0.1518
  -1   3  21  0.1274  0.1604
   0   3  21  3.2676  0.1729
   1   3  21  0.0688  0.1755
   2   3  21  17.709   0.274
   3   3  21 -0.1777  0.1680
   4   3  21  24.246   0.327
   5   3  21 -0.0083  0.1889
   6   3  21  4.4593  0.2201
   7   3  21  3.8732  0.2215
 -14   4  21  0.1527  0.2153
 -13   4  21  1.3852  0.2198
 -12   4  21  9.8873  0.2705
 -11   4  21  6.5668  0.2357
 -10   4  21  0.2692  0.1931
  -9   4  21  4.7953  0.2297
  -8   4  21  2.8225  0.2043
  -7   4  21  2.7265  0.2110
  -6   4  21  0.3025  0.1835
  -5   4  21  2.9478  0.1763
  -4   4  21  8.0466  0.2040
  -3   4  21  0.1765  0.1568
  -2   4  21  0.2502  0.1607
  -1   4  21  12.145   0.234
   0   4  21  8.1490  0.2055
   1   4  21 -0.0865  0.1674
   2   4  21  1.3147  0.1737
   3   4  21  37.817   0.352
   4   4  21  1.3137  0.1979
   5   4  21  7.6713  0.2436
   6   4  21  1.0651  0.2010
 -13   5  21  10.659   0.280
 -12   5  21  1.6605  0.2193
 -11   5  21  2.3236  0.2221
 -10   5  21  8.3201  0.2488
  -9   5  21  15.901   0.283
  -8   5  21  0.0792  0.1929
  -7   5  21  0.0942  0.1920
  -6   5  21  7.7296  0.2181
  -5   5  21  0.5037  0.1687
  -4   5  21  0.3746  0.1702
  -3   5  21  14.884   0.254
  -2   5  21  7.9672  0.2181
  -1   5  21  1.3197  0.1734
   0   5  21  0.2155  0.1759
   1   5  21  14.291   0.244
   2   5  21  9.3780  0.2210
   3   5  21  21.294   0.293
   4   5  21  19.147   0.323
   5   5  21  6.0392  0.2339
   6   5  21  12.359   0.298
 -12   6  21  4.0121  0.2298
 -11   6  21  3.2113  0.2240
 -10   6  21  4.1470  0.2222
  -9   6  21  17.353   0.295
  -8   6  21  6.0192  0.2373
  -7   6  21  21.498   0.313
  -6   6  21  1.5024  0.1771
  -5   6  21  19.161   0.271
  -4   6  21  10.511   0.226
  -3   6  21  31.530   0.330
  -2   6  21  19.284   0.271
  -1   6  21 -0.1649  0.1842
   0   6  21  47.841   0.407
   1   6  21 -0.2047  0.1732
   2   6  21  2.0174  0.1740
   3   6  21  6.7960  0.2275
   4   6  21  6.2533  0.2324
   5   6  21  0.2506  0.1839
 -11   7  21  6.9502  0.2506
 -10   7  21  4.2247  0.2250
  -9   7  21  5.8254  0.2386
  -8   7  21  15.047   0.285
  -7   7  21  0.3225  0.1931
  -6   7  21  21.860   0.305
  -5   7  21  4.5294  0.2042
  -4   7  21  0.0329  0.1821
  -3   7  21 -0.0867  0.1803
  -2   7  21 -0.0666  0.1851
  -1   7  21  23.897   0.323
   0   7  21  0.1025  0.1915
   1   7  21  39.670   0.386
   2   7  21  3.5234  0.2029
   3   7  21  8.2373  0.2447
  -9   8  21  8.0740  0.2494
  -8   8  21  0.5063  0.1925
  -7   8  21  16.009   0.294
  -6   8  21  0.5614  0.1933
  -5   8  21  18.279   0.294
  -4   8  21  0.8511  0.1970
  -3   8  21  17.687   0.289
  -2   8  21  3.4096  0.2037
  -1   8  21  0.1438  0.1984
   0   8  21  10.142   0.272
   1   8  21  1.3530  0.1957
  -5   9  21  0.8726  0.1846
  -4   9  21  27.734   0.338
  -3   9  21 -0.0099  0.1848
 -14   0  22  0.8203  0.3619
 -13   0  22  12.546   0.501
 -12   0  22  12.369   0.433
 -11   0  22  21.527   0.493
 -10   0  22  21.383   0.464
  -9   0  22  3.1048  0.2955
  -8   0  22  31.644   0.473
  -7   0  22  0.0044  0.2384
  -6   0  22  12.032   0.316
  -5   0  22  8.2818  0.2806
  -4   0  22  10.893   0.306
  -3   0  22  36.614   0.442
  -2   0  22  32.589   0.426
  -1   0  22  92.060   0.676
   0   0  22  57.797   0.596
   1   0  22  17.651   0.378
   2   0  22  0.8167  0.2498
   3   0  22  23.906   0.447
   4   0  22  33.571   0.506
   5   0  22  1.8333  0.3150
   6   0  22  7.1191  0.3726
 -14   1  22  8.7668  0.3106
 -13   1  22  2.6613  0.2561
 -12   1  22  3.7352  0.2389
 -11   1  22  36.124   0.407
 -10   1  22  2.8503  0.2339
  -9   1  22  55.371   0.459
  -8   1  22  0.8126  0.2023
  -7   1  22  0.5712  0.1787
  -6   1  22  59.247   0.406
  -5   1  22  27.945   0.288
  -4   1  22 -0.0565  0.1602
  -3   1  22 -0.0674  0.1631
  -2   1  22  3.1840  0.1777
  -1   1  22  6.4953  0.2039
   0   1  22  0.1748  0.1701
   1   1  22  23.019   0.283
   2   1  22  3.2517  0.1914
   3   1  22  5.7841  0.2171
   4   1  22  9.9794  0.2536
   5   1  22  45.980   0.486
   6   1  22  18.882   0.350
 -14   2  22 -0.1983  0.2316
 -13   2  22  3.0482  0.2398
 -12   2  22  3.3024  0.2399
 -11   2  22  17.174   0.317
 -10   2  22  2.0585  0.2204
  -9   2  22  4.9017  0.2462
  -8   2  22  0.1266  0.2052
  -7   2  22  9.8194  0.2505
  -6   2  22  0.5712  0.1868
  -5   2  22  40.051   0.349
  -4   2  22  13.865   0.237
  -3   2  22  2.2582  0.1775
  -2   2  22  19.828   0.265
  -1   2  22  1.6087  0.1809
   0   2  22  85.221   0.477
   1   2  22  3.8493  0.1996
   2   2  22  21.034   0.289
   3   2  22  4.5658  0.2104
   4   2  22  19.207   0.313
   5   2  22  1.7318  0.2304
   6   2  22  1.9976  0.2281
 -14   3  22  20.024   0.368
 -13   3  22  1.7219  0.2445
 -12   3  22 -0.0777  0.2229
 -11   3  22  7.4213  0.2528
 -10   3  22  7.7593  0.2420
  -9   3  22  9.7249  0.2786
  -8   3  22  12.430   0.285
  -7   3  22  5.0438  0.2274
  -6   3  22  29.321   0.338
  -5   3  22  25.095   0.300
  -4   3  22  0.6793  0.1643
  -3   3  22  0.7919  0.1664
  -2   3  22  5.3547  0.2050
  -1   3  22  10.953   0.229
   0   3  22  3.5347  0.1813
   1   3  22  10.633   0.234
   2   3  22  1.7923  0.1869
   3   3  22  14.600   0.276
   4   3  22  14.126   0.291
   5   3  22  29.912   0.378
   6   3  22  0.0038  0.1941
 -13   4  22  1.6535  0.2392
 -12   4  22  7.1439  0.2635
 -11   4  22  1.1425  0.2169
 -10   4  22  31.254   0.374
  -9   4  22  5.6506  0.2385
  -8   4  22  15.050   0.285
  -7   4  22  7.5719  0.2398
  -6   4  22  4.4015  0.2100
  -5   4  22  65.640   0.467
  -4   4  22  0.0327  0.1682
  -3   4  22  30.073   0.323
  -2   4  22  9.5819  0.2384
  -1   4  22  36.945   0.357
   0   4  22  6.1474  0.2207
   1   4  22  30.279   0.332
   2   4  22  11.401   0.244
   3   4  22 -0.2187  0.1766
   4   4  22  39.360   0.402
   5   4  22  0.4020  0.1858
 -12   5  22  12.234   0.302
 -11   5  22  68.998   0.517
 -10   5  22  1.4777  0.1988
  -9   5  22  26.416   0.346
  -8   5  22 -0.2625  0.1960
  -7   5  22  3.7945  0.2121
  -6   5  22  22.245   0.305
  -5   5  22  4.1157  0.1972
  -4   5  22  51.525   0.395
  -3   5  22  0.8548  0.1732
  -2   5  22  26.781   0.320
  -1   5  22  0.9046  0.1796
   0   5  22  42.744   0.381
   1   5  22 -0.1562  0.1758
   2   5  22  0.1453  0.1732
   3   5  22  16.733   0.296
   4   5  22  4.9203  0.2288
 -11   6  22  4.6892  0.2560
 -10   6  22  17.462   0.299
  -9   6  22  1.6610  0.1982
  -8   6  22  4.1966  0.2172
  -7   6  22  0.2617  0.1906
  -6   6  22  1.3865  0.1955
  -5   6  22  15.960   0.267
  -4   6  22  8.2571  0.2403
  -3   6  22  29.406   0.332
  -2   6  22  20.776   0.288
  -1   6  22  59.906   0.467
   0   6  22  0.2564  0.1971
   1   6  22  13.321   0.262
   2   6  22  0.5431  0.1700
   3   6  22  8.8690  0.2555
  -9   7  22  2.3335  0.2002
  -8   7  22  7.1855  0.2326
  -7   7  22  0.9594  0.1915
  -6   7  22  12.375   0.258
  -5   7  22  0.1455  0.1861
  -4   7  22  11.554   0.253
  -3   7  22 -0.1001  0.1725
  -2   7  22  0.2697  0.1740
  -1   7  22  5.2717  0.2221
   0   7  22  12.271   0.260
   1   7  22  0.7680  0.1774
  -6   8  22  2.7940  0.2052
  -5   8  22  11.961   0.254
  -4   8  22  8.9480  0.2386
  -3   8  22  1.4245  0.1858
  -2   8  22  3.4811  0.2117
 -13   0  23  0.2830  0.3537
 -12   0  23  0.1282  0.2914
 -11   0  23  0.1834  0.3341
 -10   0  23 -0.1476  0.3107
  -9   0  23 -0.1408  0.2829
  -8   0  23  0.0872  0.2723
  -7   0  23  0.0167  0.2458
  -6   0  23 -0.0089  0.2434
  -5   0  23  0.0717  0.2373
  -4   0  23  0.3399  0.2321
  -3   0  23  0.4836  0.2294
  -2   0  23  0.7245  0.2379
  -1   0  23  0.5110  0.2420
   0   0  23  0.1193  0.2260
   1   0  23  0.1880  0.2282
   2   0  23  0.1927  0.2628
   3   0  23  0.0988  0.2713
   4   0  23  0.0475  0.2702
   5   0  23 -0.2407  0.2709
 -13   1  23  0.4161  0.2296
 -12   1  23  4.5342  0.2438
 -11   1  23  7.4896  0.2622
 -10   1  23  12.962   0.303
  -9   1  23  0.2148  0.2129
  -8   1  23  13.415   0.284
  -7   1  23  4.9366  0.2160
  -6   1  23  0.0574  0.1798
  -5   1  23  0.8708  0.1663
  -4   1  23  3.7647  0.1804
  -3   1  23  19.953   0.263
  -2   1  23  0.2805  0.1682
  -1   1  23  27.355   0.316
   0   1  23  11.345   0.243
   1   1  23  0.6303  0.1810
   2   1  23  0.2896  0.1847
   3   1  23  5.4465  0.2211
   4   1  23  0.2556  0.1972
   5   1  23  0.2090  0.2146
 -13   2  23  3.5326  0.2585
 -12   2  23  2.5155  0.2330
 -11   2  23  21.082   0.335
 -10   2  23  1.9791  0.2258
  -9   2  23  8.8674  0.2809
  -8   2  23  0.4153  0.2153
  -7   2  23  7.9624  0.2537
  -6   2  23  1.3643  0.1970
  -5   2  23  5.3602  0.2020
  -4   2  23  4.1918  0.1956
  -3   2  23 -0.0252  0.1774
  -2   2  23 -0.3396  0.1751
  -1   2  23  1.4496  0.1893
   0   2  23  10.558   0.239
   1   2  23  3.4897  0.1958
   2   2  23  0.3128  0.1750
   3   2  23 -0.1776  0.1769
   4   2  23  8.3806  0.2397
 -12   3  23  1.1766  0.2296
 -11   3  23  7.6775  0.2612
 -10   3  23  0.3008  0.2090
  -9   3  23  0.5375  0.2157
  -8   3  23  0.7002  0.2216
  -7   3  23  0.2783  0.2036
  -6   3  23 -0.2444  0.1945
  -5   3  23  1.1528  0.1845
  -4   3  23 -0.0950  0.1680
  -3   3  23  1.0464  0.1833
  -2   3  23  2.1017  0.1930
  -1   3  23  2.2852  0.1905
   0   3  23  1.8081  0.1906
   1   3  23  6.7648  0.2174
   2   3  23 -0.0184  0.1742
   3   3  23  5.0018  0.2172
   4   3  23  16.155   0.303
 -12   4  23  3.8722  0.2625
 -11   4  23  1.0767  0.2295
 -10   4  23  3.2547  0.2174
  -9   4  23  1.5180  0.2179
  -8   4  23  8.2229  0.2516
  -7   4  23  17.149   0.296
  -6   4  23  0.7089  0.1886
  -5   4  23  4.5949  0.2162
  -4   4  23  1.0842  0.1733
  -3   4  23  0.5819  0.1770
  -2   4  23  1.8676  0.1853
  -1   4  23  1.5608  0.1832
   0   4  23 -0.3606  0.1806
   1   4  23 -0.0110  0.1763
   2   4  23  15.453   0.257
   3   4  23  1.1328  0.1963
 -10   5  23  5.2509  0.2336
  -9   5  23  6.1956  0.2446
  -8   5  23  0.5600  0.2070
  -7   5  23  21.632   0.319
  -6   5  23 -0.1833  0.1926
  -5   5  23  14.495   0.275
  -4   5  23  0.1194  0.1926
  -3   5  23  0.0997  0.1751
  -2   5  23  5.4781  0.2150
  -1   5  23  1.1701  0.1995
   0   5  23  0.2685  0.1915
   1   5  23  0.1281  0.1817
   2   5  23  6.7564  0.2120
  -9   6  23  0.4119  0.1869
  -8   6  23  6.1802  0.2267
  -7   6  23  2.9461  0.2063
  -6   6  23  2.3016  0.2084
  -5   6  23  0.0557  0.1816
  -4   6  23  16.681   0.276
  -3   6  23  0.7911  0.1827
  -2   6  23  2.2277  0.1932
  -1   6  23  25.330   0.330
   0   6  23  0.4891  0.1823
  -6   7  23  12.785   0.278
  -5   7  23  5.0577  0.2164
  -4   7  23  16.542   0.283
  -3   7  23  4.0227  0.1968
 -12   0  24  4.0978  0.3467
 -11   0  24  36.292   0.613
 -10   0  24  0.5922  0.3277
  -9   0  24  2.1657  0.3050
  -8   0  24  36.065   0.595
  -7   0  24  15.201   0.447
  -6   0  24  10.739   0.344
  -5   0  24  27.408   0.436
  -4   0  24  17.398   0.349
  -3   0  24  38.003   0.464
  -2   0  24  5.4448  0.2655
  -1   0  24  3.2133  0.2648
   0   0  24  3.6349  0.2599
   1   0  24  6.5988  0.3195
   2   0  24  2.0011  0.2851
   3   0  24  27.510   0.515
 -12   1  24  7.2576  0.2687
 -11   1  24  7.6426  0.2666
 -10   1  24  15.890   0.315
  -9   1  24  1.4413  0.2200
  -8   1  24  11.843   0.280
  -7   1  24  46.974   0.422
  -6   1  24  26.971   0.322
  -5   1  24  6.9230  0.2158
  -4   1  24  3.8897  0.1807
  -3   1  24  28.013   0.304
  -2   1  24  18.180   0.264
  -1   1  24  13.106   0.240
   0   1  24  5.3361  0.2043
   1   1  24  0.4392  0.1805
   2   1  24  7.1436  0.2442
   3   1  24  1.2104  0.1949
 -11   2  24  10.345   0.271
 -10   2  24  12.759   0.295
  -9   2  24  7.0484  0.2712
  -8   2  24  45.118   0.441
  -7   2  24  28.193   0.358
  -6   2  24  1.1988  0.1911
  -5   2  24  0.1264  0.1857
  -4   2  24  4.1799  0.1940
  -3   2  24  8.3521  0.2279
  -2   2  24  14.731   0.276
  -1   2  24  19.021   0.285
   0   2  24  10.069   0.248
   1   2  24  2.3673  0.1924
   2   2  24  9.6019  0.2530
 -11   3  24  0.0955  0.2113
 -10   3  24  13.635   0.307
  -9   3  24  1.3174  0.2128
  -8   3  24  0.8835  0.2146
  -7   3  24  18.805   0.318
  -6   3  24  0.6792  0.1924
  -5   3  24  8.0237  0.2458
  -4   3  24  14.537   0.262
  -3   3  24  19.265   0.294
  -2   3  24  24.680   0.323
  -1   3  24  10.904   0.245
   0   3  24  22.391   0.317
   1   3  24 -0.0140  0.1871
   2   3  24  27.684   0.337
 -10   4  24 -0.1930  0.2122
  -9   4  24  1.9357  0.2225
  -8   4  24  5.9070  0.2588
  -7   4  24  11.719   0.282
  -6   4  24  7.9939  0.2460
  -5   4  24  0.0312  0.1853
  -4   4  24  7.6052  0.2442
  -3   4  24  6.0564  0.2220
  -2   4  24  9.3306  0.2297
  -1   4  24 -0.2333  0.1838
   0   4  24  0.4563  0.1864
   1   4  24  2.7523  0.1943
  -8   5  24  0.1980  0.1938
  -7   5  24  3.3053  0.2047
  -6   5  24 -0.1964  0.1957
  -5   5  24  7.3313  0.2359
  -4   5  24  10.013   0.250
  -3   5  24  19.178   0.297
  -2   5  24  2.6136  0.1941
  -1   5  24  11.030   0.253
 -10   0  25  0.1046  0.3162
  -9   0  25  0.3451  0.3112
  -8   0  25  0.3839  0.3134
  -7   0  25  0.0570  0.3088
  -6   0  25 -0.4404  0.2840
  -5   0  25 -0.5757  0.2487
  -4   0  25 -0.1282  0.2194
  -3   0  25 -0.2488  0.2305
  -2   0  25  0.6301  0.2335
  -1   0  25  0.0584  0.2452
   0   0  25  0.7921  0.2763
  -9   1  25  0.4205  0.2158
  -8   1  25  0.4664  0.2112
  -7   1  25  1.3195  0.2173
  -6   1  25  10.878   0.252
  -5   1  25  4.0865  0.2055
  -4   1  25  1.5274  0.1745
  -3   1  25  4.7735  0.1994
  -2   1  25  0.6537  0.1818
  -1   1  25  0.7840  0.1799
   0   1  25  0.0394  0.1829
  -9   2  25  1.3599  0.2188
  -8   2  25  1.1930  0.2111
  -7   2  25  3.7782  0.2287
  -6   2  25  3.1759  0.2068
  -5   2  25  8.0509  0.2376
  -4   2  25  8.1253  0.2196
  -3   2  25  7.3134  0.2139
  -2   2  25  1.8982  0.1832
  -1   2  25  0.2749  0.1731
   0   2  25  0.8684  0.1817
  -8   3  25  0.5695  0.2020
  -7   3  25  5.2476  0.2376
  -6   3  25  6.2936  0.2358
  -5   3  25  7.8837  0.2517
  -4   3  25  0.4867  0.2014
  -3   3  25  17.364   0.279
  -2   3  25  11.943   0.248
  -1   3  25  0.3793  0.1975
  -6   4  25  7.3683  0.2529
  -5   4  25  2.7533  0.2190
  -4   4  25  16.386   0.307
   0   0   0    0.00    0.00   0
;
_shelx_hkl_checksum              7947
loop_
_space_group_symop_operation_xyz
'x, y, z'
'-x, y+1/2, -z+1/2'
'-x, -y, -z'
'x, -y-1/2, z-1/2'
loop_
_atom_site_label
_atom_site_type_symbol
_atom_site_fract_x
_atom_site_fract_y
_atom_site_fract_z
_atom_site_U_iso_or_equiv
_atom_site_adp_type
_atom_site_occupancy
_atom_site_site_symmetry_order
_atom_site_calc_flag
_atom_site_refinement_flags_posn
S1 S 0.28987(2) 0.77144(2) 0.15420(2) 0.01027(2) Uani 1 1 d .
O1 O 0.25443(3) 0.82939(4) 0.26221(2) 0.01632(4) Uani 1 1 d .
O2 O 0.41890(3) 0.65838(5) 0.16197(3) 0.01752(4) Uani 1 1 d .
N1 N 0.14903(3) 0.65741(3) 0.06912(2) 0.01205(3) Uani 1 1 d D
O3 O -0.02099(3) 0.69215(4) -0.10461(2) 0.01256(3) Uani 1 1 d .
C1 C 0.27741(3) 0.96566(4) 0.05556(2) 0.01061(3) Uani 1 1 d .
C2 C 0.36401(3) 1.12964(5) 0.06738(2) 0.01453(4) Uani 1 1 d D
C3 C 0.33115(3) 1.26511(4) -0.02367(3) 0.01571(5) Uani 1 1 d D
C4 C 0.21656(4) 1.23591(4) -0.12141(2) 0.01489(4) Uani 1 1 d D
C5 C 0.12991(3) 1.07084(4) -0.13055(2) 0.01234(4) Uani 1 1 d D
C6 C 0.16221(3) 0.93583(4) -0.04052(2) 0.00969(3) Uani 1 1 d .
C7 C 0.08497(3) 0.75203(4) -0.03267(2) 0.00959(3) Uani 1 1 d .
H1A H 0.11314(9) 0.52481(5) 0.08468(11) 0.030(2) Uiso 1 1 d D
H2 H 0.44898(6) 1.1535(3) 0.14547(4) 0.035(3) Uiso 1 1 d D
H3 H 0.39491(6) 1.39452(6) -0.02601(18) 0.038(3) Uiso 1 1 d D
H4 H 0.1908(6) 1.34024(7) -0.19215(4) 0.030(2) Uiso 1 1 d D
H5 H 0.03949(6) 1.0462(3) -0.20459(4) 0.025(2) Uiso 1 1 d D
loop_
_atom_site_aniso_label
_atom_site_aniso_U_11
_atom_site_aniso_U_22
_atom_site_aniso_U_33
_atom_site_aniso_U_23
_atom_site_aniso_U_13
_atom_site_aniso_U_12
S1 0.01012(3) 0.01077(3) 0.00922(2) 0.00009(2) 0.00068(2) -0.00075(2)
O1 0.02216(10) 0.01703(9) 0.01024(7) -0.00107(6) 0.00464(6) -0.00203(8)
O2 0.01244(8) 0.01917(10) 0.01937(9) 0.00108(8) 0.00030(7) 0.00405(7)
N1 0.01269(7) 0.01007(7) 0.01182(7) 0.00178(5) -0.00055(6) -0.00292(6)
O3 0.01292(7) 0.01289(7) 0.01050(6) -0.00052(5) -0.00021(5) -0.00440(6)
C1 0.01047(7) 0.01075(8) 0.01037(7) -0.00044(6) 0.00184(6) -0.00259(6)
C2 0.01346(9) 0.01407(10) 0.01558(9) -0.00145(7) 0.00229(7) -0.00566(7)
C3 0.01723(11) 0.01243(9) 0.01852(11) -0.00049(8) 0.00626(9) -0.00578(8)
C4 0.01894(11) 0.01163(9) 0.01513(10) 0.00217(7) 0.00600(8) -0.00292(8)
C5 0.01513(9) 0.01147(8) 0.01046(7) 0.00141(6) 0.00296(6) -0.00176(7)
C6 0.01079(7) 0.00925(7) 0.00903(7) -0.00016(5) 0.00224(5) -0.00200(6)
C7 0.01011(7) 0.00928(7) 0.00910(7) -0.00047(5) 0.00160(6) -0.00180(6)
loop_
_atom_type_symbol
_atom_type_description
_atom_type_scat_dispersion_real
_atom_type_scat_dispersion_imag
_atom_type_scat_source
C C 0.0033 0.0016 'International Tables Vol C Tables 4.2.6.8 and 6.1.1.4'
H H 0.0000 0.0000 'International Tables Vol C Tables 4.2.6.8 and 6.1.1.4'
N N 0.0061 0.0033 'International Tables Vol C Tables 4.2.6.8 and 6.1.1.4'
O O 0.0106 0.0060 'International Tables Vol C Tables 4.2.6.8 and 6.1.1.4'
S S 0.1246 0.1234 'International Tables Vol C Tables 4.2.6.8 and 6.1.1.4'
loop_
_geom_angle_atom_site_label_1
_geom_angle_atom_site_label_2
_geom_angle_atom_site_label_3
_geom_angle
O2 S1 O1 117.442(18)
O2 S1 N1 109.356(16)
O1 S1 N1 110.095(16)
O2 S1 C1 112.902(16)
O1 S1 C1 111.645(15)
N1 S1 C1 92.570(12)
C7 N1 S1 115.254(17)
C2 C1 C6 122.54(2)
C2 C1 S1 127.58(2)
C6 C1 S1 109.877(19)
C1 C2 C3 116.61(2)
C4 C3 C2 121.43(2)
C5 C4 C3 120.86(2)
C6 C5 C4 117.93(2)
C5 C6 C1 120.63(2)
C5 C6 C7 126.77(2)
C1 C6 C7 112.60(2)
O3 C7 N1 124.41(2)
O3 C7 C6 125.89(2)
N1 C7 C6 109.69(2)
loop_
_geom_bond_atom_site_label_1
_geom_bond_atom_site_label_2
_geom_bond_distance
S1 O2 1.4336(3)
S1 O1 1.4340(3)
S1 N1 1.6682(2)
S1 C1 1.7572(3)
N1 C7 1.3726(3)
O3 C7 1.2247(3)
C1 C2 1.3874(4)
C1 C6 1.3909(4)
C2 C3 1.3993(4)
C3 C4 1.3992(5)
C4 C5 1.3952(4)
C5 C6 1.3885(4)
C6 C7 1.4795(4)
loop_
_geom_torsion_atom_site_label_1
_geom_torsion_atom_site_label_2
_geom_torsion_atom_site_label_3
_geom_torsion_atom_site_label_4
_geom_torsion
O2 S1 N1 C7 -116.14(2)
O1 S1 N1 C7 113.42(2)
C1 S1 N1 C7 -0.75(2)
O2 S1 C1 C2 -68.24(3)
O1 S1 C1 C2 66.66(3)
N1 S1 C1 C2 179.48(3)
O2 S1 C1 C6 112.86(2)
O1 S1 C1 C6 -112.24(2)
N1 S1 C1 C6 0.58(2)
C6 C1 C2 C3 -0.76(4)
S1 C1 C2 C3 -179.53(2)
C1 C2 C3 C4 0.05(5)
C2 C3 C4 C5 0.74(5)
C3 C4 C5 C6 -0.81(5)
C4 C5 C6 C1 0.12(4)
C4 C5 C6 C7 -179.95(3)
C2 C1 C6 C5 0.69(4)
S1 C1 C6 C5 179.65(2)
C2 C1 C6 C7 -179.25(3)
S1 C1 C6 C7 -0.29(3)
S1 N1 C7 O3 -178.65(2)
S1 N1 C7 C6 0.70(3)
C5 C6 C7 O3 -0.84(5)
C1 C6 C7 O3 179.10(3)
C5 C6 C7 N1 179.83(3)
C1 C6 C7 N1 -0.23(3)
