#------------------------------------------------------------------------------
#$Date: 2016-08-16 08:56:27 +0300 (Tue, 16 Aug 2016) $
#$Revision: 185820 $
#$URL: file:///home/coder/svn-repositories/cod/cif/7/22/62/7226246.cif $
#------------------------------------------------------------------------------
#
# This file is available in the Crystallography Open Database (COD),
# http://www.crystallography.net/
#
# All data on this site have been placed in the public domain by the
# contributors.
#
data_7226246
loop_
_publ_author_name
'Moeinian, Maryam'
'Akhbari, Kamran'
'Kawata, Satoshi'
'Ishikawa, Ryuta'
_publ_section_title
;
 Solid-state Conversion of Double Helix Thallium(I) Coordination Polymer
 to Corrugated Tape Silver(I) Polymer
;
_journal_name_full               'RSC Adv.'
_journal_paper_doi               10.1039/C6RA09423F
_journal_year                    2016
_chemical_formula_sum            'C8 H5 Cl2 O3 Tl'
_chemical_formula_weight         424.39
_space_group_crystal_system      monoclinic
_space_group_IT_number           14
_space_group_name_Hall           '-P 2ybc'
_space_group_name_H-M_alt        'P 1 21/c 1'
_symmetry_space_group_name_Hall  '-P 2ybc'
_symmetry_space_group_name_H-M   'P 1 21/c 1'
_atom_sites_solution_hydrogens   geom
_audit_creation_method           SHELXL-2014/7
_audit_update_record
;
2015-11-23 deposited with the CCDC.
2016-08-15 downloaded from the CCDC.
;
_cell_angle_alpha                90
_cell_angle_beta                 98.904(4)
_cell_angle_gamma                90
_cell_formula_units_Z            4
_cell_length_a                   17.903(2)
_cell_length_b                   3.9651(5)
_cell_length_c                   13.9329(16)
_cell_measurement_temperature    293(2)
_cell_volume                     977.1(2)
_computing_cell_refinement       'SAINT (Bruker, 2014)'
_computing_data_collection       BrukerAPEX2
_computing_data_reduction        'SAINT (Bruker, 2014)'
_computing_molecular_graphics    SHELXL
_computing_publication_material  SHELXL
_computing_structure_refinement  'SHELXL-2014/7 (Sheldrick, 2014)'
_computing_structure_solution    'SHELXL-2014/7 (Sheldrick, 2014)'
_diffrn_ambient_temperature      293(2)
_diffrn_measured_fraction_theta_full 0.888
_diffrn_measured_fraction_theta_max 0.884
_diffrn_measurement_device_type
;
Bruker D8 QUEST PHOTON 100
;
_diffrn_measurement_method       '\fand\w scans'
_diffrn_radiation_type           MoK\a
_diffrn_radiation_wavelength     0.71073
_diffrn_reflns_av_R_equivalents  0.0524
_diffrn_reflns_av_unetI/netI     0.0873
_diffrn_reflns_Laue_measured_fraction_full 0.888
_diffrn_reflns_Laue_measured_fraction_max 0.884
_diffrn_reflns_limit_h_max       19
_diffrn_reflns_limit_h_min       -22
_diffrn_reflns_limit_k_max       4
_diffrn_reflns_limit_k_min       -4
_diffrn_reflns_limit_l_max       17
_diffrn_reflns_limit_l_min       -15
_diffrn_reflns_number            3238
_diffrn_reflns_point_group_measured_fraction_full 0.888
_diffrn_reflns_point_group_measured_fraction_max 0.884
_diffrn_reflns_theta_full        25.242
_diffrn_reflns_theta_max         26.366
_diffrn_reflns_theta_min         3.005
_diffrn_source                   'fine-focus sealed tube'
_exptl_absorpt_coefficient_mu    17.049
_exptl_absorpt_correction_T_max  0.7457
_exptl_absorpt_correction_T_min  0.2283
_exptl_absorpt_correction_type   multi-scan
_exptl_absorpt_process_details   'SADABS 2014/5'
_exptl_crystal_colour            colourless
_exptl_crystal_density_diffrn    2.885
_exptl_crystal_description       block
_exptl_crystal_F_000             768
_exptl_crystal_size_max          0.500
_exptl_crystal_size_mid          0.110
_exptl_crystal_size_min          0.030
_refine_diff_density_max         4.271
_refine_diff_density_min         -3.016
_refine_diff_density_rms         0.392
_refine_ls_extinction_method     none
_refine_ls_goodness_of_fit_ref   1.003
_refine_ls_hydrogen_treatment    constr
_refine_ls_matrix_type           full
_refine_ls_number_parameters     127
_refine_ls_number_reflns         1748
_refine_ls_number_restraints     0
_refine_ls_restrained_S_all      1.003
_refine_ls_R_factor_all          0.0913
_refine_ls_R_factor_gt           0.0628
_refine_ls_shift/su_max          0.000
_refine_ls_shift/su_mean         0.000
_refine_ls_structure_factor_coef Fsqd
_refine_ls_weighting_details
'w=1/[\s^2^(Fo^2^)+(0.1091P)^2^] where P=(Fo^2^+2Fc^2^)/3'
_refine_ls_weighting_scheme      calc
_refine_ls_wR_factor_gt          0.1480
_refine_ls_wR_factor_ref         0.1623
_reflns_Friedel_coverage         0.000
_reflns_number_gt                1362
_reflns_number_total             1748
_reflns_threshold_expression     'I > 2\s(I)'
_cod_data_source_file            c6ra09423f2.cif
_cod_data_source_block           197cut_a
_cod_database_code               7226246
_shelx_shelxl_version_number     2014/7
_shelx_space_group_comment
;
The symmetry employed for this shelxl refinement is uniquely defined
by the following loop, which should always be used as a source of
symmetry information in preference to the above space-group names.
They are only intended as comments.
;
_shelx_estimated_absorpt_t_min   0.043
_shelx_estimated_absorpt_t_max   0.629
_shelx_res_file
;

    197cut_a.res created by SHELXL-2014/7

TITL 197cut_a.res in P2(1)/c
CELL  0.71073  17.9028   3.9651  13.9329   90.000   98.904   90.000
ZERR    4.000   0.0021   0.0005   0.0016    0.000    0.004    0.000
LATT 1
SYMM -X, 1/2+Y, 1/2-Z
SFAC C  H  O  Cl Tl
UNIT 32  20  12  8  4
L.S. 40
ACTA
BOND $H
FMAP 2
PLAN 10
SIZE 0.03 0.11 0.50
TEMP 20
WGHT    0.109100
FVAR       0.29421
TL1   5    0.054694    0.848105    0.137499    11.00000    0.02965    0.03834 =
         0.03009   -0.00004    0.00377   -0.00252
C1    1    0.095291    0.941562    0.403443    11.00000    0.02856    0.02123 =
         0.02831    0.00008   -0.00318   -0.00511
C2    1    0.175137    0.807864    0.421338    11.00000    0.02302    0.03793 =
         0.00598   -0.00503   -0.00897   -0.00235
AFIX  23
H2A   2    0.209672    0.993185    0.440181    11.00000   -1.20000
H2B   2    0.180062    0.648876    0.474859    11.00000   -1.20000
AFIX   0
C3    1    0.268891    0.525038    0.348463    11.00000    0.01638    0.02670 =
         0.02740   -0.00457    0.00178    0.00096
C4    1    0.290360    0.379126    0.266549    11.00000    0.03152    0.02639 =
         0.02424    0.00489    0.00118    0.00162
C5    1    0.362386    0.247123    0.269324    11.00000    0.04325    0.02226 =
         0.03081   -0.00287    0.01631    0.00142
AFIX  43
H5    2    0.377230    0.150830    0.214403    11.00000   -1.20000
AFIX   0
C6    1    0.410988    0.262784    0.355323    11.00000    0.02133    0.03721 =
         0.03658    0.00982    0.00442    0.00713
C7    1    0.390119    0.401455    0.437394    11.00000    0.04106    0.03164 =
         0.02547    0.00360    0.00364    0.00043
AFIX  43
H7    2    0.423615    0.404476    0.495501    11.00000   -1.20000
AFIX   0
C8    1    0.320081    0.533520    0.432341    11.00000    0.03138    0.04205 =
         0.02622   -0.00368    0.00284    0.00658
AFIX  43
H8    2    0.306221    0.633074    0.487404    11.00000   -1.20000
AFIX   0
CL1   4    0.227232    0.359592    0.158336    11.00000    0.04025    0.05573 =
         0.02604   -0.00780   -0.00178    0.00512
CL2   4    0.502522    0.099149    0.360411    11.00000    0.03132    0.05303 =
         0.05322   -0.00066    0.00065    0.01439
O1    3    0.082069    1.130855    0.471569    11.00000    0.03771    0.04813 =
         0.02898   -0.00471    0.00374    0.00924
O2    3    0.051126    0.861246    0.331056    11.00000    0.02663    0.05606 =
         0.02431   -0.00067   -0.00296    0.00503
O3    3    0.195826    0.646645    0.338969    11.00000    0.02050    0.04769 =
         0.02578   -0.00858    0.00194    0.00523
HKLF 4

REM  197cut_a.res in P2(1)/c
REM R1 =  0.0628 for    1362 Fo > 4sig(Fo)  and  0.0913 for all    1748 data
REM    127 parameters refined using      0 restraints

END

WGHT      0.1080      0.0000

REM Highest difference peak  4.271,  deepest hole -3.016,  1-sigma level  0.392
Q1    1   0.0985  0.8518  0.1143  11.00000  0.05    4.27
Q2    1   0.0137  0.8378  0.1654  11.00000  0.05    4.04
Q3    1   0.1512  0.8551  0.1010  11.00000  0.05    1.96
Q4    1  -0.0490  0.8608  0.1563  11.00000  0.05    1.39
Q5    1  -0.0005  0.5723  0.0976  11.00000  0.05    1.28
Q6    1   0.0626  0.8558  0.1974  11.00000  0.05    1.28
Q7    1   0.0393  1.2663  0.3015  11.00000  0.05    1.27
Q8    1   0.1039  1.1474  0.1791  11.00000  0.05    1.25
Q9    1   0.1890  0.3590  0.1810  11.00000  0.05    1.21
Q10   1   0.0663  1.1879  0.2433  11.00000  0.05    1.21
;
_shelx_res_checksum              17417
_shelx_hkl_file
;
   0   0   3    0.40    1.50
   0   0  -3   -0.40    1.30
   0   0   4 9928.41  517.15
   0   0  -4 9999.00  517.25
   0   0   5   -1.00    2.10
   0   0  -5    0.50    2.10
   0   0  -6 2662.93  136.09
   0   0   6 2561.94  136.09
   0   0   7    0.00    3.10
   0   0  -7   -1.30    2.80
   0   0  -9    1.90    4.30
   0   0   9    0.80    4.80
   0   0 -10 2930.41  152.68
   0   0  10 2889.71  152.98
   0   0  11   -0.60    6.90
   0   0 -11    1.10    5.30
   0   0  12  119.89   16.20
   0   0 -12  140.29   13.90
   0   0  13   -9.70    9.40
   0   1   0    3.90    2.90
   0  -1   0    0.50    2.70
   0  -1   1  486.95   26.90
   0  -1   2 3575.74  185.88
   0  -1   3  593.54   32.40
   0  -1   4   84.19    7.70
   0  -1   5  166.18   11.70
   0  -1   6 1920.81  101.29
   0  -1   7  392.96   23.60
   0  -1   8  377.46   23.40
   0  -1   9   14.10    7.00
   0  -1  10 1652.93   89.09
   0  -1  11  541.85   33.70
   0  -1  12  690.03   42.00
   0  -1  13    1.00   11.30
   0  -1  14  254.97   29.60
   0  -1  15  285.67   31.40
   0  -1  16  374.86   38.50
   0  -2   0  529.85   31.30
   0  -2  -1 2853.51  149.99
   0  -2   2   77.39   10.90
   0  -2   2   67.29   10.90
   0  -2   3  738.53   42.30
   0  -2   3  760.52   42.50
   0  -2   4  201.58   16.30
   0  -2   4  193.98   15.70
   0  -2   5 2183.78  114.89
   0  -2   5 2118.89  114.49
   0  -2   6   75.69   13.30
   0  -2   6   75.39   12.60
   0  -2   7  115.99   14.30
   0  -2   7  110.59   14.70
   0  -2  -7   96.19   27.60
   0  -2   8  151.18   16.50
   0  -2   9  958.10   54.99
   0   2  10    9.70  413.36
   0  -2  11   85.29   16.60
   0  -2  12   24.50   13.70
   0  -2  13  428.26   35.20
   0  -2  14   15.90   16.40
   0  -2  15   63.49   20.00
   0  -3   1  439.36   29.60
   0  -3  -1  417.46   31.60
   0  -3   1  434.86   31.50
   0  -3   2  103.99   16.40
   0  -3  -2   87.59   14.50
   0  -3   2   82.39   14.60
   0  -3   3  852.01   47.30
   0  -3  -3  637.94   78.59
   0  -3   3  807.62   48.00
   0  -3   4  -16.50   10.10
   0  -3   5  200.98   20.60
   0  -3   5  195.28   20.60
   0  -3  -5  217.48   46.20
   0  -3   6   44.50   12.40
   0  -3   6   79.29   14.30
   0  -3   7  674.33   43.80
   0  -3   8   39.70   13.60
   0  -3   9   76.99   15.80
   0  -3  10   54.59   15.70
   0  -3  11  397.76   34.90
   0  -3  12   25.70   17.10
   0  -3  13   14.10   19.30
   0  -4   0  597.24   54.99
   0  -4   0  799.32   48.70
   0  -4  -1  241.18   28.10
   0  -4   1  242.38   31.20
   0  -4  -1  155.38   28.80
   0  -4  -2    1.20   17.90
   0  -4  -2   -1.50   23.10
   0  -4   3   75.39   18.40
   0  -4  -3  122.39   21.00
   0  -4   4  413.36   35.00
   0  -4   5  272.67   30.50
   0  -4   6  132.59   21.40
   0  -4   7   21.40   16.20
   0  -4   8  187.38   29.40
   0  -4   9  131.19   23.60
   0  -4  10   95.69   21.40
  -1   0  17    6.40   16.30
  -1   0  15    0.00   11.70
  -1   0  14  164.58   20.60
   1   0 -14  201.58   21.30
  -1   0  13    7.90    9.30
   1   0 -13   11.20    8.10
   1   0 -12  563.54   32.50
  -1   0  12  507.35   33.10
  -1   0  11   -4.90    6.50
   1   0 -11   -5.20    5.20
  -1   0  10  209.28   16.00
   1   0 -10  194.08   15.10
   1   0  -9    0.00    4.20
  -1   0   9    4.00    4.90
   1   0  -8 2689.93  139.39
  -1   0   8 2635.84  139.39
   1   0  -7   -0.90    2.60
  -1   0   7    0.20    3.40
  -1   0   6   14.30    3.70
   1   0  -6    8.30    3.30
  -1   0   5    1.30    2.20
   1   0  -5    2.00    2.10
   1   0  -4 6983.10  362.76
  -1   0   3    2.40    1.60
   1   0  -3    1.60    1.50
   1   0  -2   14.70    3.20
  -1   0   2    8.50    2.40
  -1   0  -8  266.77   16.30
  -1  -1  16  168.48   31.50
  -1  -1  15  219.68   28.90
  -1  -1  13   11.40   10.30
  -1  -1  12  123.29   16.80
   1   1 -11  311.97   21.90
  -1  -1  11  305.67   22.30
   1   1 -10  800.72   45.80
  -1  -1  10  832.62   46.30
   1   1  -9   72.69    9.50
  -1  -1   9   63.59   10.00
   1   1  -8  146.69   11.70
  -1  -1   8  147.79   12.70
   1   1  -7  920.31   50.19
  -1  -1   7  937.01   50.39
   1   1  -6 1504.95   80.29
  -1  -1   6 1531.95   80.39
   1   1  -5  349.96   20.10
  -1  -1   5  347.67   20.10
   1   1  -4  273.67   16.20
  -1  -1   4  277.47   16.20
   1   1  -3 1413.56   76.69
  -1  -1   3 1506.35   76.79
  -1  -1   2  926.11   47.40
   1  -1  -2  859.21   47.80
  -1   1   1  196.68   11.80
   1  -1  -1  192.88   11.90
  -1  -1   0  149.39    9.40
   1  -1   0  143.89    9.90
  -1   1  -1  832.02   45.60
   1  -1   1  860.61   45.50
   1  -1   2 2358.56  123.49
   1  -1   3 3058.09  166.08
   1  -1   3 3313.67  166.38
   1  -1   4  985.50   52.99
   1  -1   5  196.48   13.70
   1  -1   6 1010.60   54.89
   1  -1   7 2403.36  126.69
   1  -1   8  865.71   48.20
   1  -1  10  537.05   33.30
   1  -1  11 1314.77   72.99
   1  -1  12  523.65   34.80
   1  -1  13   70.49   14.30
   1  -1  14   37.90   14.80
   1  -1  15  263.47   30.40
   1  -1  16  411.86   40.80
  -1  -2  15   44.90   19.50
  -1  -2  14   46.30   16.60
  -1  -2  13  830.02   52.49
  -1  -2  12   69.99   14.30
  -1  -2  11   50.09   16.40
  -1   2  10  106.59  435.26
  -1  -2  10   86.49   15.80
  -1  -2   9 1865.51  100.79
  -1   2   8  536.45  401.46
  -1  -2   8  184.08   16.80
   1  -2  -8  187.88   40.20
   1  -2  -7 1276.87   83.19
  -1  -2   7 1336.07   71.29
   1  -2  -6   -3.90   22.40
  -1  -2   6    7.80    6.90
   1  -2  -5 3424.16  178.08
  -1  -2   5 3142.09  172.28
  -1  -2   4  386.36   24.00
  -1  -2   3 3532.25  172.78
  -1  -2   3 3362.66  172.28
   1  -2  -3 2962.30  172.38
  -1   2   2  108.19   11.60
  -1  -2   2   86.39   11.80
  -1  -2   2  105.19   11.00
   1  -2  -2   91.79   11.60
  -1   2   1 1285.27   68.09
  -1  -2   1 1336.17   68.79
  -1  -2   1 1227.48   67.79
   1  -2  -1 1202.18   68.19
  -1   2   0  576.34   31.90
  -1  -2   0  520.25   31.80
   1  -2   0  533.35   32.60
   1  -2   1 6317.47  329.27
   1  -2   2   90.59   11.60
  -1  -2  -3   39.80   18.80
   1  -2   3   35.60    7.40
   1  -2   4  325.87   22.70
   1  -2   4  354.56   23.10
   1  -2   5 3687.93  194.18
   1  -2   5 3693.93  193.98
  -1  -2  -6  188.38   35.40
   1  -2   6  218.38   18.00
   1  -2   6  223.48   18.40
  -1  -2  -7  141.99   38.00
   1  -2   7  192.28   17.50
   1  -2   7  195.98   18.10
   1  -2   8   11.90    9.90
   1  -2   8   17.70    9.60
   1  -2   9  907.81   53.69
   1  -2   9  900.71   52.89
   1  -2  10   85.09   15.10
   1  -2  10  110.69   18.50
   1  -2  11  179.38   28.80
   1  -2  12   14.60   14.10
   1  -2  13  365.06   34.30
   1  -2  14   62.79   18.90
   1  -2  15  134.69   24.00
  -1  -3  13   28.80   18.70
  -1  -3  12   17.20   16.20
  -1  -3  11  349.17   29.80
  -1  -3  10   34.10   14.10
  -1  -3   9  121.99   17.30
  -1  -3   8   -1.60   10.50
  -1  -3   7  637.94   40.90
   1  -3  -6    1.90   36.20
  -1  -3   6   34.80   11.60
  -1  -3   6   21.20   10.70
   1  -3  -5  365.76   57.99
  -1  -3   5  411.36   30.90
  -1  -3   5  479.95   31.10
  -1  -3   4  -11.40   11.20
  -1  -3   4    0.80   10.60
   1  -3  -4  -31.70   34.00
  -1   3   3  610.44   35.00
   1  -3  -3  492.05   36.00
  -1  -3   3  554.64   34.70
  -1  -3   3  485.05   35.90
  -1  -3   2   46.70   11.30
  -1  -3   2   15.90   12.80
   1  -3  -2   39.10   13.30
  -1  -3   1 1013.90   58.29
  -1  -3   1 1010.60   56.79
   1  -3  -1  948.11   58.09
  -1  -3   0   26.90   12.00
   1  -3   0    3.00   12.00
  -1  -3   0    6.20   10.90
  -1  -3  -1  328.67   24.30
   1  -3   1  268.67   24.90
  -1  -3  -1  285.37   25.60
   1  -3   2   25.80   11.20
  -1  -3  -2    5.10   11.90
   1  -3   2    4.80   11.20
  -1  -3  -2  -38.80   39.90
   1  -3   3 1714.93   95.79
   1  -3   3 1753.62   95.19
   1  -3   4   33.70   12.10
   1  -3   4   11.40   15.80
   1  -3   5   56.09   12.50
   1  -3   5   78.59   13.50
   1  -3   6   14.80   11.70
   1  -3   6    3.90   11.30
   1  -3   7  894.51   62.09
   1  -3   8   37.40   13.60
   1  -3   9   35.90   14.40
   1  -3  10   23.10   14.80
   1  -3  11  483.05   37.50
   1  -3  12    5.50   17.00
   1  -3  13  145.69   30.50
  -1  -4  10   19.60   18.10
  -1  -4   9   64.49   18.80
  -1  -4   8  247.98   30.40
  -1  -4   7   51.29   17.30
  -1  -4   6   24.30   17.40
  -1  -4   5  129.29   26.10
  -1  -4   4  405.96   39.20
  -1  -4   3  165.28   27.00
   1  -4  -3  103.39   26.30
   1  -4  -2   20.70   24.20
   1  -4  -1    4.30   23.90
  -1  -4   1   35.80   17.90
  -1  -4   1    7.00   27.90
   1  -4  -1   38.30   17.50
  -1  -4   0  412.16   37.20
   1  -4   0  435.76   36.00
  -1  -4  -1  195.38   30.50
   1  -4   1  179.28   33.80
  -1  -4  -1  162.08   28.10
  -1  -4  -2  158.78   28.70
   1  -4   2  160.08   24.90
   1  -4   3  -18.80   14.80
   1  -4   4  118.59   20.10
   1  -4   5  134.39   26.30
   1  -4   6  247.48   29.20
   1  -4   7   -4.20   16.30
   1  -4   8   53.29   18.50
   1  -4   9   70.69   19.50
   1  -4  10  101.39   21.60
  -2   0  17   16.70   17.20
  -2   0  15    0.70   11.90
   2   0 -15    6.90   11.80
  -2   0  14  111.99   18.40
   2   0 -14   84.79   16.30
  -2   0  13    4.10    8.40
   2   0 -13   -7.30    7.80
   2   0 -12 3090.79  158.78
  -2   0  12 2919.31  159.18
   2   0 -11    3.10    5.80
  -2   0  11   -1.10    6.60
  -2   0  10    5.50    6.00
   2   0 -10   -3.20    4.90
   2   0  -9    0.70    4.00
  -2   0   9   -1.50    4.70
  -2   0   8 3606.64  188.28
   2   0  -7    5.20    3.20
  -2   0   7    0.10    3.40
  -2   0   6  189.38   12.30
   2   0  -6  203.38   12.30
  -2   0   5    0.30    2.40
   2   0  -5    4.40    2.20
  -2   0   4 5909.11  313.77
   2   0  -4 6196.38  314.37
   2   0  -3   -0.30    1.90
  -2   0   3   -0.90    1.90
   2   0  -2 2536.35  130.99
  -2   0   2 2502.95  131.09
  -2  -1  17  -23.80   18.80
  -2  -1  16  149.19   22.40
  -2  -1  15  183.68   27.10
   2   1 -13   55.79   11.40
  -2  -1  13   75.39   12.80
   2   1 -12  222.08   19.80
  -2  -1  12  245.88   19.90
  -2   1  11  -96.99  411.96
   2   1 -10 1177.88   65.49
  -2  -1  10 1221.68   65.59
  -2   1   9  -42.30  397.16
   2   1  -8  122.29   10.40
  -2  -1   8  106.19   10.30
   2   1  -7  202.48   13.50
  -2  -1   7  195.58   13.50
   2   1  -6 2607.24  137.79
  -2  -1   6 2659.03  137.79
   2   1  -5  469.95   26.30
  -2  -1   5  472.35   26.20
   2   1  -4  365.86   19.80
  -2   1   4  322.07   22.80
  -2  -1   4  360.96   19.50
   2  -1  -4  321.57   22.40
  -2   1   3   93.09   11.10
   2   1  -3   70.29    6.20
   2  -1  -3   53.99   10.50
  -2  -1   3   66.79    5.90
   2   1  -2 7654.73  388.66
   2  -1  -2 7365.66  389.56
   2   1  -1 1433.56   75.79
   2  -1  -1 1462.25   76.39
  -2   1   0 4167.68  205.78
  -2  -1   0 3528.45  204.58
   2  -1   0 4165.08  205.58
  -2   1  -1  512.95   29.10
   2  -1   1  531.05   29.10
  -2   1  -2 4037.20  214.08
   2  -1   2 4189.48  214.28
   2  -1   3 2521.25  132.29
   2  -1   4 4145.99  216.18
   2  -1   5   -0.10    4.80
   2  -1   5    2.70    5.40
   2  -1   6 1085.69   60.39
   2  -1   6 1145.69   60.69
   2  -1   7  682.53   40.30
   2  -1   7  739.13   40.60
   2  -1   8 3215.88  169.18
   2  -1   9  197.48   17.50
   2  -1  10   -2.20    8.50
   2  -1  11  152.98   20.60
   2  -1  11  166.08   19.40
   2  -1  12  981.80   57.49
   2  -1  13  161.78   22.50
   2  -1  14  101.59   18.20
   2  -1  15   33.40   16.80
   2  -1  16  370.26   39.10
  -2  -2  15   92.19   19.50
  -2  -2  14   43.70   16.40
  -2  -2  13  466.65   34.80
  -2  -2  12  107.39   15.30
  -2  -2  11  486.85   41.00
  -2  -2  10    4.70    8.70
  -2  -2   9  414.96   27.60
  -2   2   8  438.26  414.06
  -2  -2   7 1346.67   73.19
   2  -2  -7 1352.36   83.89
  -2  -2   6   33.60    7.10
   2  -2  -6   16.10   24.40
   2  -2  -5  475.55   35.60
  -2  -2   5  463.75   28.20
  -2   2   4  417.86   24.60
   2  -2  -4  395.06   31.50
   2  -2  -4  399.66   28.90
  -2  -2   4  432.26   24.90
  -2   2   3 2302.17  122.79
  -2  -2   3 2396.56  122.99
   2  -2  -3 2302.57  123.99
  -2   2   2  153.88   12.40
  -2  -2   2  131.09   11.60
   2  -2  -2  127.69   13.40
  -2  -2   2  152.88   13.10
  -2   2   1   37.60    7.10
  -2  -2   1   24.60    5.90
  -2  -2   1   27.00    7.10
   2  -2  -1   40.30   10.10
  -2   2   0  264.27   17.20
  -2  -2   0  200.58   16.90
   2  -2   0  241.88   17.70
  -2  -2   0  200.88   15.10
  -2   2  -1 3126.69  167.78
   2  -2   1 3263.97  168.18
   2  -2   2  228.18   16.90
  -2  -2  -2  190.38   25.10
   2  -2   3  102.19   12.60
  -2  -2  -3   98.19   22.80
  -2  -2  -4   32.70   20.80
   2  -2   4   23.70    7.90
   2  -2   5 1502.15   84.99
  -2  -2  -5 1717.63   96.89
   2  -2   5 1494.55   84.99
   2  -2   6  295.77   22.40
   2  -2   6  302.67   22.40
  -2  -2  -6  309.37   44.30
   2  -2   7  487.15   31.20
   2  -2   7  465.75   30.70
   2  -2   8   12.30   10.90
   2  -2   8   14.00   10.10
   2  -2   9  413.86   30.40
   2  -2   9  421.26   30.50
   2  -2  10  229.88   24.60
   2  -2  10  278.07   24.60
   2  -2  12   -6.90   14.10
   2  -2  13  195.08   28.50
   2  -2  14   58.69   21.30
   2  -2  15  108.59   24.30
  -2  -3  13   21.80   16.60
  -2  -3  12   31.00   14.80
  -2  -3  11  273.07   27.50
  -2  -3  10   62.29   14.20
  -2  -3   9  286.07   24.30
  -2  -3   8   43.10   12.20
  -2  -3   7  334.77   25.60
  -2  -3   6  139.09   19.80
  -2  -3   6  159.28   18.20
  -2  -3   5  953.30   53.99
  -2  -3   5  888.91   54.39
  -2   3   4    9.60   10.50
  -2  -3   4   -6.70   10.90
  -2  -3   4   10.20    9.90
   2  -3  -4  -22.20   33.50
  -2   3   3  236.38   21.60
   2  -3  -3  210.18   23.70
  -2  -3   3  201.88   21.90
  -2  -3   3  208.48   19.80
  -2   3   2  308.17   23.40
  -2  -3   2  229.18   24.60
   2  -3  -2  303.47   25.90
  -2  -3   2  293.27   22.60
  -2   3   1 1741.03   96.19
  -2  -3   1 1780.82   95.89
   2  -3  -1 1734.13   97.39
  -2  -3   1 1817.42   97.39
  -2  -3   0   45.30   13.50
   2  -3   0   34.50   13.80
  -2  -3   0   31.30   10.80
  -2  -3  -1    6.30   10.20
   2  -3   1   -5.60   11.70
  -2  -3  -1   -2.00   10.70
   2  -3   2  263.37   23.60
   2  -3   3 1928.81  108.19
   2  -3   4  136.69   17.90
   2  -3   4   86.79   18.30
   2  -3   5   42.60   12.30
   2  -3   5   18.70   11.20
   2  -3   6   73.19   14.80
   2  -3   8  147.99   21.40
   2  -3   9  313.47   29.90
   2  -3  10   14.50   15.80
   2  -3  11  277.37   30.90
   2  -3  12   51.29   19.30
   2  -3  13  196.48   33.00
  -2  -4  10   -8.70   17.30
  -2  -4   9   76.69   19.70
  -2  -4   8  148.79   28.00
  -2  -4   7  154.48   27.40
  -2  -4   6   39.50   16.90
  -2  -4   5   89.49   18.30
  -2  -4   4  338.07   31.30
   2  -4  -4  277.97   48.60
   2  -4  -3  204.08   43.00
  -2  -4   3  258.07   31.30
  -2  -4   2  133.69   23.10
   2  -4  -1   -8.80   35.00
  -2  -4   1  -11.00   20.90
  -2  -4   1    9.60   15.90
  -2  -4   0  189.88   30.80
  -2  -4   0  314.87   30.00
  -2  -4  -1  349.27   32.30
   2  -4   2  110.39   19.60
   2  -4   3    1.20   15.00
   2  -4   4  130.19   20.90
   2  -4   5  162.48   26.00
   2  -4   6  184.68   27.60
   2  -4   7   24.40   17.10
   2  -4   8   29.70   18.40
   2  -4   9  106.89   20.70
  -3   0  17    2.70   16.90
  -3   0  16  638.74   44.90
  -3   0  15   -8.10   12.20
   3   0 -15   14.60   12.80
   3   0 -14   27.80   10.90
  -3   0  14   37.90   12.20
  -3   0  13    4.70    8.80
   3   0 -13  -11.60    8.20
  -3   0  12 1519.15   84.59
   3   0 -12 1583.34   84.09
   3   0 -11   -1.40    5.90
  -3   0  11    1.00    6.10
   3   0 -10  349.87   21.30
  -3   0  10  334.27   22.10
  -3   0   9    1.50    4.70
   3   0  -9    2.20    4.10
  -3   0   8 1314.37   71.49
   3   0  -8 1359.46   71.29
  -3   0   7    0.50    3.70
   3   0  -7    0.40    3.30
  -3   0   6 2446.66  130.79
   3   0  -6 2553.84  130.69
  -3   0   5    1.50    2.70
   3   0  -5   -2.50    2.20
  -3   0   4  838.72   45.10
   3   0  -4  857.01   45.10
   3   0  -3   -2.10    2.40
   3   0  -2 1347.57   70.39
  -3   0   2 1331.67   70.39
   3   0  -1   -2.90    3.40
  -3   0   1    0.00    3.10
  -3   0   0  546.15   32.90
   3   0   0  649.04   33.20
   3   0   1    0.20    2.30
  -3   0  -1    2.60    2.20
  -3  -1  17    5.60   18.50
  -3  -1  16    5.80   16.60
  -3  -1  15  339.67   31.10
  -3  -1  14  312.37   28.20
   3   1 -13   34.40   17.10
  -3  -1  13   23.10   10.80
   3   1 -12   23.20    9.10
  -3  -1  12   24.90    9.30
  -3   1  11  206.98  441.16
   3   1 -11  517.85   31.40
  -3  -1  11  502.45   31.20
   3   1 -10 1016.80   56.09
  -3   1  10  431.86  423.16
  -3  -1  10 1025.30   55.89
  -3   1   9  386.76  390.66
   3   1  -9  763.12   43.70
  -3  -1   9  776.72   43.70
   3  -1  -9  817.62   43.40
  -3   1   8  251.87   26.70
   3   1  -8  295.37   18.10
  -3  -1   8  292.07   17.80
   3  -1  -8  262.47   18.60
   3   1  -7  276.67   17.30
   3  -1  -7  275.97   17.60
   3   1  -6 1496.15   80.99
   3  -1  -6 1606.64   81.59
  -3  -1   6 1486.15   80.79
   3   1  -5 2462.25  140.19
   3  -1  -5 2736.63  140.99
  -3  -1   5 2824.62  139.69
   3   1  -4 1877.31   91.59
   3  -1  -4 1513.05   93.39
  -3  -1   4 1830.62   91.39
  -3   1   3   22.80    5.70
   3   1  -3   14.80    3.10
  -3  -1   3   16.60    3.10
   3  -1  -3   23.40    6.80
   3   1  -2 2718.23  140.29
  -3   1   2 2677.03  141.29
  -3  -1   2 2704.83  140.19
   3  -1  -2 2685.93  141.79
   3   1  -1 6305.77  330.37
  -3   1   1 6365.06  331.07
   3  -1  -1 6478.15  331.27
  -3   1   0 2865.91  154.48
   3  -1   0 3059.59  154.68
  -3   1  -1  393.86   23.20
   3  -1   1  414.66   23.20
  -3   1  -2  279.97   17.90
   3  -1   2  293.57   17.80
  -3   1  -3 2789.22  149.49
   3  -1   3 2917.41  149.59
   3  -1   4 4864.71  253.47
   3  -1   5  778.92   43.50
   3  -1   6   61.29    9.90
   3  -1   6   64.99   11.00
   3  -1   7  355.06   22.80
   3  -1   7  341.17   23.20
   3  -1   8 1603.54   88.29
   3  -1   8 1664.83   88.29
   3  -1   9  849.41   50.09
   3  -1   9  895.11   50.39
   3  -1  10  181.78   19.50
   3  -1  10  177.78   19.40
   3  -1  11   99.59   15.10
   3  -1  11  122.99   19.70
   3  -1  12  569.94   39.00
   3  -1  13  237.68   26.60
   3  -1  13  283.87   30.50
   3  -1  14  195.48   26.50
   3  -1  15   -7.00   17.10
   3  -1  16  100.99   22.60
  -3  -2  15  244.28   30.10
  -3  -2  14   10.00   13.40
  -3  -2  13  201.88   23.90
  -3  -2  12   82.89   17.30
  -3   2  11  375.76  496.95
  -3   2  10 -179.28  446.56
  -3  -2  10    3.80    8.20
  -3   2   9   12.60  444.26
  -3   2   8  368.06  435.96
  -3  -2   8  168.38   15.30
   3  -2  -8  200.28   36.40
  -3  -2   7 1114.19   63.09
   3  -2  -7 1206.68   73.69
   3  -2  -6   46.40   23.80
  -3  -2   6   47.20    9.30
  -3   2   5  248.88   16.80
   3  -2  -5  181.78   25.00
  -3  -2   5  200.78   15.30
  -3  -2   4   39.90    8.00
   3  -2  -4   36.80   18.80
  -3   2   3 1368.56   72.99
  -3  -2   3 1353.26   72.59
  -3   2   2   47.90    9.40
  -3  -2   2   44.70    7.50
   3  -2  -2   38.50   11.20
  -3   2   1   86.19   10.40
  -3  -2   1   68.29    8.00
   3  -2  -1   60.29   10.70
  -3  -2   0   61.69    8.10
  -3  -2   0   73.79   10.80
  -3   2  -1 3261.37  176.08
   3  -2   1 3447.66  176.48
  -3   2  -2  376.96   24.80
   3  -2   2  391.56   24.80
   3  -2   3   95.59   13.00
   3  -2   5 2216.18  118.39
   3  -2   5 2206.48  118.39
   3  -2   6  279.37   21.40
   3  -2   6  248.78   20.40
   3  -2   7  604.44   37.90
   3  -2   7  631.64   38.40
   3  -2   8   51.19   12.40
   3  -2   8   54.19   19.50
   3  -2   9 1274.57   73.39
   3  -2   9 1317.27   73.89
   3  -2  10  126.69   21.50
   3  -2  10   77.79   16.00
   3  -2  12  -10.90   16.00
   3  -2  13  210.68   30.30
   3  -2  14   45.80   22.00
   3  -2  15  283.77   40.30
  -3  -3  13   96.79   19.40
  -3  -3  12   -6.90   13.30
  -3  -3  11  234.38   25.40
  -3  -3  10   47.00   13.60
  -3  -3   9  781.72   47.80
  -3  -3   8   33.30   11.50
  -3  -3   7  153.98   18.70
  -3   3   5 1409.06   74.69
   3  -3  -5 1191.28   79.79
  -3  -3   5 1441.06   74.59
  -3  -3   5 1322.77   75.99
  -3   3   4  126.99   18.40
  -3  -3   4  148.39   16.70
   3  -3  -4  135.59   26.30
  -3  -3   4  114.99   19.10
  -3   3   3   10.90   10.10
  -3  -3   3    2.20   11.00
   3  -3  -3   16.20   13.90
  -3  -3   3   10.40    8.80
   3  -3  -2   71.59   14.50
  -3  -3   2   38.10   13.00
  -3  -3   2   63.09   11.30
  -3   3   1 1923.21  109.19
  -3  -3   1 2151.38  110.89
  -3  -3   1 2051.59  108.59
   3  -3  -1 1972.20  110.79
  -3   3   0  201.28   20.50
  -3  -3   0  232.98   22.30
   3  -3   0  180.18   23.00
  -3  -3   0  231.38   19.10
   3  -3   1  248.88   24.50
   3  -3   2   13.70   12.40
   3  -3   3  796.52   55.39
   3  -3   4  123.79   18.50
   3  -3   4  151.18   19.00
   3  -3   5  403.26   31.10
   3  -3   5  437.46   30.70
   3  -3   6   -9.30   11.40
   3  -3   7  247.98   25.90
   3  -3   8   93.59   16.70
   3  -3   9  478.25   37.70
   3  -3  10   13.90   16.10
   3  -3  11   89.29   20.10
   3  -3  12   -2.40   18.40
   3  -3  13  171.98   34.10
  -3  -4  10   43.00   18.40
  -3  -4   9   11.40   18.00
  -3  -4   8   68.59   18.00
   3  -4  -7   95.69   34.90
  -3  -4   7   80.59   19.70
  -3  -4   6  128.89   24.60
   3  -4  -6   26.10   34.10
  -3   4   5    1.80   16.30
  -3  -4   5    3.80   14.00
   3  -4  -4   95.69   33.10
  -3  -4   4  130.69   20.70
   3  -4  -3  137.89   33.50
  -3  -4   3  192.58   37.00
  -3  -4   2  230.08   28.20
  -3  -4   1   50.49   17.70
  -3  -4   1   20.50   21.60
  -3  -4   0   44.10   18.30
  -3  -4   0   10.90   21.00
  -3  -4  -1  260.17   28.60
   3  -4   2  183.28   26.10
   3  -4   3   27.80   15.50
   3  -4   4   -8.80   14.40
   3  -4   5  118.99   24.00
   3  -4   6  125.39   23.70
   3  -4   7   54.19   18.00
   3  -4   8    3.20   17.50
   3  -4   9   34.40   20.00
  -4   0  17   -6.60   17.70
  -4   0  16  471.05   38.30
  -4   0  15    2.10   13.40
   4   0 -14   75.59   13.50
  -4   0  14   92.09   14.50
  -4   0  13   -2.20    8.80
   4   0 -12  886.41   49.99
  -4   0  12  880.31   50.89
   4   0 -11    4.50    5.80
  -4   0  11    0.40    6.40
   4   0 -10  158.38   12.90
  -4   0  10  157.08   13.60
   4   0  -9   -1.60    4.70
  -4   0   9    3.50    4.70
  -4   0   8 1729.83   94.09
   4   0  -8 1818.82   93.89
  -4   0   7    0.50    3.60
   4   0  -7    0.00    3.40
   4   0  -6 1065.89   55.79
  -4   0   6 1020.70   55.89
   4   0  -5   -6.00    2.60
  -4   0   5   -2.90    2.80
  -4   0   4 2976.50  156.48
   4   0  -4 3024.20  156.48
   4   0  -3   -2.50    2.90
  -4   0   3   -0.30    2.70
   4   0  -2 2117.49  111.29
  -4   0   1   -5.90    4.10
   4   0  -1   -4.00    4.80
   4   0   0  940.41   48.70
  -4   0   0  822.22   48.30
   4   0   1    4.80    3.60
  -4   0  -1    3.00    3.00
  -4  -1  17   55.29   19.90
  -4  -1  16    4.50   15.10
  -4  -1  15   50.89   15.50
  -4   1  14  558.94   54.39
  -4  -1  14  690.93   42.60
   4  -1 -14  678.63   40.10
  -4   1  13  245.58   32.00
  -4  -1  13  235.78   21.80
  -4   1  12  160.28   25.20
   4   1 -12  154.78   16.80
  -4  -1  12  142.49   16.50
   4  -1 -12  165.58   15.90
  -4   1  11   -8.70   16.80
  -4   1  11 -432.96  476.15
   4  -1 -11    9.80    6.50
  -4  -1  11   14.20    7.60
  -4   1  10 1055.99   66.39
   4   1 -10 1045.10   58.89
  -4   1  10  336.77  464.15
   4  -1 -10 1141.69   58.79
  -4  -1  10 1054.49   58.79
   4   1  -9 1193.98   65.69
  -4   1   9  578.44  460.75
  -4   1   9 1196.38   72.09
  -4  -1   9 1197.38   65.49
   4  -1  -9 1281.27   65.69
  -4   1   8  998.70   62.89
   4   1  -8 1045.70   56.59
  -4  -1   8 1041.30   56.39
   4  -1  -8 1075.29   56.79
   4   1  -7   -3.00    3.90
   4  -1  -7   -8.30    6.10
  -4  -1   7   -0.20    3.70
   4   1  -6 1613.94   86.69
  -4  -1   6 1631.54   86.59
   4  -1  -6 1674.33   87.89
  -4   1   5 1445.56   94.49
   4  -1  -5 1816.72   92.49
  -4  -1   5 1871.61   90.39
   4   1  -4 3658.33  180.48
  -4  -1   4 3724.13  180.38
   4  -1  -4 3007.50  182.58
   4   1  -3  734.63   36.30
  -4   1   3  658.83   39.30
   4  -1  -3  619.64   39.40
  -4   1   2  298.47   18.90
   4   1  -2  281.97   16.50
   4  -1  -2  296.67   19.70
   4   1  -1 1219.08   66.59
  -4   1   1 1313.27   68.09
   4  -1  -1 1282.47   67.99
  -4   1   0 3440.06  184.38
   4  -1   0 3632.24  184.58
  -4   1  -1 1883.31  101.79
   4  -1   1 1982.40  101.89
  -4   1  -2   75.19    8.90
   4  -1   2   71.59    8.10
  -4   1  -3  420.96   25.30
   4  -1   3  428.16   25.10
   4  -1   4 4300.87  224.68
   4  -1   5 1876.11  101.19
   4  -1   6  298.97   20.20
   4  -1   6  296.67   21.00
   4  -1   7    2.70    7.10
   4  -1   7    0.30    8.20
   4  -1   8  996.50   56.49
   4  -1   8 1015.50   56.89
   4  -1   9  550.54   34.30
   4  -1   9  535.65   35.00
   4  -1  10  309.27   25.40
   4  -1  10  332.77   25.70
   4  -1  11   -7.40   11.50
   4  -1  11   -3.40   12.10
   4  -1  12  280.47   27.70
   4  -1  12  274.37   41.20
   4  -1  13  136.99   19.90
   4  -1  13  115.29   19.90
   4  -1  14  147.79   21.00
   4  -1  15   21.20   18.40
   4  -1  16  108.49   22.70
  -4  -2  15  433.16   37.80
  -4  -2  14   26.30   14.40
  -4  -2  13   11.20   11.50
  -4  -2  12   84.59   13.80
  -4   2  11  470.65  528.75
  -4   2  10 -432.06  477.35
  -4   2   9 -228.08  481.35
   4   2  -9   11.40    7.70
  -4  -2   9   -7.90    6.80
  -4   2   8  278.17  474.95
  -4   2   7  857.31  459.75
  -4   2   7 1057.59   57.09
   4   2  -7  959.30   54.09
  -4  -2   7  996.50   53.79
   4  -2  -7  890.71   57.49
   4   2  -6  239.28   16.60
   4  -2  -6  192.58   25.10
  -4  -2   6  241.08   16.20
   4  -2  -6  204.48   30.00
  -4   2   5 -152.88  365.46
   4   2  -5  209.38   15.00
  -4   2   5  242.18   17.60
   4  -2  -5  168.58   24.50
  -4  -2   5  190.88   14.20
   4  -2  -5  183.78   25.00
   4   2  -4   16.20    5.70
  -4   2   4   26.30    6.90
   4  -2  -4   25.70   11.50
  -4  -2   4   12.50    5.00
  -4   2   3  685.73   39.50
   4  -2  -3  734.13   42.20
  -4  -2   3  665.03   38.10
  -4   2   2  774.32   43.00
   4  -2  -2  810.02   44.30
  -4  -2   2  715.33   41.50
  -4   2   1  725.03   41.20
  -4  -2   1  679.83   39.30
   4  -2  -1  782.22   41.90
   4  -2   0   22.90    6.90
  -4   2  -1 1944.31  107.89
   4  -2   1 2107.29  108.39
  -4   2  -2  457.75   29.50
   4  -2   2  495.65   29.80
  -4   2  -3 1021.70   58.39
   4  -2   3 1077.79   58.69
  -4  -2  -4  -27.60   31.80
   4  -2   4    0.20    8.10
   4  -2   5  899.81   51.69
   4  -2   6  224.38   19.70
   4  -2   6  185.98   18.30
   4  -2   7 1467.35   80.99
   4  -2   7 1461.85   81.49
   4  -2   8   80.69   14.90
   4  -2   9  155.18   21.40
   4  -2   9  124.29   19.80
   4  -2  10   19.50   14.50
   4  -2  11 1015.60   69.69
   4  -2  12   93.09   20.10
   4  -2  13  -21.00   18.40
   4  -2  14    2.50   21.20
  -4  -3  13  323.87   31.80
  -4  -3  12   -1.30   13.30
  -4  -3  11   50.69   14.40
  -4  -3  10   82.59   14.90
  -4  -3   9 1051.29   61.39
  -4  -3   8   33.30   11.30
  -4  -3   7    5.70    9.50
   4  -3  -6  102.89   23.40
  -4  -3   6   55.49   11.00
  -4   3   5 1429.06   77.59
   4  -3  -5 1260.57   84.19
  -4  -3   5 1420.16   79.09
  -4  -3   5 1481.35   77.29
  -4   3   4  104.29   17.10
   4  -3  -4   88.39   20.40
  -4  -3   4   93.19   14.30
  -4  -3   4  107.59   18.00
  -4   3   3  480.95   31.90
  -4  -3   3  479.15   32.90
  -4  -3   3  483.15   29.50
   4  -3  -3  394.46   51.89
   4  -3  -3  482.05   37.10
  -4  -3   2   43.10    9.40
   4  -3  -2   59.39   14.60
  -4  -3   2   51.29   13.20
  -4   3   1 1250.37   73.19
  -4  -3   1 1269.57   71.49
  -4  -3   1 1456.45   74.69
   4  -3  -1 1278.27   74.89
  -4   3   0  206.08   20.70
  -4  -3   0  187.78   22.00
   4  -3   0  151.68   22.20
  -4   3  -1  984.00   58.69
   4  -3   1 1055.79   60.19
   4  -3   3  316.87   26.30
   4  -3   4  141.09   18.80
   4  -3   5 1005.70   64.69
   4  -3   5 1261.37   72.19
   4  -3   7   -4.10   12.10
   4  -3   8    2.70   13.40
   4  -3   9  506.25   38.40
   4  -3  10   -2.00   17.00
   4  -3  11    0.30   17.60
   4  -3  12    6.00   20.30
  -4  -4  10    6.20   18.20
  -4  -4   9  -10.20   17.00
  -4  -4   8  134.29   21.90
  -4  -4   7  144.39   26.60
   4  -4  -7  112.09   38.20
  -4   4   6  124.99   21.40
  -4  -4   6  128.59   24.20
  -4   4   5   14.20   17.20
  -4  -4   5    9.10   15.40
   4  -4  -5  -44.80   34.90
  -4   4   4  115.89   20.30
  -4  -4   4  100.39   17.70
  -4   4   3  193.88   29.10
  -4  -4   2  196.28   26.30
  -4  -4   1    5.00   22.70
  -4  -4   1   34.50   14.40
  -4  -4   0   49.50   22.90
  -4  -4   0  100.69   16.50
  -4  -4  -1  214.18   26.10
   4  -4   3   54.69   16.90
   4  -4   4    1.20   14.50
   4  -4   5   87.69   18.00
   4  -4   6  204.28   27.20
   4  -4   7   67.09   18.50
   4  -4   8  -27.30   16.30
   4  -4   9   32.80   19.90
  -5   0  17   13.40   18.40
  -5   0  16  346.97   33.60
  -5   0  15    2.80   14.10
   5   0 -14  174.18   20.70
  -5   0  14  231.38   22.50
  -5   0  13    3.20    9.10
   5   0 -13    7.30    7.80
   5   0 -12  609.64   35.40
  -5   0  12  565.74   36.50
   5   0 -11    4.40    6.30
  -5   0  11   -1.70    6.60
   5   0 -10  886.31   48.00
  -5   0  10  836.62   48.40
  -5   0   9   -1.50    4.90
   5   0  -9    2.80    4.80
   5   0  -8  167.78   12.20
  -5   0   8  150.18   12.50
   5   0  -7    2.80    3.90
  -5   0   7    1.00    4.20
  -5   0   6 2675.33  140.39
  -5   0   5   -1.30    3.30
   5   0  -5   -6.10    3.30
   5   0  -4  133.99   10.20
  -5   0   4  126.69    9.70
  -5   0   3   -1.80    3.10
   5   0  -3   -3.70    4.00
  -5   0   2 5185.08  275.17
   5   0  -2 5392.56  275.57
  -5   0   1   -6.10    4.30
   5   0  -1   -8.30    5.40
   5   0   0  255.07   17.70
  -5   0  -1    3.00    3.70
   5   0   1    1.90    4.20
  -5  -1  17  142.09   28.10
  -5  -1  16  143.49   26.30
  -5   1  15   -3.20   22.10
   5  -1 -15   10.50   11.50
  -5  -1  15   10.70   12.60
  -5   1  14  418.86   44.40
  -5  -1  14  421.76   32.00
   5  -1 -14  455.45   30.30
  -5   1  13  364.96   41.00
   5  -1 -13  401.36   27.50
  -5   1  12  509.75   45.40
   5   1 -12  506.15   34.20
  -5  -1  12  555.04   34.40
   5  -1 -12  617.64   34.10
   5   1 -11    7.90    7.20
  -5   1  11   -1.60   16.20
  -5   1  11 -322.77  537.85
   5  -1 -11    8.90    7.50
  -5   1  10  300.47   31.50
   5   1 -10  290.87   21.00
   5  -1 -10  337.97   21.50
  -5  -1  10  311.67   21.30
  -5   1   9  556.24   41.00
   5   1  -9  538.65   32.90
   5  -1  -9  614.84   33.70
  -5  -1   9  561.64   32.90
   5   1  -8 1939.81  104.89
  -5   1   8 1935.31  110.69
  -5  -1   8 1981.70  104.79
   5  -1  -8 2064.39  105.59
  -5   1   7   -1.30   12.10
   5   1  -7   17.50    4.90
  -5  -1   7   29.60    5.20
   5  -1  -7    8.30    6.80
  -5   1   6   87.39   15.50
   5   1  -6   98.79    9.00
  -5  -1   6   99.09    8.50
  -5   1   5  530.85   40.20
   5   1  -5  650.03   34.20
  -5  -1   5  670.53   34.10
   5  -1  -5  606.34   37.80
  -5   1   4 2326.47  143.99
   5   1  -4 2912.61  140.39
   5  -1  -4 2530.35  143.09
  -5  -1   4 2954.20  140.29
   5   1  -3  535.45   28.00
  -5   1   3  444.76   31.60
   5  -1  -3  491.15   31.90
  -5  -1   3  545.85   27.90
   5   1  -2   47.80    5.50
  -5   1   2   65.39   10.10
   5  -1  -2   49.60   10.20
  -5  -1   2   47.10    5.10
   5   1  -1 1008.90   54.59
  -5   1   1 1040.40   56.49
   5  -1  -1 1053.89   56.49
  -5   1   0 2718.23  144.09
   5  -1   0 2771.22  143.99
  -5   1  -1  454.35   26.60
   5  -1   1  462.55   26.40
  -5   1  -2 1472.75   79.99
   5  -1   2 1526.35   79.89
  -5   1  -3  477.35   28.40
   5  -1   3  475.85   27.80
  -5   1  -4 1520.65   81.69
   5  -1   5  661.43   38.10
   5  -1   6  799.42   45.60
   5  -1   7   46.90   10.70
   5  -1   7   55.79    9.90
   5  -1   8  420.66   29.80
   5  -1   8  457.85   29.30
   5  -1   9  501.55   33.00
   5  -1   9  459.05   31.80
   5  -1  10  591.54   39.00
   5  -1  10  627.14   40.40
   5  -1  11   -6.00   13.20
   5  -1  11  -22.10   12.40
   5  -1  12  146.09   19.80
   5  -1  12  132.29   22.80
   5  -1  13  123.99   21.30
   5  -1  13  170.18   25.90
   5  -1  14  171.18   28.50
   5  -1  15   -4.10   18.00
  -5  -2  15  294.07   31.30
  -5  -2  14    6.70   12.70
  -5  -2  13   48.90   12.80
  -5   2  12 -679.43  577.84
  -5   2  11  822.22  556.14
  -5  -2  11  746.73   44.60
  -5   2  10 -121.79  515.35
   5   2  -9    7.80    7.70
  -5   2   9   15.90   17.90
  -5   2   9 -265.47  505.35
   5  -2  -9    7.00   10.20
  -5  -2   9    8.90    6.80
  -5   2   8 -371.06  494.65
  -5   2   7  977.60  492.55
  -5   2   7 1246.98   68.09
   5   2  -7 1121.59   63.69
   5  -2  -7 1058.79   67.99
  -5  -2   7 1162.78   63.29
   5  -2  -7 1243.08   77.19
   5   2  -6  166.78   14.00
   5  -2  -6  179.18   29.10
   5  -2  -6  170.98   24.80
  -5  -2   6  157.48   13.20
   5   2  -5  339.37   21.70
  -5   2   5  383.06   25.10
   5  -2  -5  358.16   31.60
   5  -2  -5  308.77   30.10
  -5  -2   5  323.77   20.90
  -5   2   4  168.98   16.00
   5   2  -4  150.18   12.90
  -5  -2   4  139.19   11.50
   5  -2  -4  169.18   20.80
   5   2  -3 2461.95  124.79
  -5   2   3 2278.07  125.59
  -5  -2   3 2263.07  124.09
   5  -2  -3 2464.65  127.49
  -5   2   2  388.46   24.20
   5   2  -2  370.36   22.60
  -5  -2   2  347.57   21.60
   5  -2  -2  383.76   25.40
  -5   2   1 1300.67   71.99
   5  -2  -1 1406.46   72.59
  -5  -2   1 1268.47   69.99
  -5   2   0  131.09   13.40
   5  -2   0  128.79   13.90
  -5   2  -1 1497.55   83.89
   5  -2   1 1607.44   84.29
  -5   2  -2  507.55   32.30
   5  -2   2  543.85   32.60
  -5   2  -3 1324.97   74.89
   5  -2   3 1410.96   75.19
   5  -2   4   11.60    8.40
  -5  -2  -4   -7.10   27.50
   5  -2   5  288.27   21.90
   5  -2   6  168.58   18.00
   5  -2   7 2229.08  121.59
   5  -2   7 2264.07  121.49
   5  -2   8   49.00   13.80
   5  -2   8   78.19   15.10
   5  -2   9  -16.80   11.90
   5  -2   9   -6.80   13.00
   5  -2  10   79.59   17.30
   5  -2  11  940.81   60.39
   5  -2  12  131.59   22.40
   5  -2  13   53.79   21.00
   5  -2  14  -16.60   21.40
  -5  -3  13  405.56   34.90
  -5  -3  12   53.99   15.00
  -5  -3  11    2.70   12.10
  -5  -3  10  -12.70   10.30
  -5  -3   9  606.74   38.10
  -5  -3   8  116.79   16.50
  -5   3   7  102.69   20.30
   5  -3  -7   83.29   23.00
  -5  -3   7   83.19   13.60
  -5   3   6   16.80   11.30
  -5  -3   6    3.80    8.50
   5  -3  -6   50.49   21.80
  -5   3   5  723.13   44.80
   5  -3  -5  709.93   54.09
  -5  -3   5  741.03   42.70
  -5   3   4  375.66   27.20
   5  -3  -4  394.36   37.20
  -5  -3   4  333.77   24.30
  -5   3   3  515.35   34.10
  -5  -3   3  499.15   31.50
  -5  -3   3  535.25   35.20
   5  -3  -3  538.45   40.20
  -5  -3   2   28.50    8.30
  -5  -3   2   48.60   12.80
   5  -3  -2   43.60   15.30
  -5   3   1  611.14   39.00
  -5  -3   1  532.75   35.20
   5  -3  -1  624.84   41.20
  -5  -3   1  691.53   40.30
   5  -3  -1  594.84   56.79
  -5   3   0  116.99   18.90
   5  -3   0   88.49   16.70
  -5   3  -1  702.23   43.50
  -5   3  -2   47.20   12.00
   5  -3   2   21.20   12.30
   5  -3   3   90.09   18.70
   5  -3   4   -4.00   11.70
   5  -3   6   65.89   18.30
   5  -3   7   -0.40   13.00
   5  -3   8   -7.70   14.00
   5  -3   9  529.65   40.20
   5  -3  10   50.69   19.30
   5  -3  11  -29.50   18.80
   5  -3  12    6.80   21.10
  -5  -4  10   51.19   19.10
  -5  -4   9   21.90   18.00
  -5  -4   8   37.60   17.80
  -5   4   7  168.68   34.70
  -5  -4   7  151.48   26.30
  -5   4   6  316.17   38.10
  -5  -4   6  351.36   32.00
  -5   4   5  111.39   21.00
  -5  -4   5  122.09   22.60
  -5  -4   4   33.00   15.20
  -5   4   2  392.26   37.60
  -5  -4   2  473.65   34.90
  -5  -4   2  460.85   60.29
  -5  -4   1  146.39   26.30
  -5  -4   1  146.09   23.50
  -5  -4   0    3.50   12.20
  -5  -4  -1   34.40   13.40
   5  -4   4   38.10   16.30
   5  -4   5    6.30   15.10
   5  -4   6  150.38   26.40
   5  -4   7   68.49   19.30
   5  -4   8  114.59   22.40
  -6   0  17    7.10   18.70
  -6   0  16  418.76   37.20
  -6   0  15   -3.40   12.70
  -6   0  14  306.97   27.20
   6   0 -13   16.10    8.60
  -6   0  13   -2.50    9.00
  -6   0  12  373.66   26.50
  -6   0  11   -2.00    6.90
   6   0 -11    0.30    7.10
   6   0 -10 1862.01   98.89
  -6   0  10 1837.72   99.49
   6   0  -9    2.50    5.20
  -6   0   9   -2.60    5.30
   6   0  -8   86.09    9.70
  -6   0   8   64.19    9.50
   6   0  -7   -2.20    4.10
  -6   0   7    2.20    4.50
   6   0  -6 5415.56  275.37
  -6   0   6 5156.68  275.37
  -6   0   5   -1.60    3.80
   6   0  -5   -6.00    4.70
  -6   0   4   59.49    7.40
   6   0  -4   57.19    8.70
   6   0  -3   -6.80    5.00
  -6   0   3   -6.70    3.60
   6   0  -2 3739.83  197.58
  -6   0   2 3790.82  197.28
  -6   0   1   -5.00    5.30
   6   0  -1   -0.30    6.70
   6   0   0 1632.24   85.09
  -6   0   0 1527.55   84.99
  -6   0  -1   -3.20    4.40
   6   0   1    1.20    5.30
   6   0   2 3080.69  160.98
  -6   1  16  233.88   35.10
  -6  -1  16  232.98   26.30
  -6   1  15   22.40   23.70
  -6   1  14   87.49   23.10
  -6  -1  14  104.59   18.80
   6  -1 -14   75.59   13.50
  -6   1  13  314.37   38.10
   6  -1 -13  324.47   25.70
  -6  -1  13  302.87   25.30
  -6   1  12  470.25   41.10
   6   1 -12  455.85   32.70
   6  -1 -12  479.55   30.70
  -6  -1  12  452.85   30.20
  -6   1  11  170.88   28.30
   6   1 -11  182.88   16.30
  -6  -1  11  196.18   16.60
   6  -1 -11  175.78   17.50
   6   1 -10   50.39   10.30
  -6   1  10   61.79   17.20
  -6  -1  10   59.99   10.70
   6  -1 -10   66.59   12.70
  -6   1   9  333.57   32.20
   6   1  -9  344.47   22.20
   6  -1  -9  379.26   23.90
  -6  -1   9  352.66   22.40
   6   1  -8 1170.88   66.29
  -6   1   8 1233.08   73.29
  -6  -1   8 1223.58   66.19
   6  -1  -8 1288.47   67.69
  -6   1   7  564.24   41.50
   6   1  -7  608.74   33.90
   6  -1  -7  602.44   36.30
  -6  -1   7  604.44   33.60
   6   1  -6   49.70    7.60
  -6   1   6   41.70   13.10
   6  -1  -6   49.20   10.70
  -6  -1   6   36.10    6.50
   6   1  -5  180.48   12.40
  -6   1   5  142.99   21.10
   6  -1  -5  159.38   18.40
  -6  -1   5  183.68   11.80
  -6   1   4 1217.98   73.49
  -6  -1   4 1355.06   68.49
   6   1  -3 1095.69   57.39
   6  -1  -3 1024.90   60.99
  -6  -1   3 1102.89   57.29
  -6   1   2  158.78   15.60
   6   1  -2  180.88   11.30
   6  -1  -2  161.38   15.50
   6   1  -1  319.77   18.40
  -6   1   1  320.97   21.40
   6  -1  -1  316.07   21.20
  -6   1   0 2012.40  105.69
   6  -1   0 1960.90  105.29
  -6   1  -1 1280.57   69.59
   6  -1   1 1299.57   69.29
  -6   1  -2  951.40   52.49
   6  -1   2  957.00   52.59
  -6   1  -3   71.19   10.90
  -6   1  -4 2225.28  120.49
   6  -1   4 2317.27  120.39
  -6   1  -5 1253.47   69.19
   6  -1   5 1267.77   68.79
   6  -1   6 1129.19   62.59
   6  -1   7   77.69   16.40
   6  -1   7   85.09   14.70
   6  -1   8  318.57   26.50
   6  -1   8  359.26   26.00
   6  -1   9  711.03   44.10
   6  -1   9  684.03   43.30
   6  -1  10  800.32   50.59
   6  -1  10  858.21   52.09
   6  -1  11  175.48   26.10
   6  -1  11  149.09   24.00
   6  -1  12   19.20   16.20
   6  -1  12   16.90   18.50
   6  -1  13  137.59   27.30
   6  -1  13  137.29   22.40
   6  -1  14  334.97   42.90
   6  -1  15   92.19   22.00
  -6  -2  15  330.67   32.40
  -6  -2  14   78.09   16.10
  -6  -2  13   21.60   11.70
  -6   2  12 -121.39  595.54
  -6  -2  12    0.70    9.40
  -6   2  11 1057.89  581.14
   6  -2 -11 1104.39   62.99
  -6  -2  11 1075.59   61.39
  -6   2  10 -343.27  556.74
   6   2  -9  407.56   27.10
  -6   2   9  304.57  513.15
  -6   2   9  367.96   43.10
   6  -2  -9  406.46   31.40
  -6  -2   9  445.36   26.60
  -6   2   8   14.10   17.20
   6   2  -8    9.00   12.50
  -6   2   8 -464.75  493.15
   6  -2  -8   15.30   13.30
   6  -2  -8   28.40   36.10
  -6  -2   8    8.40    6.30
   6   2  -7 1111.29   61.29
  -6   2   7 1205.48   67.69
  -6   2   7  834.52  496.55
  -6  -2   7 1144.09   60.79
   6  -2  -7 1038.10   66.59
   6  -2  -7 1077.79   72.69
  -6   2   6  352.96   28.10
   6   2  -6  301.77   21.10
   6  -2  -6  336.07   38.20
  -6  -2   6  305.77   20.20
   6  -2  -6  334.87   31.10
   6   2  -5 1954.20  102.39
  -6   2   5 2022.80  105.59
   6  -2  -5 1799.12  107.19
   6  -2  -5 1912.21  108.99
   6   2  -4   64.69   10.10
   6  -2  -4   60.69   13.80
  -6  -2   4   52.19    7.40
  -6   2   3  740.93   44.10
   6   2  -3  752.32   42.00
   6  -2  -3  765.02   46.20
  -6   2   2  244.18   17.70
   6   2  -2  164.18   14.60
   6  -2  -2  208.28   18.70
   6   2  -1 4084.99  205.18
  -6   2   1 3686.03  206.38
   6  -2  -1 4018.70  207.08
  -6   2   0  100.89   13.10
   6  -2   0   94.09   13.40
  -6   2  -1   13.60    7.60
   6  -2   1    4.10    7.80
  -6   2  -2  129.09   15.00
   6  -2   2   90.89   14.40
  -6   2  -3 3590.24  196.48
   6  -2   3 3865.21  196.88
  -6   2  -4  186.68   18.90
   6  -2   4  195.78   18.10
   6  -2   5  358.56   25.50
   6  -2   6   12.10    9.80
   6  -2   7 1633.34   90.79
   6  -2   8  143.79   21.90
   6  -2   8  152.98   20.80
   6  -2   9  275.37   27.30
   6  -2   9  259.27   26.60
   6  -2  10  -22.20   20.30
   6  -2  11  319.17   34.90
   6  -2  12  108.49   22.30
   6  -2  13  389.46   42.20
   6  -2  14  -29.30   23.80
  -6  -3  13  339.27   31.70
  -6  -3  12   18.10   13.00
  -6  -3  11  133.29   19.30
  -6  -3  10    1.60   10.20
  -6   3   9  341.17   32.10
  -6  -3   9  294.47   24.90
  -6   3   8   59.29   15.90
  -6  -3   8   40.30   10.80
   6  -3  -8   74.39   23.60
  -6   3   7  390.96   31.20
   6  -3  -7  329.67   44.10
  -6   3   6   70.19   13.80
  -6  -3   6   53.49   10.40
  -6   3   5  147.99   20.60
  -6  -3   5  135.49   15.80
   6  -3  -5  141.09   25.20
  -6   3   4   15.20   11.00
  -6  -3   4    9.10    8.10
   6  -3  -4   41.60   20.50
  -6   3   3  625.74   42.00
  -6  -3   3  662.33   39.20
   6  -3  -3  744.83   48.80
   6  -3  -2   86.59   18.50
  -6  -3   2   89.19   12.60
  -6   3   1  159.48   20.40
  -6  -3   1  155.98   20.20
  -6  -3   1  120.79   13.60
   6  -3   0   66.59   16.50
  -6   3  -1  971.20   58.29
   6  -3   1 1020.20   59.79
  -6   3  -2   -1.00   11.30
   6  -3   3  -15.50   11.50
   6  -3   7   -6.20   13.30
   6  -3   8   46.50   16.80
   6  -3   9  422.86   36.70
   6  -3  10   20.10   17.70
   6  -3  11   47.00   22.20
   6  -3  12   10.70   22.50
  -6   4   9   51.09   26.10
  -6  -4   9    7.50   16.80
  -6   4   8    9.90   22.60
  -6  -4   8  -13.90   15.40
  -6   4   7  117.29   27.20
  -6  -4   7  116.09   19.50
  -6   4   6  193.08   38.50
  -6  -4   6  233.38   31.10
  -6   4   5  163.28   33.70
  -6  -4   5  145.99   27.20
  -6   4   4   27.80   18.10
  -6  -4   4   29.90   14.80
  -6   4   3  188.68   32.40
  -6   4   2  232.58   32.60
  -6  -4   2  203.18   35.70
  -6  -4   2  289.97   26.90
  -6   4   1  161.68   27.60
  -6  -4   1  118.59   25.90
  -6  -4   1  189.38   21.90
  -6  -4   0   72.99   14.00
  -6  -4  -1   10.10   12.50
   6  -4   5   10.50   15.80
   6  -4   6   65.69   18.10
   6  -4   7   55.09   17.40
   6  -4   8   20.70   18.20
  -7   0  17   12.30   19.60
  -7   0  16  211.98   30.30
  -7   0  15   12.70   13.60
  -7   0  14  828.22   57.79
   7   0 -13   11.40   10.20
  -7   0  13    1.00    9.80
  -7   0  12   21.30    9.80
   7   0 -12   15.70    8.40
  -7   0  11   -3.80    7.50
   7   0 -11   -1.40    7.60
   7   0 -10 3324.27  173.38
  -7   0  10 3258.57  174.08
  -7   0   9   -2.00    6.40
   7   0  -9   -0.30    6.10
  -7   0   8  214.48   16.40
   7   0  -8  220.18   16.10
  -7   0   7    0.90    5.00
   7   0  -6 5084.79  256.07
  -7   0   6 4722.23  255.87
  -7   0   5   -1.90    4.60
   7   0  -5   -0.80    5.60
  -7   0   4 2737.73  126.99
   7   0  -4 2052.39  128.19
   7   0  -3   -6.60    6.20
  -7   0   3   -3.70    4.90
   7   0  -2 2160.38  116.69
  -7   0   2 2211.08  116.29
   7   0  -1    9.10    7.50
  -7   0   1   -0.80    5.80
   7   0   0 7579.64  386.96
  -7   0   0 7274.47  386.96
   7   0   1   11.00    6.70
  -7   0  -1   -6.00    5.10
   7   0   2  540.75   32.70
  -7   0  -2  602.84   32.80
  -7   1  16  242.98   37.00
  -7  -1  16  280.37   27.90
  -7   1  15   41.30   24.60
  -7  -1  15   49.00   12.60
  -7   1  14    2.80   20.80
  -7  -1  14   21.60   10.10
  -7   1  13  128.09   24.50
  -7  -1  13  138.29   17.40
   7  -1 -13  127.49   19.70
  -7   1  12  466.35   41.00
  -7  -1  12  448.76   30.40
   7   1 -11   28.50    8.50
  -7   1  11   30.70   17.50
   7  -1 -11   36.70   10.10
  -7  -1  11   39.10    8.40
  -7   1  10  -13.90   14.00
   7   1 -10   11.80   11.20
  -7  -1  10    6.90    6.30
   7  -1 -10    2.80    8.40
  -7   1   9  148.39   26.00
   7   1  -9  180.98   14.40
   7  -1  -9  169.38   17.40
  -7  -1   9  188.98   14.50
   7   1  -8  821.92   46.40
  -7   1   8  850.01   53.89
  -7  -1   8  821.02   46.10
   7  -1  -8  841.02   48.40
   7   1  -7  163.28   13.20
  -7   1   7  129.89   22.40
  -7  -1   7  152.98   12.00
   7  -1  -7  167.18   17.70
  -7   1   6   56.79   14.40
   7   1  -6   51.49    8.80
  -7  -1   6   51.59    7.40
   7  -1  -6   56.39   11.60
  -7   1   5  237.28   24.40
   7   1  -5  251.87   16.20
  -7  -1   5  245.18   15.60
   7  -1  -5  241.28   21.90
   7   1  -4 1458.25   78.69
  -7   1   4 1425.06   83.89
  -7  -1   4 1469.45   78.49
   7  -1  -4 1569.14   82.99
   7   1  -3  439.36   24.90
  -7   1   3  359.16   29.80
  -7  -1   3  458.35   24.50
   7  -1  -3  445.06   29.90
  -7   1   2  607.14   40.90
   7   1  -2  729.03   37.50
  -7  -1   2  756.82   37.30
   7  -1  -2  612.84   41.10
   7   1  -1  393.06   22.70
  -7   1   1  392.96   26.00
  -7  -1   1  387.06   22.30
   7  -1  -1  384.46   30.10
  -7   1   0 3077.69  159.88
   7  -1   0 2969.90  163.38
  -7   1  -1  590.84   34.00
   7  -1   1  564.64   34.70
  -7   1  -2 1538.45   82.39
   7  -1   2 1518.35   81.99
  -7   1  -3   15.50    6.90
   7  -1   3    0.90    5.80
  -7   1  -4 1328.17   72.29
   7  -1   4 1307.77   71.59
  -7   1  -5 1447.76   80.79
   7  -1   5 1518.95   80.69
   7  -1   6 2471.85  131.69
   7  -1   7   81.99   15.60
   7  -1   8   11.50   10.40
   7  -1   8   12.30   12.30
   7  -1   9  471.95   33.20
   7  -1  10 1924.21  106.79
   7  -1  10 1967.10  107.49
   7  -1  11  213.98   28.00
   7  -1  11  219.38   28.10
   7  -1  12   80.09   18.80
   7  -1  12   75.79   19.50
   7  -1  13  119.09   22.20
   7  -1  13  119.99   24.60
  -7  -2  15  329.07   32.10
  -7   2  14  -17.30   42.50
  -7   2  13  232.88  641.84
  -7   2  13   46.20   41.50
   7  -2 -13  131.79   25.20
  -7  -2  13  157.08   20.40
  -7   2  12  -54.09   33.40
   7  -2 -12   15.10   13.10
  -7  -2  12    3.50    9.50
  -7   2  11  613.94  568.54
   7  -2 -11  529.35   39.80
  -7  -2  11  507.95   33.60
  -7   2  10 -259.47  551.14
  -7   2   9  540.75  503.85
   7   2  -9  442.16   30.10
   7  -2  -9  446.06   35.20
  -7  -2   9  508.15   29.30
  -7   2   8   -0.20   19.00
   7   2  -8   -3.80    7.10
  -7  -2   8    7.60    6.20
   7  -2  -8   12.30   15.30
  -7   2   7 -100.89  475.65
  -7   2   7  252.07   31.60
   7   2  -7  241.88   19.50
   7  -2  -7  313.17   32.60
   7  -2  -7  246.08   49.80
  -7  -2   7  292.47   18.90
   7   2  -6  144.39   15.00
  -7   2   6  187.78   25.20
  -7  -2   6  177.58   14.00
   7  -2  -6  233.18   27.90
   7  -2  -6  213.98   43.70
   7   2  -5 1973.50  104.29
  -7   2   5 1952.90  108.29
  -7  -2   5 1933.71  103.59
   7  -2  -5 1968.30  109.69
  -7   2   4   44.80   11.40
   7   2  -4   26.70    7.20
  -7  -2   4   27.10    5.60
   7  -2  -4   25.80   14.00
  -7   2   3   41.20   10.10
   7   2  -3   32.60    7.10
  -7  -2   3   27.80    5.50
   7  -2  -3   49.60   12.70
  -7   2   2  234.08   19.00
   7   2  -2  190.58   14.80
   7  -2  -2  206.78   20.60
  -7  -2   2  172.98   13.40
  -7   2   1 1811.52   99.89
  -7  -2   1 1825.12   97.29
   7  -2  -1 1906.11  100.39
  -7   2   0  210.58   18.30
   7  -2   0  208.38   18.30
  -7   2  -1   32.70    8.70
   7  -2   1   12.30    9.00
  -7   2  -2   22.40    9.00
   7  -2   2    7.70    9.30
  -7   2  -3 1477.15   83.19
   7  -2   3 1544.55   83.19
  -7   2  -4  135.39   18.10
   7  -2   4  118.79   16.20
   7  -2   5  286.27   23.40
   7  -2   6  -15.90   14.40
   7  -2   7  484.25   34.00
   7  -2   8  110.19   17.20
   7  -2   8  116.39   22.00
   7  -2   9  169.58   25.00
   7  -2  10  -33.30   20.40
   7  -2  11  137.49   22.70
   7  -2  12   65.49   21.70
   7  -2  13  170.38   28.20
  -7  -3  13  196.18   27.30
  -7  -3  12   38.90   13.70
  -7  -3  11  162.48   21.30
  -7   3  10   -3.40   18.50
   7  -3 -10   -6.20   22.10
  -7  -3  10   14.60   11.00
  -7   3   9  126.19   20.90
   7  -3  -9   69.99   22.90
  -7  -3   9  114.19   17.60
  -7   3   8   99.19   19.30
  -7  -3   8   95.99   16.30
  -7   3   7  556.34   41.20
   7  -3  -7  506.95   49.80
  -7   3   6   42.20   14.80
   7  -3  -6  105.09   26.20
  -7  -3   6   19.80    8.90
  -7   3   5   68.29   14.60
   7  -3  -5   43.10   32.50
  -7  -3   5   36.60    9.50
  -7   3   4   70.49   14.40
  -7  -3   4   73.39   12.60
   7  -3  -4   67.79   31.20
  -7   3   3  976.90   58.59
  -7  -3   3 1001.60   54.89
   7  -3  -3  981.90   64.89
  -7   3   2  104.19   18.60
   7  -3  -2   59.89   17.70
  -7  -3   2   65.99   11.80
  -7   3   1   41.60   12.50
   7  -3  -1   29.60   15.30
   7  -3   0   66.69   16.60
  -7   3  -1 1027.30   59.59
   7  -3   1  972.20   59.89
   7  -3   2   47.50   14.90
  -7   3  -3   16.50   12.70
   7  -3   7  123.89   19.70
   7  -3   8   -0.10   15.50
   7  -3   9  182.78   28.60
   7  -3  10   80.89   20.80
   7  -3  11  185.88   35.60
  -7   4   9  112.19   25.70
  -7  -4   9  111.69   22.30
  -7   4   8   42.30   22.60
  -7  -4   8   49.10   17.60
  -7   4   7   79.99   22.70
  -7  -4   7   58.79   17.50
  -7   4   6  386.56   40.40
  -7  -4   6  327.17   32.80
  -7   4   5  181.58   35.00
  -7  -4   5  144.49   25.10
  -7   4   4  310.87   37.60
  -7  -4   4  270.87   31.50
  -7   4   3   37.90   19.10
  -7   4   2  124.99   22.10
  -7  -4   2  112.39   16.70
  -7  -4   2  107.79   32.10
  -7   4   1  149.69   28.50
  -7  -4   1  131.69   21.60
  -7  -4   1  112.59   27.40
  -7   4   0  250.77   32.50
  -7  -4   0  286.37   25.20
   7  -4   5   65.49   18.20
   7  -4   6    3.00   16.10
   7  -4   7   43.50   17.80
  -8   0  17   -2.50   20.00
  -8   0  16   12.90   17.30
  -8   0  15    6.20   14.10
  -8   0  14  695.23   45.70
  -8   0  13   -3.20   10.90
  -8   0  12  143.19   17.70
   8   0 -12  115.49   17.10
   8   0 -11   11.60    7.90
  -8   0  11    4.60    7.50
   8   0 -10 1409.36   75.59
  -8   0  10 1353.16   76.19
  -8   0   9   -2.20    6.30
   8   0  -9   -9.50    6.60
   8   0  -8  621.74   35.80
  -8   0   8  596.94   35.90
  -8   0   7   -0.30    5.50
   8   0  -7   -8.60    6.10
  -8   0   6 1073.49   60.69
   8   0  -6 1138.29   61.19
  -8   0   5   -7.00    5.20
   8   0  -5   -1.70    6.50
  -8   0   4 2318.37  123.79
   8   0  -4 2343.07  124.49
  -8   0   3   -9.20    5.20
  -8   0   2  100.49   12.90
   8   0  -2  137.29   15.80
   8   0  -1   20.60    9.30
  -8   0   1    5.70    6.80
  -8   0   0 3766.32  203.48
   8   0   0 3958.60  203.68
  -8   0  -1   -3.10    6.50
   8   0   1    6.50    7.70
   8   0   2   48.70    8.70
  -8   1  16  155.98   34.20
  -8  -1  16  178.58   25.00
  -8   1  15  102.39   27.80
  -8  -1  15  100.59   20.00
  -8  -1  14   19.70   10.20
  -8   1  13  180.48   27.20
  -8  -1  13  161.98   18.10
   8  -1 -13  172.88   24.60
  -8   1  12  375.96   38.00
  -8  -1  12  329.67   28.60
   8  -1 -12  344.87   27.10
  -8   1  11  273.57   33.00
   8   1 -11  257.17   20.60
  -8  -1  11  295.27   20.70
   8   1 -10  150.78   14.00
  -8   1  10  142.79   22.30
  -8  -1  10  154.28   14.20
   8  -1 -10  124.09   17.80
   8   1  -9   64.49   11.40
  -8   1   9   63.79   17.50
  -8  -1   9   71.89   10.50
   8  -1  -9   66.09   11.80
   8   1  -8  736.73   41.70
  -8   1   8  747.33   49.20
   8  -1  -8  693.93   44.10
  -8  -1   8  736.53   41.20
  -8   1   7  887.11   54.29
   8   1  -7  824.92   46.90
   8  -1  -7  831.22   50.29
  -8  -1   7  814.22   46.30
  -8   1   6  439.66   33.20
   8   1  -6  423.36   25.50
  -8  -1   6  411.76   24.80
   8  -1  -6  392.26   30.40
   8   1  -5   38.60    6.70
  -8   1   5   40.00   13.50
  -8  -1   5   52.29    7.40
   8   1  -4  711.83   40.40
  -8   1   4  688.23   46.40
  -8  -1   4  685.93   39.80
   8  -1  -4  817.62   46.20
  -8   1   3 1492.45   89.19
   8   1  -3 1653.33   85.39
  -8  -1   3 1615.04   84.89
   8  -1  -3 1638.04   88.79
  -8   1   2  812.42   55.19
   8   1  -2 1053.99   52.39
  -8  -1   2 1053.19   51.89
   8  -1  -2  889.21   54.99
   8   1  -1  199.48   15.10
  -8   1   1  214.98   18.70
  -8  -1   1  208.78   14.00
   8  -1  -1  209.18   17.80
  -8   1   0  560.04   34.30
   8  -1   0  551.14   33.40
  -8   1  -1 1351.66   74.59
   8  -1   1 1374.36   73.89
  -8   1  -2 1440.86   78.19
   8  -1   2 1432.86   77.59
  -8   1  -3  906.81   51.49
   8  -1   3  905.61   50.69
  -8   1  -4   38.40    9.30
  -8   1  -5 1176.88   65.39
   8  -1   5 1147.99   64.49
   8  -1   6 2144.39  115.29
   8  -1   7 1096.49   62.69
   8  -1   8  114.49   19.90
   8  -1   8  115.49   17.10
   8  -1   9   98.89   17.20
   8  -1   9   87.09   17.70
   8  -1  10  946.31   56.49
   8  -1  10  865.11   55.39
   8  -1  11  594.64   43.70
   8  -1  12  134.79   23.30
   8  -1  12  181.18   30.40
  -8   2  15  174.38   53.59
  -8  -2  15  189.18   26.40
  -8   2  14    8.30   47.80
  -8   2  13  382.16   78.69
  -8  -2  13  550.74   35.60
  -8  -2  12    0.80    9.30
   8  -2 -12    9.60   14.80
  -8   2  11   29.40   34.30
  -8  -2  11  103.69   15.50
   8  -2 -11   78.19   16.40
  -8   2  10 -233.18  620.84
   8   2  -9 1519.25   80.99
  -8   2   9  855.41  599.44
   8  -2  -9 1265.07   79.59
  -8  -2   9 1336.97   74.69
  -8   2   8 -414.96  532.75
  -8   2   8    4.10   20.90
  -8   2   7  -10.00   17.50
   8   2  -7   -3.00   10.70
   8  -2  -7   48.20   17.10
  -8  -2   7    0.80    6.10
  -8   2   6  109.49   20.00
   8   2  -6  106.99   13.90
  -8  -2   6  114.59   11.90
   8  -2  -6   56.39   40.50
  -8   2   5 2238.88  128.29
   8   2  -5 2368.16  123.79
  -8  -2   5 2299.77  122.89
   8  -2  -5 2407.66  129.09
   8   2  -4  249.97   19.50
  -8   2   4  298.07   26.20
  -8  -2   4  272.77   17.70
   8  -2  -4  237.78   27.40
  -8   2   3  148.69   19.20
   8   2  -3  124.09   13.40
   8  -2  -3  134.49   20.30
  -8  -2   3  124.89   11.40
   8   2  -2   15.40    7.10
   8  -2  -2   32.40   11.10
  -8  -2   2   13.80    5.40
  -8   2   1 1513.45   85.49
   8  -2  -1 1590.64   85.79
  -8   2   0  389.56   27.10
   8  -2   0  369.96   26.90
  -8   2  -1  945.61   54.99
   8  -2   1  957.80   54.89
  -8   2  -2   13.90    9.50
   8  -2   2   -1.80    9.00
  -8   2  -3  894.51   53.19
   8  -2   3  899.61   52.39
  -8   2  -4  461.05   32.20
   8  -2   4  434.06   30.80
  -8   2  -5  760.52   48.10
   8  -2   5  800.12   49.20
   8  -2   6   35.70   13.90
   8  -2   7  458.05   34.20
   8  -2   8  124.69   23.00
   8  -2   8   77.49   17.70
   8  -2   9  412.56   41.30
   8  -2  10  -25.90   17.50
   8  -2  11   30.90   19.50
   8  -2  12   30.20   22.20
   8  -2  13  310.07   43.70
  -8   3  13  127.09   32.40
  -8  -3  13   85.89   16.70
  -8   3  12   66.59   28.00
  -8  -3  11  273.47   26.20
  -8   3  10   15.20   22.20
  -8  -3  10   19.30   11.50
  -8   3   9   49.40   21.90
  -8  -3   9   54.89   12.30
   8  -3  -9   41.40   35.50
  -8   3   8   31.00   19.20
  -8  -3   8   42.00   10.60
   8  -3  -8   93.19   26.90
  -8   3   7  854.11   56.39
  -8  -3   7  795.42   49.99
  -8   3   6   51.29   16.80
   8  -3  -6   90.69   27.50
  -8  -3   6   35.00    9.70
  -8   3   5   80.29   16.90
  -8  -3   5   62.09   10.60
   8  -3  -5   42.40   25.50
  -8   3   4  115.39   22.80
   8  -3  -4   70.49   24.00
  -8  -3   4   88.59   13.40
  -8   3   3 1367.96   79.89
   8  -3  -3 1415.36   84.59
  -8  -3   3 1400.96   75.69
  -8   3   2   28.40   12.70
  -8  -3   2   24.00    8.00
   8  -3  -2    0.40   18.50
  -8   3   1   52.19   14.00
   8  -3  -1   32.10   17.00
  -8   3   0   55.49   14.10
   8  -3   0   14.70   14.90
  -8   3  -1 1084.29   64.99
  -8   3  -2   40.50   13.90
   8  -3   8  -16.20   16.40
   8  -3   9   81.29   20.90
   8  -3  10    8.60   18.70
   8  -3  11  358.06   41.40
  -8   4   9   85.59   27.90
  -8  -4   9   92.69   21.70
  -8  -4   8   48.70   18.30
  -8   4   7   23.90   20.80
  -8  -4   7    2.40   16.40
  -8   4   6  159.38   26.70
  -8  -4   6  176.58   24.80
  -8   4   5  126.19   25.40
  -8  -4   5   97.49   18.10
  -8   4   4  115.59   23.30
  -8  -4   4  136.99   21.90
  -8   4   3   52.09   20.40
  -8   4   2  101.09   21.40
  -8  -4   2   83.59   14.60
  -8   4   1   86.99   21.70
  -8  -4   1  106.89   18.80
  -8   4   0  192.48   31.00
  -8  -4   0  197.98   21.30
  -8   4  -1   27.60   19.00
   8  -4   6   -4.00   16.90
   8  -4   7  -11.60   17.70
  -9   0  16   53.49   19.80
  -9   0  15    6.20   14.40
  -9   0  14  531.05   38.90
  -9   0  13    8.00   11.40
  -9   0  12  349.27   27.60
   9   0 -11   -1.90    8.40
  -9   0  11    0.90    8.30
  -9   0  10  885.61   51.49
   9   0  -9   -8.30    7.00
  -9   0   9    3.00    7.20
  -9   0   8 1002.70   58.29
   9   0  -8 1078.89   58.49
  -9   0   7   -3.30    5.90
  -9   0   6  602.54   36.60
   9   0  -6  640.84   37.80
  -9   0   5   -1.80    5.90
   9   0  -4 3421.26  181.58
  -9   0   4 3428.76  180.88
   9   0  -3   -2.30    8.50
  -9   0   2  753.92   47.90
   9   0  -2  902.31   49.90
  -9   0   1    6.00    7.30
   9   0  -1   24.10   12.10
  -9   0   0 6430.26  344.27
   9   0   0 6735.63  344.37
  -9   0  -1   -3.00    7.20
   9   0   1    9.80    8.90
   9   0   2   38.20    9.10
  -9   0  -2   53.89    9.20
  -9   1  16  247.98   38.50
  -9  -1  16  240.58   27.50
  -9   1  15   93.49   28.60
  -9  -1  15  111.69   20.90
  -9   1  14   45.90   24.30
  -9  -1  14   45.40   12.50
  -9  -1  13   61.89   11.60
  -9   1  12  792.82   54.79
  -9  -1  12  735.53   43.60
   9  -1 -12  664.73   45.70
  -9   1  11  245.38   32.40
   9  -1 -11  264.37   24.60
  -9  -1  11  265.67   20.50
  -9   1  10  422.96   38.00
   9   1 -10  401.26   27.30
  -9  -1  10  435.56   27.30
   9   1  -9    1.40   10.40
  -9   1   9  -19.30   13.90
  -9  -1   9    0.90    5.80
   9   1  -8  793.02   46.30
  -9   1   8  834.22   53.49
  -9  -1   8  821.82   45.60
   9  -1  -8  782.12   49.30
  -9   1   7  648.14   42.80
   9   1  -7  545.95   33.90
  -9  -1   7  541.15   32.90
   9  -1  -7  547.65   38.10
   9   1  -6 1376.86   74.39
  -9   1   6 1531.65   80.89
   9  -1  -6 1249.88   77.49
  -9  -1   6 1332.67   73.69
   9   1  -5   67.29   11.30
  -9   1   5   80.99   16.20
  -9  -1   5   75.69    9.10
   9   1  -4  328.37   22.40
  -9   1   4  356.86   29.20
  -9  -1   4  331.17   20.90
  -9   1   3  607.64   39.80
   9   1  -3  595.64   35.20
   9  -1  -3  625.24   39.10
  -9  -1   3  575.74   34.00
  -9   1   2 3041.70  172.38
  -9  -1   2 3476.65  169.08
   9  -1  -2 3143.19  171.78
  -9   1   1  296.77   24.60
   9   1  -1  347.97   21.70
   9  -1  -1  304.97   23.50
  -9  -1   1  316.97   20.20
  -9   1   0   18.20    8.60
   9  -1   0    8.80    7.80
  -9   1  -1  459.45   30.40
   9  -1   1  467.85   29.40
  -9   1  -2 2527.05  134.49
   9  -1   2 2512.05  133.79
  -9   1  -3  826.82   47.70
   9  -1   3  795.12   46.40
  -9   1  -4  340.17   24.60
   9  -1   4  284.07   22.70
   9  -1   5   88.89   16.00
  -9   1  -6 1672.03   92.49
   9  -1   6 1687.83   92.09
   9  -1   7  474.95   33.40
   9  -1   8  513.15   36.70
   9  -1   9  -16.70   14.90
   9  -1   9   -3.70   14.00
   9  -1  10  389.86   35.40
   9  -1  10  453.95   37.80
   9  -1  11  278.87   36.00
   9  -1  11  296.27   32.30
   9  -1  12  324.07   35.80
   9  -1  12  322.97   39.10
  -9   2  15   -8.60   51.09
  -9   2  14  -12.90   47.90
  -9   2  13  380.96   57.49
  -9  -2  13  303.37   26.60
  -9   2  12    4.40   41.00
  -9  -2  12   15.60    9.60
  -9   2  11  -48.40  650.63
  -9   2  11  -15.10   33.00
   9  -2 -11  -21.50   16.30
  -9  -2  11    8.70    8.90
  -9   2  10  -15.20   29.10
  -9  -2  10   17.90    8.50
   9  -2 -10   17.80   16.70
  -9   2   9  568.14   59.19
  -9   2   9 -154.78  558.14
   9  -2  -9  614.24   45.50
  -9  -2   9  628.44   37.40
  -9   2   8  -32.10   22.50
   9   2  -8    8.90    8.60
   9   2  -7   92.09   15.40
  -9   2   7   47.60   21.00
  -9  -2   7   94.39   12.10
   9   2  -5  715.43   42.40
  -9   2   5  622.84   49.30
   9  -2  -5  859.21   51.09
  -9  -2   5  724.53   41.30
   9   2  -4   70.09   13.00
  -9   2   4   82.39   16.40
  -9  -2   4   92.89   10.90
  -9   2   3  255.17   25.90
   9   2  -3  251.97   19.40
  -9  -2   3  255.97   17.60
   9  -2  -3  252.57   25.70
  -9   2   2   19.20   11.10
   9   2  -2    2.40    6.80
   9  -2  -2   10.70   11.80
  -9  -2   2   -0.30    5.20
  -9   2   1  656.03   41.70
   9  -2  -1  655.43   42.20
  -9   2   0  204.28   21.00
   9  -2   0  200.18   20.30
  -9   2  -1  736.53   47.00
   9  -2   1  805.42   46.60
  -9   2  -2   18.10   10.40
   9  -2   2   -2.70    9.70
  -9   2  -3  464.65   32.70
   9  -2   3  430.16   31.10
  -9   2  -4  215.88   24.10
   9  -2   4  219.28   33.00
  -9   2  -5  412.96   31.40
   9  -2   5  359.36   30.40
   9  -2   6  -21.30   13.30
   9  -2   7   24.20   15.00
   9  -2   9  277.37   39.00
   9  -2  10   12.70   18.50
   9  -2  11  -28.10   19.80
   9  -2  12   10.10   22.40
   9  -2  13  342.67   43.20
  -9   3  12  103.19   33.80
  -9   3  12  323.47  733.83
  -9  -3  12   82.69   16.50
  -9   3  11  445.96   55.89
  -9  -3  11  380.76   31.30
  -9   3  10   61.89   28.40
  -9  -3  10   31.30   12.20
  -9  -3   9   -1.10   10.10
  -9   3   8   46.70   24.80
  -9  -3   8   63.09   12.30
  -9   3   7  686.13   52.89
  -9  -3   7  682.53   42.20
  -9   3   6  119.19   22.00
  -9  -3   6  103.39   15.00
  -9   3   5   51.69   17.60
   9   3  -5   65.89   15.20
   9  -3  -5   55.59   41.20
  -9  -3   5   56.09   10.70
  -9   3   4   10.80   14.90
   9  -3  -4   -7.10   31.80
  -9  -3   4    9.70    8.30
  -9   3   3  602.24   43.30
  -9  -3   3  566.74   36.00
   9  -3  -3  684.43   53.39
  -9   3   2  233.28   26.30
  -9  -3   2  210.08   17.90
  -9   3   1  320.47   29.90
  -9   3   0   35.50   15.00
  -9   3  -1  445.16   38.50
  -9   3  -3  605.24   43.10
  -9   3  -4   13.90   15.50
   9  -3   8   18.70   17.30
   9  -3   9    8.70   19.00
   9  -3  10    5.30   22.00
  -9   4   8  128.79   32.00
  -9  -4   8  140.49   27.70
  -9   4   7   42.70   25.20
  -9  -4   7   27.00   17.60
  -9   4   6   46.20   23.20
  -9  -4   6   44.40   16.70
  -9   4   5  147.49   29.40
  -9  -4   5  182.98   24.90
  -9   4   4  157.58   27.70
  -9  -4   4  181.38   22.90
  -9   4   3   82.49   23.50
  -9  -4   3  102.39   20.60
  -9   4   2   56.59   21.60
  -9  -4   2   43.30   14.10
  -9   4   1  111.79   24.10
  -9  -4   1  139.39   19.40
  -9   4   0  249.88   37.00
  -9   4  -1  100.89   22.70
   9  -4   6  -16.00   18.20
 -10   0  16  190.78   34.10
 -10   0  15   12.40   16.70
 -10   0  14   65.79   16.80
 -10   0  13    4.60   12.20
  10   0 -11  -12.20    9.40
 -10   0  11    4.00    9.50
  10   0 -10  123.19   17.60
 -10   0  10  138.99   17.50
 -10   0   9    3.20    7.90
  10   0  -9  -17.70   10.50
  10   0  -8  897.41   51.59
 -10   0   8  873.11   51.19
 -10   0   7   -4.20    6.60
  10   0  -7  -11.00    8.40
 -10   0   6   36.90    8.90
  10   0  -6   35.40   10.70
  10   0  -5  -10.80    9.30
 -10   0   5   -5.60    6.20
 -10   0   4 1592.94   86.39
  10   0  -4 1558.84   87.39
  10   0  -3    4.40    9.90
 -10   0   2   72.89   11.20
  10   0  -1   23.10   11.20
 -10   0   1   -5.20    8.10
  10   0   0 1785.12   96.69
 -10   0   0 1675.63   94.59
 -10   0  -1   -4.60    7.40
  10   0   2  218.78   20.30
 -10   0  -3   15.60    8.20
 -10   1  16  178.78   34.30
 -10  -1  16  162.58   25.40
 -10   1  15  217.78   45.30
 -10  -1  15  231.38   25.10
 -10   1  14  221.48   40.80
 -10  -1  14  233.08   22.60
 -10   1  13   -3.90   19.10
 -10  -1  13   -5.40    9.30
 -10   1  12  247.58   41.50
 -10  -1  12  244.68   20.90
 -10   1  11  435.16   38.60
  10  -1 -11  358.76   30.80
 -10  -1  11  357.96   30.60
 -10   1  10  752.32   51.09
  10   1 -10  712.33   44.00
  10  -1 -10  656.33   44.60
 -10  -1  10  704.03   41.70
  10   1  -9   98.59   15.60
 -10   1   9  129.49   20.50
 -10  -1   9  106.19   13.20
  10   1  -8   41.30   12.50
 -10   1   8   72.89   17.20
 -10  -1   8   48.50    8.40
  10  -1  -8   46.50   13.90
  10   1  -7  819.42   48.30
 -10   1   7  973.90   55.99
  10  -1  -7  765.02   51.69
 -10  -1   7  818.32   47.20
 -10   1   6 1962.00  100.39
  10   1  -6 1730.43   94.49
  10  -1  -6 1650.03   97.39
 -10  -1   6 1659.53   93.49
  10   1  -5  466.65   31.50
 -10   1   5  524.15   37.80
 -10  -1   5  472.65   29.70
  10  -1  -5  560.24   36.90
 -10   1   4  147.09   22.60
  10   1  -4  146.39   16.50
 -10  -1   4  145.49   12.90
  10   1  -3  304.87   23.60
 -10   1   3  355.16   28.70
  10  -1  -3  369.86   27.60
 -10  -1   3  308.17   21.10
  10   1  -2 1473.75   77.99
 -10   1   2 1421.96   80.89
  10  -1  -2 1382.76   79.69
 -10  -1   2 1412.46   76.79
 -10   1   1  742.33   48.10
  10  -1  -1  768.12   47.10
 -10  -1   1  837.52   44.60
 -10   1   0  355.96   27.10
  10  -1   0  335.17   25.00
 -10   1  -1  150.18   18.30
  10  -1   1  155.88   17.30
 -10   1  -2  793.12   46.80
  10  -1   2  772.92   46.10
 -10   1  -3 1061.19   60.39
  10  -1   3 1034.80   59.19
 -10   1  -4  994.50   57.59
  10  -1   4  985.30   56.59
  10  -1   5   63.89   12.70
 -10   1  -6  275.87   25.40
  10  -1   6  242.98   24.40
  10  -1   7  625.74   41.90
  10  -1   8  356.26   32.00
  10  -1   9  -18.70   15.80
  10  -1   9  -20.30   15.90
  10  -1  10   32.40   18.40
  10  -1  10   26.90   22.50
  10  -1  11  187.58   27.60
  10  -1  12  142.39   30.60
 -10   2  14  -44.40   47.60
 -10   2  13  310.47   53.49
 -10  -2  13  269.47   24.40
 -10   2  12    9.70   39.80
 -10  -2  11    4.10    8.70
 -10   2  10  -49.50   28.40
 -10  -2  10    3.90    8.10
 -10   2   9  832.42   66.99
  10  -2  -9  694.73   53.19
  10   2  -8  169.68   19.60
 -10   2   8  133.19   30.00
  10  -2  -8  244.68   34.00
 -10  -2   8  162.28   15.90
 -10   2   7   89.39   24.20
  10   2  -7   93.39   16.40
 -10  -2   7  129.19   13.50
 -10   2   6   -2.70   18.00
  10   2  -6   17.60   12.70
  10  -2  -6   24.30   42.00
 -10  -2   6   36.30    7.80
  10   2  -5 1520.55   88.59
 -10  -2   5 1595.34   87.69
  10  -2  -5 1801.92   95.99
  10   2  -4  226.88   19.70
 -10   2   4  184.88   28.40
 -10  -2   4  246.78   17.50
 -10   2   3  563.84   43.10
  10   2  -3  622.04   37.00
  10  -2  -3  593.54   42.00
 -10  -2   3  657.03   35.80
 -10   2   2   32.40   13.20
  10   2  -2    5.90    8.20
 -10  -2   2   19.70    7.00
  10  -2  -2   21.10   13.00
 -10   2   1  988.20   60.39
  10  -2  -1 1028.70   60.19
 -10   2   0  310.07   26.20
  10  -2   0  262.47   25.70
 -10   2  -1 1541.15   88.19
  10  -2   1 1600.34   87.59
 -10   2  -2   62.09   14.00
  10  -2   2   64.99   18.50
 -10   2  -3  425.76   33.50
 -10   2  -4  112.49   22.70
  10  -2   4   59.09   15.00
 -10   2  -5 1837.72  105.79
  10  -2   5 1946.81  105.29
 -10   2  -6   71.39   17.00
  10  -2   6   53.69   17.50
  10  -2   9  989.20   63.49
  10  -2  10   61.99   21.50
  10  -2  11   38.40   22.00
  10  -2  12   -8.30   23.60
 -10   3  12   16.80   38.50
 -10  -3  12    0.90   13.20
 -10   3  11  413.56   61.99
 -10  -3  11  426.46   33.00
 -10   3  10   47.60   32.50
 -10  -3  10   30.10   12.30
 -10   3   9   93.89   31.20
 -10  -3   9  125.69   19.70
 -10   3   8    6.90   24.80
 -10  -3   8   10.00    9.90
 -10   3   7  480.25   54.19
 -10  -3   7  534.85   34.80
  10   3  -5  411.06   34.80
 -10  -3   5  434.56   28.60
  10   3  -4   20.70   15.30
 -10  -3   4   13.70    9.20
  10   3  -3  236.68   26.30
 -10   3   3  211.78   35.10
 -10  -3   3  217.98   19.10
 -10   3   2   63.79   23.70
 -10  -3   2   59.49   10.80
 -10   3  -1   78.69   18.30
 -10   3  -2    7.90   16.20
 -10   3  -3  514.75   41.00
 -10   3  -4   10.10   16.10
  10  -3   8   26.80   19.80
  10  -3   9   13.20   20.60
  10  -3  10   -3.40   22.80
 -10   4   7   33.00   31.00
 -10  -4   7   24.30   15.70
 -10   4   6   40.20   28.10
 -10  -4   6   11.40   16.40
 -10   4   5   46.80   25.70
 -10  -4   5   39.10   16.60
 -10   4   4  257.17   45.10
 -10  -4   4  251.17   28.70
 -10   4   3   78.89   27.40
 -10  -4   3   71.79   18.40
 -10   4   2    6.70   24.00
 -10  -4   2    3.20   13.90
 -10   4   1   55.89   22.70
 -10   4   0  100.79   25.90
 -10   4  -1   70.59   23.50
 -10   4  -2   -8.40   21.50
 -11   0  16  227.38   35.80
 -11   0  15   -9.50   15.90
 -11   0  14  212.98   27.80
 -11   0  13    8.80   13.20
 -11   0  12  796.02   50.39
 -11   0  11    0.30   13.00
  11   0 -10  184.28   20.50
 -11   0  10  195.48   20.40
  11   0  -9  -13.10    9.40
 -11   0   9    4.60    8.40
 -11   0   8 1459.65   80.29
  11   0  -8 1427.96   83.19
 -11   0   7   -6.90    7.40
  11   0  -7  -11.30    9.90
  11   0  -6   36.30   11.30
 -11   0   6   41.20    9.70
 -11   0   5   -0.70    7.90
  11   0  -5  -15.50   10.60
  11   0  -4 3598.94  193.58
 -11   0   4 3667.53  192.88
 -11   0   3   -3.80    7.70
  11   0  -3   17.10   12.60
  11   0  -2  562.74   36.20
 -11   0   2  448.26   32.90
  11   0  -1   38.00   12.40
 -11   0   1    0.80    8.80
 -11   0   0 3357.56  184.48
  11   0   0 3587.74  184.88
  11   0   1   26.00   10.80
 -11   0  -1   -1.20    8.70
  11   0   2 1718.83   89.39
 -11   0  -2 1542.05   89.29
 -11   0  -3    4.10    9.90
 -11   1  15  184.88   32.90
 -11  -1  15  165.48   23.70
 -11   1  14  459.15   47.50
 -11  -1  14  391.16   32.10
 -11   1  13  103.99   23.70
 -11  -1  13   86.99   17.10
 -11   1  12   66.49   21.10
 -11  -1  12   51.09   10.70
 -11   1  11  168.38   28.70
 -11  -1  11  140.49   16.60
 -11   1  10  738.13   50.29
  11  -1 -10  647.04   44.20
 -11  -1  10  615.44   42.00
 -11   1   9  410.86   36.50
  11   1  -9  314.07   26.00
  11  -1  -9  273.07   28.70
 -11  -1   9  354.96   23.80
  11   1  -8    3.60    9.30
 -11   1   8   -4.60   14.10
 -11  -1   8    1.50    6.70
  11  -1  -8    2.10   16.50
 -11   1   7   40.80   15.40
  11   1  -7   34.80   10.30
 -11  -1   7   38.00    8.00
  11  -1  -7   39.80   14.00
  11   1  -6 1318.37   79.59
 -11   1   6 1641.84   85.79
 -11  -1   6 1350.76   78.39
  11  -1  -6 1484.15   83.09
 -11   1   5  666.33   43.90
  11   1  -5  550.84   39.00
 -11  -1   5  565.54   36.20
  11  -1  -5  716.13   43.50
  11   1  -4  178.28   21.20
 -11   1   4  230.48   25.40
 -11  -1   4  200.58   16.60
  11   1  -3   18.70   11.50
 -11   1   3   53.49   13.50
 -11  -1   3   40.30    8.20
  11  -1  -3   59.29   13.30
  11   1  -2 1464.15   80.29
 -11   1   2 1487.25   82.49
  11  -1  -2 1403.96   80.89
 -11  -1   2 1403.06   78.29
  11   1  -1  748.63   45.40
 -11   1   1  715.43   46.20
 -11  -1   1  730.43   42.60
  11  -1  -1  715.53   44.80
 -11   1   0  447.66   33.10
  11  -1   0  445.16   31.10
 -11   1  -1   17.30   11.10
  11  -1   1   13.30   10.50
 -11   1  -2  758.52   46.10
  11  -1   2  727.03   45.00
 -11   1  -3  136.89   20.20
  11  -1   3  126.19   18.80
 -11   1  -4  591.04   39.10
  11  -1   4  574.04   37.50
 -11   1  -5   27.60   13.00
  11  -1   5   10.60   11.70
 -11   1  -6  571.24   40.00
  11  -1   6  528.75   37.90
  11  -1   7   59.89   16.30
  11  -1   8  512.35   39.90
  11  -1   9   27.80   30.90
  11  -1  10   12.00   19.50
  11  -1  10    4.70   22.10
  11  -1  11   38.90   25.70
 -11   2  14  -72.89   46.60
 -11  -2  14   14.50   12.80
 -11   2  13  230.68   51.39
 -11  -2  13  243.78   24.10
 -11   2  12   63.39   41.20
 -11  -2  12   46.00   11.70
 -11   2  11  191.88   40.00
 -11  -2  11  165.38   18.40
 -11   2  10  -35.00   46.00
 -11  -2  10   17.20    8.80
 -11   2   9  520.55   53.79
 -11  -2   9  389.86   27.90
 -11   2   8  128.59   30.00
 -11  -2   8  134.99   15.50
  11   2  -7  183.08   21.00
 -11   2   7  195.38   30.20
 -11  -2   7  219.88   17.80
 -11   2   6  -30.20   18.60
 -11  -2   6    0.50    7.10
  11   2  -5  393.46   30.60
 -11  -2   5  446.86   28.40
  11  -2  -5  510.65   38.30
  11   2  -4  235.28   22.00
 -11   2   4  189.48   31.10
 -11  -2   4  269.47   19.20
 -11   2   3  732.23   55.89
  11   2  -3  914.31   50.69
  11  -2  -3  816.92   57.29
 -11  -2   3  974.70   49.40
  11   2  -2   20.70   10.10
 -11   2   2   23.00   15.00
 -11  -2   2   24.80    8.40
  11  -2  -2   22.10   19.30
 -11   2   1  108.39   22.60
  11  -2  -1   94.89   24.40
 -11   2   0  140.89   22.00
  11  -2   0   90.99   20.20
 -11   2  -1 1664.33   94.49
  11  -2   1 1669.53   93.49
 -11   2  -2  133.19   22.90
  11  -2   2   80.69   15.80
 -11   2  -3   19.80   14.90
  11  -2   3   18.90   12.80
 -11   2  -4   78.29   17.80
  11  -2   4   43.60   14.90
 -11   2  -5 1211.78   74.59
  11  -2   5 1274.27   74.99
 -11   2  -6  188.08   28.80
  11  -2  10   47.40   21.60
  11  -2  11  228.48   38.10
 -11   3  12  -21.60   44.30
 -11  -3  12    8.00   14.20
 -11   3  11  206.98   47.10
 -11  -3  11  306.77   28.20
 -11   3  10   85.89   38.50
 -11  -3  10   72.79   15.00
 -11   3   9  233.28   42.20
 -11  -3   9  314.87   26.70
 -11   3   8  -37.50   27.80
 -11  -3   8    7.10   10.50
 -11   3   7  150.78   31.50
 -11  -3   7  179.68   20.70
 -11   3   6   69.29   25.90
 -11  -3   6   71.39   12.80
 -11   3   5  570.94   50.49
 -11  -3   5  569.94   36.30
  11   3  -4   19.60   17.40
 -11   3   4   16.60   20.10
 -11  -3   4   10.30    9.50
 -11   3   3   20.90   19.00
 -11  -3   3   10.60   10.00
 -11   3   2   98.79   22.30
  11   3  -2  135.49   25.90
 -11  -3   2  101.79   16.40
 -11   3   1  778.32   53.79
 -11   3   0   42.40   17.40
 -11   3  -1   39.50   18.30
 -11   3  -2   64.29   19.80
 -11   3  -3  409.46   39.20
 -11   3  -4   28.40   18.90
 -11   3  -5    6.30   20.50
  11  -3   9   36.30   23.70
 -11   4   6   13.40   28.90
 -11  -4   6   16.20   17.60
 -11   4   5   17.60   27.20
 -11  -4   5   51.49   18.30
 -11   4   4  296.47   50.09
 -11  -4   4  303.37   33.10
 -11   4   3  116.69   31.20
 -11  -4   3  148.99   24.90
 -11   4   2   31.70   25.20
 -11  -4   2   13.20   16.60
 -11   4   1   15.90   24.40
 -11   4   0  164.68   31.80
 -11   4  -1   70.99   27.80
 -11   4  -2   87.09   27.00
 -12   0  15  -10.40   17.50
 -12   0  14   42.60   16.90
 -12   0  13    3.50   13.40
 -12   0  12  758.62   49.20
 -12   0  11  -11.70   10.80
 -12   0  10   44.40   12.20
 -12   0   9   -1.50    9.10
 -12   0   8 1291.47   70.79
  12   0  -8 1183.78   71.29
  12   0  -7    6.80   13.70
 -12   0   7    0.50    8.80
 -12   0   6  698.83   43.10
  12   0  -6  699.03   45.10
 -12   0   5  -12.10    9.10
  12   0  -5   -8.00   12.20
  12   0  -4 1412.66   77.49
 -12   0   4 1263.17   75.29
  12   0  -3   25.90   13.60
 -12   0   3   -1.50    8.80
 -12   0   2 1667.73   98.39
  12   0  -2 1908.41  100.19
  12   0  -1   28.90   13.90
 -12   0   1    2.80    9.80
 -12   0   0  453.75   33.80
  12   0   0  544.85   36.80
 -12   0  -1    5.70   10.10
  12   0   1   23.20   12.00
 -12   0  -2 3481.05  188.78
  12   0   2 3630.94  188.48
  12   0   3   13.80   11.20
 -12   0  -3   -1.70   10.90
 -12   1  15   77.49   29.50
 -12  -1  15   79.99   16.60
 -12   1  14  358.86   46.10
 -12  -1  14  273.27   28.30
 -12   1  13   82.89   23.40
 -12  -1  13   63.19   13.70
 -12   1  12   39.50   20.60
 -12  -1  12   19.70   10.50
 -12   1  11  168.58   32.40
 -12  -1  11  114.19   17.50
 -12   1  10  566.14   56.89
 -12  -1  10  461.35   32.20
 -12   1   9  482.85   41.70
  12  -1  -9  387.16   35.90
 -12  -1   9  380.06   28.10
  12   1  -8  432.96   31.00
  12  -1  -8  407.36   35.00
 -12  -1   8  438.06   28.60
 -12   1   7  135.49   27.50
  12   1  -7  132.69   21.20
  12  -1  -7  197.48   24.30
 -12  -1   7  143.89   15.60
 -12   1   6  517.05   38.00
  12   1  -6  389.96   32.90
 -12  -1   6  447.06   29.10
  12   1  -5  707.43   50.69
 -12   1   5  944.61   54.59
  12  -1  -5  938.81   53.99
 -12  -1   5  746.53   47.40
 -12   1   4  576.94   38.40
  12   1  -4  423.86   35.30
 -12  -1   4  479.45   30.90
  12   1  -3   63.99   15.90
 -12   1   3   89.99   15.90
 -12  -1   3   68.59   12.90
 -12   1   2  369.76   29.70
  12   1  -2  312.47   30.80
  12  -1  -2  351.06   28.10
 -12  -1   2  316.47   24.50
 -12   1   1  902.71   53.99
  12   1  -1  836.92   54.19
  12  -1  -1  866.51   52.19
 -12  -1   1  820.62   49.90
 -12   1   0  588.24   39.90
  12  -1   0  531.55   37.60
 -12   1  -1    0.70   12.30
  12  -1   1   -3.70   10.80
 -12   1  -2   60.89   14.70
  12  -1   2   46.90   13.70
 -12   1  -3  411.66   32.80
  12  -1   3  417.26   31.40
 -12   1  -4  528.45   38.20
  12  -1   4  515.45   37.00
 -12   1  -5  188.98   26.50
  12  -1   5  124.19   23.30
 -12   1  -6   19.50   15.80
  12  -1   6   -1.50   14.80
 -12   1  -7  296.47   32.90
  12  -1   7  277.47   31.90
  12  -1   9  168.88   27.40
  12  -1  10   -7.00   19.70
  12  -1  10    8.50   24.90
  12  -1  11   86.39   22.90
 -12   2  14  -50.59   45.60
 -12  -2  14    4.30   12.90
 -12   2  13  362.56   53.89
 -12  -2  13  250.07   25.80
 -12   2  12   67.39   39.00
 -12  -2  12   96.49   17.80
 -12   2  11  377.16   61.99
 -12  -2  11  287.17   24.30
 -12   2  10  -31.90   28.80
 -12  -2  10   16.90    9.30
 -12   2   9  371.16   50.99
 -12  -2   9  340.37   25.40
 -12  -2   8   94.49   17.00
  12   2  -7  697.33   53.49
 -12   2   7  776.82   58.19
 -12  -2   7  722.03   43.30
  12   2  -6   10.10   12.70
 -12   2   6  -30.30   19.80
 -12  -2   6   18.90    8.50
 -12   2   5   53.59   20.50
  12  -2  -5  129.89   25.90
 -12  -2   5   85.19   14.00
  12   2  -4   75.29   14.40
 -12   2   4   52.59   20.20
 -12  -2   4   88.49   13.90
  12   2  -3 1358.66   76.29
 -12  -2   3 1483.65   75.09
  12  -2  -3 1216.98   79.59
  12   2  -2  101.69   19.20
  12  -2  -2   57.09   17.40
 -12  -2   2   95.39   15.40
 -12   2   1   10.00   15.70
  12  -2  -1    8.80   14.00
 -12   2   0  117.09   24.20
  12  -2   0   83.59   16.70
 -12   2  -1 1479.15   87.39
  12  -2   1 1532.25   86.49
  12  -2   2  121.19   23.30
  12  -2   3  151.28   24.50
 -12   2  -4   36.70   17.80
 -12   2  -5  777.72   54.89
  12  -2  10   -4.80   22.40
  12  -2  11  163.48   28.80
 -12   3  11   58.99   45.50
 -12  -3  11   92.69   16.90
 -12   3  10   -8.40   39.80
 -12  -3  10   -2.40   12.50
 -12   3   9  143.59   42.60
 -12  -3   9  230.58   23.80
 -12  -3   8    5.90   12.70
 -12   3   7    2.10   30.20
 -12   3   6   -8.90   27.50
 -12  -3   6   16.50   11.30
 -12   3   5  391.46   46.80
 -12   3   4   38.00   22.70
  12   3  -4   33.90   19.40
 -12  -3   4   31.80   11.20
  12   3  -3    8.40   19.50
 -12   3   3    3.10   20.90
 -12  -3   3    8.40   10.20
 -12   3   2    0.10   20.00
 -12  -3   2   22.10   10.70
 -12   3   1  568.44   46.80
 -12   3   0   28.60   19.40
 -12   3  -1   35.10   21.30
 -12   3  -2   13.30   19.60
 -12   3  -3  403.56   42.40
 -12   3  -4    0.60   20.80
 -12   3  -5   46.00   23.90
 -12   4   5   -0.30   30.60
 -12  -4   5   -0.60   15.60
 -12   4   4  134.39   34.80
 -12  -4   4  122.79   21.20
 -12   4   3  125.19   33.70
 -12  -4   3   92.69   20.70
 -12   4   2   95.69   31.20
 -12   4   1   18.40   29.50
 -12   4   0   75.89   29.20
 -12   4  -1   19.30   30.00
 -12   4  -2  137.39   32.50
 -13   0  15    0.40   19.20
 -13   0  14   16.40   17.20
 -13   0  13    4.90   14.50
 -13   0  12  603.14   42.90
 -13   0  11    1.40   12.00
 -13   0  10  143.59   21.10
 -13   0   9   -3.50    9.90
  13   0  -8  821.62   56.69
 -13   0   8 1017.30   55.89
  13   0  -7   24.10   13.80
 -13   0   7    3.70    9.80
 -13   0   6  680.73   43.50
  13   0  -5   -4.40   13.50
  13   0  -4  646.34   41.90
 -13   0   4  505.45   37.40
  13   0  -3   38.70   15.80
 -13   0   3    1.50   10.30
 -13   0   2 1867.21  109.59
  13   0  -2 2123.19  111.19
  13   0  -1   40.00   14.60
 -13   0   1    1.90   10.80
 -13   0   0  237.18   24.90
  13   0   0  305.37   29.10
  13   0   1   29.90   14.80
 -13   0  -1    6.00   11.00
 -13   0  -2 2729.13  149.69
  13   0   2 2833.62  149.29
  13   0   3   13.40   12.20
 -13   0  -3  -13.60   12.50
 -13   1  15   54.09   29.70
 -13  -1  15   28.60   16.40
 -13   1  14  334.17   48.00
 -13  -1  14  235.98   27.30
 -13  -1  13  167.08   22.10
 -13   1  12   80.59   23.90
 -13  -1  12   36.30   11.60
 -13   1  11   89.99   23.10
 -13   1  10  542.65   47.50
 -13  -1  10  447.26   32.10
 -13  -1   9  231.18   27.80
 -13   1   8  275.07   33.60
 -13  -1   8  218.18   20.60
 -13   1   7   29.90   16.30
  13  -1  -7   61.79   16.00
 -13  -1   7   37.10    9.90
 -13   1   6 1043.40   61.19
  13   1  -6  779.22   62.79
 -13  -1   6  905.71   54.09
  13  -1  -6 1023.10   60.49
 -13   1   5  515.45   38.30
  13  -1  -5  514.95   37.70
 -13  -1   5  406.36   31.00
  13   1  -4  545.95   43.30
 -13  -1   4  643.54   37.90
  13   1  -3    1.90   16.50
 -13   1   3   47.10   14.20
 -13  -1   3   33.60   10.90
  13   1  -2  173.38   30.30
 -13   1   2  257.57   25.70
  13  -1  -2  251.27   25.20
 -13  -1   2  191.68   20.90
  13   1  -1  403.66   40.20
 -13   1   1  526.15   36.80
 -13  -1   1  407.96   31.50
  13  -1  -1  466.15   33.90
 -13   1   0  929.61   56.39
  13  -1   0  836.02   54.29
 -13   1  -1  128.39   24.40
  13  -1   1  129.09   22.50
 -13   1  -2   71.99   16.20
  13  -1   2   56.49   15.10
 -13   1  -3  299.47   30.30
  13  -1   3  288.97   28.80
 -13   1  -4 1267.27   74.59
  13  -1   4 1245.28   73.59
 -13   1  -5  459.35   37.70
  13  -1   5  408.86   37.20
 -13   1  -6   52.89   18.80
  13  -1   6   30.70   32.70
 -13   1  -7   86.69   20.30
  13  -1   7   80.89   24.00
  13  -1   8  551.14   47.80
  13  -1   9  282.97   43.80
  13  -1  10   51.79   22.30
  13  -1  10   93.89   56.59
 -13   2  13   52.49   41.60
 -13  -2  13   42.90   13.50
 -13   2  12   42.10   37.60
 -13  -2  12   28.50   12.40
 -13  -2  11  582.54   39.40
 -13   2  10   14.60   30.50
 -13  -2  10   26.00   10.60
 -13   2   9  -28.00   26.10
 -13  -2   9    1.80    9.30
 -13   2   8   60.89   26.80
 -13  -2   8   48.40   10.90
 -13   2   7 1030.00   71.89
  13   2  -6  173.08   25.40
 -13  -2   6  148.39   18.10
 -13   2   5  232.78   36.80
  13   2  -5  286.87   30.20
 -13  -2   5  294.67   22.90
  13   2  -4   22.70   16.10
 -13   2   4    6.00   18.80
 -13  -2   4   23.30   10.00
  13   2  -3  952.70   59.19
 -13  -2   3  989.40   56.39
 -13   2   2   98.49   22.60
  13  -2  -2  135.19   33.30
 -13  -2   2  150.18   18.70
 -13   2   1  439.46   39.80
 -13   2   0    0.30   16.60
 -13   2  -1  319.27   34.40
 -13   2  -2   94.49   20.80
 -13   2  -3  602.64   46.70
 -13   2  -5  139.19   27.80
  13   2   6  717.33  757.32
  13  -2  10  -11.60   24.80
 -13   3  10  -24.20   44.30
 -13  -3  10   42.90   14.70
 -13  -3   9  350.56   29.90
 -13  -3   8   19.50   12.00
 -13   3   7  -57.99   32.10
 -13  -3   7    5.70   12.10
 -13   3   6    0.10   30.40
 -13  -3   6   98.29   20.20
 -13   3   5  408.66   53.29
 -13  -3   5  538.75   35.00
 -13   3   4   12.80   24.20
 -13  -3   4   20.60   12.40
 -13   3   3   18.30   24.70
  13   3  -3   48.80   21.50
 -13  -3   3   56.29   13.50
 -13   3   2   19.60   22.80
 -13   3   1  415.66   43.40
 -13   3   0   44.00   21.80
 -13   3  -1  162.98   28.00
 -13   3  -2   33.00   24.10
 -13   3  -3  292.57   41.50
 -13   3  -4   -2.30   24.10
 -13   3  -5  290.57   42.00
 -13   4   3  147.49   39.50
 -13  -4   3  179.78   32.90
 -13   4   2  110.49   35.60
 -13   4   1   26.80   33.70
 -13   4   0   -4.60   32.10
 -14   0  15   17.90   20.50
 -14   0  14  242.28   33.40
 -14   0  13    5.10   16.00
 -14   0  12  205.68   27.90
 -14   0  11   11.40   12.80
 -14   0  10 1031.90   62.49
 -14   0   9   -5.50   11.00
 -14   0   8    8.10   10.90
 -14   0   7    1.60   11.10
  14   0  -7    9.20   14.40
 -14   0   6 1298.97   75.29
 -14   0   5   -9.70   10.60
  14   0  -5   11.90   22.50
  14   0  -4   63.29   17.90
 -14   0   4   25.00   12.10
 -14   0   3   -4.20   11.30
  14   0  -2 2156.68  115.19
 -14   0   2 1968.00  113.69
 -14   0   1   15.60   12.10
  14   0  -1   31.70   15.80
  14   0   0  196.78   26.60
 -14   0   0  143.79   22.60
 -14   0  -1    2.00   11.80
  14   0   1   14.60   15.60
 -14   0  -2  641.84   43.50
  14   0   2  652.73   44.20
  14   0   3   10.20   13.20
 -14   0  -3   -4.00   13.10
 -14  -1  14  229.38   28.70
 -14  -1  13  164.18   23.50
 -14  -1  12  147.59   22.20
 -14   1  11   55.59   22.90
 -14  -1  11   29.80   11.30
 -14   1  10  313.57   40.70
 -14  -1  10  239.28   23.70
 -14   1   9  221.28   36.50
 -14  -1   9  193.18   20.90
 -14   1   8  404.26   55.69
 -14   1   7  -17.50   15.00
  14   1  -7  -29.60   18.50
 -14  -1   7   -2.60    9.50
 -14   1   6  293.37   31.80
  14  -1  -6  345.27   34.60
 -14  -1   6  260.87   24.00
 -14   1   5  515.35   39.40
 -14  -1   5  450.05   33.40
  14  -1  -5  535.95   39.50
 -14   1   4 1274.37   71.89
 -14  -1   4 1054.59   67.49
  14  -1  -4 1229.18   70.59
  14   1  -3   24.60   20.90
 -14   1   3   70.19   16.50
 -14  -1   3   49.80   13.10
 -14   1   2    8.20   14.10
  14  -1  -2   12.50   16.70
 -14   1   1  564.54   39.30
  14   1  -1  387.46   44.90
 -14  -1   1  469.05   34.30
 -14   1   0 1693.23  101.69
 -14  -1   0 1887.11   99.69
 -14   1  -1  141.59   27.80
  14  -1   1  126.59   29.80
 -14   1  -2  209.28   29.60
 -14   1  -3   99.29   20.80
 -14   1  -4  759.62   52.89
 -14   1  -5  352.56   35.70
  14  -1   5  243.48   35.00
 -14   1  -6  423.86   41.90
  14  -1   6  420.56   42.60
 -14   1  -7   20.00   19.70
  14  -1   7   -1.70   24.50
  14  -1   8  258.87   44.60
  14  -1  10  324.37   57.69
 -14   2  13    3.60   40.20
 -14  -2  13   17.70   12.70
 -14   2  12   26.70   35.90
 -14  -2  12   32.20   13.30
 -14  -2  11  378.56   29.80
 -14   2  10   74.39   31.50
 -14  -2  10   67.09   13.30
 -14   2   9   20.80   27.80
 -14  -2   9   26.30   11.20
 -14   2   8  -14.70   23.20
 -14  -2   8   20.40   10.20
 -14   2   7  500.15   48.10
 -14  -2   7  469.55   33.70
 -14   2   6   58.79   24.50
 -14  -2   6   68.49   14.00
 -14   2   5  182.38   35.30
  14   2  -5  229.48   32.50
 -14  -2   5  213.58   22.20
 -14   2   4  -12.40   21.10
  14   2  -4   18.50   19.80
 -14  -2   4   14.90   12.00
  14   2  -3  734.13   51.79
 -14  -2   3  741.43   46.30
  14   2  -2  144.59   29.60
 -14  -2   2  107.39   16.90
 -14   2  -2   65.99   33.20
 -14   2  -3  274.87   37.10
 -14   2  -4   39.20   23.10
 -14   2  -5  141.49   28.00
  14   2   6  701.83  738.83
 -14   3  10  -36.10   48.00
 -14   3   9  223.28   49.70
 -14  -3   9  300.47   28.90
 -14   3   8  -54.19   38.00
 -14  -3   7   17.40   13.60
 -14  -3   6   21.30   14.50
 -14   3   5  249.78   40.60
 -14  -3   5  379.16   31.20
 -14   3   4   10.10   28.60
  14   3  -3  124.79   26.60
 -14   3   3   74.29   29.00
 -14  -3   3  158.68   22.50
 -14   3   2  -35.50   24.70
 -14   3   1  237.28   40.80
 -14   3   0   71.79   27.70
 -14   3  -1  339.47   45.80
 -14   3  -2    9.30   27.70
 -14   3  -3   82.29   28.60
 -14   3  -4   17.50   28.00
 -14   3  -5  307.27   47.00
 -15   0  14  282.37   35.10
 -15   0  13   15.70   16.60
 -15   0  12   83.49   17.60
 -15   0  11   14.70   13.80
 -15   0  10  933.11   58.69
 -15   0   9   -2.90   12.30
 -15   0   8   57.99   15.00
 -15   0   7  -13.00   12.30
 -15   0   6 1036.50   62.99
 -15   0   5    7.60   12.30
  15   0  -5   18.60   17.90
 -15   0   4   -5.80   12.70
  15   0  -4   53.99   19.10
 -15   0   3  -11.40   12.20
 -15   0   2  987.90   62.59
  15   0  -2 1095.39   65.79
  15   0  -1   43.10   17.80
 -15   0   1    3.60   13.00
  15   0   0  144.49   27.00
 -15   0   0   92.29   17.10
 -15   0  -1    6.00   13.90
  15   0   1   32.20   16.90
 -15   0  -2  828.52   52.69
  15   0   2  807.52   53.59
 -15   0  -3   -7.70   14.70
  15   0   3   11.20   15.50
 -15   1  14  170.18   35.60
 -15  -1  14   89.99   18.90
 -15  -1  13  233.58   29.60
 -15  -1  12  158.48   24.70
 -15   1  11   60.99   24.10
 -15  -1  11   24.40   13.10
 -15   1  10  204.58   28.70
 -15  -1  10  170.78   23.50
 -15   1   9  431.46   44.20
 -15  -1   9  375.46   31.20
 -15   1   8  671.13   49.00
 -15  -1   8  556.24   39.90
 -15   1   7  319.77   34.50
  15   1  -6  -33.50   22.10
 -15  -1   6   11.60   11.20
 -15   1   5  289.97   30.20
 -15  -1   5  231.48   24.40
 -15   1   4  895.91   54.79
  15  -1  -4  901.01   56.39
 -15  -1   4  701.13   50.79
 -15   1   3  603.04   40.20
  15   1  -3  414.36   47.40
 -15  -1   3  450.25   36.10
  15   1  -2   34.70   25.10
  15  -1  -2   67.69   19.50
 -15  -1   2   38.70   14.40
  15   1  -1   19.20   25.70
  15  -1  -1   27.70   15.50
 -15  -1   1   16.60   13.00
 -15   1   0 1254.57   70.99
  15  -1   0 1026.00   68.09
 -15   1  -1  780.72   53.59
  15  -1   1  733.73   51.39
 -15   1  -2  325.47   34.80
  15  -1   2  290.67   33.40
 -15   1  -3   44.90   20.70
  15  -1   3   43.60   19.60
 -15   1  -4  380.56   39.30
  15  -1   4  326.67   37.80
 -15   1  -5  518.45   44.00
  15  -1   5  431.66   44.00
 -15   1  -6  397.76   43.40
  15  -1   6  382.36   45.10
 -15   1  -7   50.49   23.50
  15  -1   7   60.09   50.09
 -15   2  12  -16.10   34.80
 -15  -2  12   10.50   13.60
 -15   2  11  323.37   56.09
 -15  -2  11  281.97   28.30
 -15   2  10   47.40   30.10
 -15  -2  10   48.20   14.40
  15  -2  -9 -142.19  784.72
 -15  -2   8    9.10   11.60
  15  -2  -8 -711.83  724.93
 -15   2   7  312.47   42.90
 -15  -2   7  314.07   27.60
 -15   2   6   70.59   24.20
 -15  -2   6  106.09   21.40
 -15   2   5  400.46   44.30
  15  -2  -5  258.57  666.63
 -15  -2   5  477.35   34.70
 -15   2   4   36.40   21.40
  15   2  -4   45.70   24.90
 -15  -2   4   30.70   14.20
 -15   2   3  188.28   35.00
  15   2  -3  262.67   53.09
 -15  -2   3  209.78   26.00
 -15   2   2   45.70   22.90
  15   2  -2   80.19   23.70
 -15  -2   2   51.79   16.60
 -15   2   1  347.97   40.70
 -15   2   0    6.80   21.10
 -15   2  -1   34.90   22.80
 -15   2  -2   32.00   23.10
 -15   2  -3  539.05   49.90
 -15   2  -4   85.19   27.40
 -15   2  -5   19.30   25.60
 -15   2  -6   -0.50   27.10
 -15   2  -7  396.46   50.59
 -15   3   9  196.88   52.59
 -15  -3   9  249.38   29.10
 -15  -3   8   -4.10   15.50
 -15  -3   7  199.28   25.70
 -15   3   6  -45.80   33.80
 -15  -3   6   27.10   15.60
 -15  -3   5  267.07   28.40
 -15   3   4   -3.40   30.60
 -15  -3   4   24.20   15.70
 -15  -3   3  501.15   40.10
 -15   3   1   49.60   29.00
 -15   3   0   41.60   27.60
 -15   3  -1  508.45   55.19
 -15   3  -2  -17.10   30.40
 -15   3  -3  -30.90   30.60
 -15   3  -4  -33.20   30.90
 -15   3  -5  251.07   51.39
 -16   0  13   10.00   17.50
 -16   0  12   16.70   16.60
 -16   0  11    0.20   14.60
 -16   0  10  667.93   48.10
 -16   0   9    6.90   14.20
 -16   0   8   16.70   13.50
 -16   0   7   -7.20   13.30
 -16   0   5   -5.60   13.10
  16   0  -4  487.55   40.30
 -16   0   4  372.16   35.30
  16   0  -3   61.39   20.90
 -16   0   2 1484.65   86.39
  16   0  -2 1516.05   88.49
 -16   0   1   31.40   14.30
  16   0   0  866.81   58.19
 -16   0   0  920.91   56.09
  16   0   1   20.70   17.80
 -16   0  -1    9.50   15.80
 -16   0  -2  711.13   47.90
  16   0   2  656.23   48.10
 -16   0  -3   -3.10   17.00
  16   0   3    3.20   18.30
 -16   0  -4  821.52   55.09
 -16   1  13  294.97   56.29
 -16  -1  12  315.07   31.80
 -16   1  11   46.50   24.50
 -16   1  10    3.40   21.30
 -16  -1  10    3.60   13.10
 -16   1   9   70.39   22.10
 -16  -1   9   77.09   15.40
 -16   1   8  527.35   44.10
 -16  -1   8  491.85   37.00
 -16   1   7  168.48   28.70
 -16  -1   7  125.09   21.80
 -16   1   6  179.18   28.50
 -16   1   5   60.09   16.70
  16   1  -5   23.30   37.70
 -16  -1   5   37.40   15.50
 -16  -1   4  555.44   41.00
  16   1  -3  308.37   47.60
 -16  -1   3  277.87   29.40
 -16   1   2  635.24   44.00
  16   1  -2  537.45   56.29
 -16  -1   2  552.34   41.30
 -16   1   1    9.10   17.70
  16   1  -1   13.50   27.80
 -16  -1   1    7.80   15.00
  16   1   0  399.06   48.80
 -16   1   0  406.56   38.80
 -16  -1   0  388.46   33.80
 -16   1  -1  373.86   39.20
  16  -1   1  344.87   37.00
 -16   1  -2  364.16   39.80
  16  -1   2  381.66   40.10
 -16   1  -3  -26.00   21.00
  16  -1   3   27.00   23.70
 -16   1  -4   60.49   24.10
 -16   1  -5  203.18   39.50
 -16   1  -6  344.57   43.70
 -16   2  11  154.48   36.90
 -16  -2  11  138.99   25.40
 -16   2  10   10.90   29.20
 -16  -2  10   11.30   13.80
 -16   2   9  161.58   32.80
 -16  -2   9  167.68   24.30
 -16   2   8  -40.10   22.50
 -16  -2   8   10.70   13.90
 -16   2   7  161.08   29.30
 -16  -2   7  191.48   25.10
 -16   2   6   26.60   23.30
 -16  -2   6   47.50   15.60
 -16   2   5  376.86   42.90
 -16  -2   5  349.87   44.30
 -16   2   4   -8.90   21.60
 -16  -2   4    2.70   15.20
  16   2  -3   76.69   30.10
 -16   2   3   44.90   23.40
 -16  -2   3   36.80   16.80
 -16   2   2   15.70   22.70
 -16  -2   2   -7.20   15.80
 -16   2   1  276.67   39.70
 -16   2   0    6.70   23.20
 -16   2  -1  -29.20   24.00
 -16   2  -2  -13.30   25.20
 -16   2  -3  235.48   43.40
 -16   2  -4   65.19   29.60
 -16   2  -5   39.70   30.90
 -16   2  -6  -39.00   29.90
 -16   2  -7  167.48   34.20
 -16  -3   7  340.07   36.30
 -16  -3   6   24.80   18.30
 -16   3   5   25.40   35.30
 -16  -3   5   50.99   19.30
 -16   3   4   15.50   32.20
 -16  -3   4   42.50   21.20
 -16   3   3  241.98   37.70
 -16   3   2  -47.50   28.40
 -16   3   0  -20.00   31.10
 -16   3  -1  214.68   39.10
 -16   3  -2   42.90   34.50
 -16   3  -3   -8.90   36.50
 -17   0  13   16.30   20.40
 -17   0  12    9.20   18.50
 -17   0  11    9.60   17.50
 -17   0  10  531.05   43.70
 -17   0   9   24.00   15.60
 -17   0   8  104.59   18.80
 -17   0   7    5.90   14.60
 -17   0   6  529.45   41.40
 -17   0   5    7.50   16.80
 -17   0   4  350.96   35.30
 -17   0   3    4.00   14.70
 -17   0   2  639.54   45.50
 -17   0   1   20.50   15.40
  17   0  -1   38.90   21.00
  17   0   0  869.31   58.39
 -17   0   0  882.91   56.09
  17   0   1   24.30   20.50
 -17   0  -1    6.40   17.60
 -17   0  -2   38.00   19.10
  17   0   3   -3.10   32.90
 -17   0  -4  682.63   51.49
 -17   1  12  389.16   54.39
 -17  -1  12  286.07   33.30
 -17   1  11  173.58   28.80
 -17  -1  11  149.88   27.50
 -17   1  10  103.79   24.80
 -17  -1  10  124.79   25.70
 -17   1   9  -25.30   17.70
 -17  -1   9   11.80   14.70
 -17   1   8  275.07   34.70
 -17  -1   8  273.77   29.10
 -17   1   7  368.96   36.00
 -17  -1   7  337.07   32.00
 -17   1   6  342.97   33.40
 -17  -1   6  245.28   29.80
 -17   1   5   10.20   15.60
 -17   1   4  196.28   28.40
 -17  -1   4  157.18   23.10
  17   1  -3  412.46   53.99
 -17   1   3  412.06   35.70
 -17  -1   3  327.17   33.60
  17   1  -2  434.76   56.39
 -17   1   2  423.96   38.60
 -17  -1   2  354.66   35.10
 -17  -1   1   21.50   17.10
  17   1   0   85.59   31.30
 -17  -1   0   54.99   17.30
 -17   1  -5  102.29   38.10
 -17   1  -6  163.28   32.40
 -17   1  -7   52.19   28.10
 -17   2  10   46.90   29.40
 -17  -2  10   77.39   18.70
  17  -2  -9 -274.67  845.22
 -17   2   8   26.10   24.90
 -17  -2   8   31.30   16.50
 -17   2   7   93.89   26.50
 -17  -2   7  102.09   20.10
 -17   2   6   25.30   22.90
 -17  -2   6   31.00   17.80
 -17   2   5  816.12   62.09
 -17  -2   5  860.11   56.69
 -17   2   4   98.69   26.90
 -17   2   3   -0.70   23.70
  17   2  -3   19.90   39.70
 -17  -2   3  -28.20   17.20
  17   2  -2   -1.20   33.40
 -17   2   2   18.90   24.10
 -17  -2   2  -14.20   18.30
 -17   2   1  797.62   61.09
 -17   2   0  185.18   31.10
 -17   2  -1  215.58   34.50
 -17   2  -2   -0.60   29.30
 -17   2  -3  413.86   52.89
 -17   2  -4  111.19   34.10
 -17   2  -5  230.48   39.90
 -17   2  -6  -50.99   32.50
 -17  -3   6   26.30   20.60
 -17   3   5   -6.00   35.70
 -17  -3   5   16.40   20.70
 -17   3   4  -56.89   32.20
 -17  -3   4   -5.20   20.70
 -17   3   3  177.38   38.90
 -17  -3   3  262.87   38.30
 -17   3   2  -57.49   31.30
 -17   3   0  -18.00   34.10
 -17   3  -1  140.99   38.80
 -17   3  -2   11.90   37.90
 -18   0  12   98.59   23.10
 -18   0  11   19.10   19.10
 -18   0  10  570.14   46.70
 -18   0   9   26.20   17.60
 -18   0   8  486.05   42.50
 -18   0   7  -13.50   15.90
 -18   0   6  321.67   35.30
 -18   0   5  -12.60   16.50
 -18   0   4 1477.95   87.29
 -18   0   3   21.50   26.50
 -18   0   2   50.99   18.00
 -18   0   1    4.50   16.20
 -18   0   0 1509.85   83.59
  18   0   0 1306.47   84.89
  18   0   1   16.70   20.90
 -18   0  -1   32.90   19.00
  18   0   2   43.50   22.40
 -18   0  -2   39.20   20.70
 -18   0  -3    8.10   20.70
  18   0   3   -4.80   22.20
 -18   1  11  104.69   27.50
 -18  -1  11  157.28   28.10
 -18   1  10   96.09   23.70
 -18  -1  10  134.59   27.10
 -18   1   9  -11.20   18.90
 -18  -1   9   23.10   16.40
 -18   1   8  184.58   33.00
 -18  -1   8  211.78   30.50
 -18   1   7  136.09   23.10
 -18  -1   7  119.99   21.20
 -18   1   6  359.06   35.30
 -18  -1   6  264.07   33.90
 -18   1   5   18.30   17.30
 -18  -1   5  -10.00   16.90
 -18   1   4  122.49   21.40
 -18  -1   4   78.69   21.40
 -18   1   3   95.29   21.00
 -18  -1   3   52.79   19.90
 -18   1   2  481.55   42.60
  18   1  -2  532.25   59.49
 -18  -1   2  440.86   40.90
 -18   1   1   56.19   21.80
  18   1  -1   97.49   34.50
 -18  -1   1   32.20   17.60
 -18   1   0   39.00   22.20
 -18  -1   0   52.79   18.30
 -18   1  -1  122.59   26.90
 -18   1  -2  546.55   50.89
 -18   1  -3   21.80   26.70
 -18   1  -4   12.50   28.20
 -18   1  -5   62.49   29.70
 -18   1  -6  319.57   52.79
 -18   1  -7   23.30   31.10
 -18   2   9  345.67   47.90
 -18  -2   9  381.96   39.40
 -18   2   8   -8.00   23.90
 -18  -2   8   38.50   18.50
 -18   2   7   10.80   23.90
 -18  -2   7    8.30   17.90
 -18   2   6   12.40   23.40
 -18  -2   6   13.20   20.90
 -18   2   5  453.65   46.40
 -18  -2   5  418.86   41.10
 -18   2   4   77.29   26.40
 -18  -2   4   35.90   21.90
 -18   2   3  149.88   31.10
 -18   2   2  -24.00   24.70
 -18  -2   2  -19.00   18.80
 -18   2   1  367.26   46.60
 -18   2   0   41.70   28.30
 -18   2  -1  236.98   38.00
 -18   2  -2  -22.50   31.70
 -18   2  -3   89.49   33.50
 -18   2  -4   12.10   35.40
 -18   2  -5  141.69   41.50
 -19   0  11   46.40   22.10
 -19   0  10  247.48   38.30
 -19   0   9   46.50   20.40
 -19   0   8  595.64   49.99
 -19   0   7   -7.50   18.40
 -19   0   6  -12.50   19.30
 -19   0   5  -20.90   17.20
 -19   0   4 1092.29   69.39
 -19   0   3   21.40   17.20
 -19   0   2   72.89   20.10
 -19   0   1    9.70   17.80
 -19   0  -1   45.40   22.00
 -19   0  -2  235.68   38.10
 -19   0  -3   18.80   23.40
 -19   1  10  154.78   27.30
 -19  -1  10  220.78   34.60
 -19   1   9   -1.90   19.30
 -19  -1   9    5.90   19.30
 -19   1   8   14.00   18.60
 -19  -1   8   16.70   20.00
 -19   1   7  303.97   35.40
 -19  -1   7  225.28   36.10
 -19   1   6  321.67   35.20
 -19  -1   6  235.18   34.70
 -19   1   5   68.59   19.90
 -19  -1   5   53.99   20.40
 -19   1   4   21.30   17.50
 -19  -1   4    6.50   18.80
 -19   1   3  298.47   36.30
 -19  -1   3  303.17   37.50
 -19   1   2  416.06   42.20
 -19   1   1  233.78   37.00
 -19  -1   1  199.58   33.10
  19   1   0   77.59   35.80
 -19   1   0   52.89   24.20
  19  -1   1  839.12  705.43
 -19   1  -2  330.87   46.70
 -19   1  -3  150.78   32.80
 -19   1  -4   94.09   32.40
 -19   1  -5   41.60   32.10
 -19   1  -6  175.38   38.30
 -19   2   8  100.89   28.20
 -19  -2   8  116.89   26.50
 -19   2   7   97.59   27.50
 -19  -2   7   84.29   23.50
 -19   2   6   13.20   24.00
 -19  -2   6   -2.70   21.90
 -19   2   5  443.86   47.00
 -19  -2   5  357.26   44.20
 -19   2   4  136.79   29.60
 -19   2   3  264.77   44.10
 -19  -2   3  225.78   38.40
 -19   2   2   -4.40   27.40
 -19   2   1  167.18   32.50
 -19   2   0   53.59   30.70
 -19   2  -1  249.08   40.00
 -19   2  -2   37.00   35.30
 -19   2  -3   31.80   38.20
 -20   0  10   63.29   24.40
 -20   0   9    8.70   22.50
 -20   0   8  563.74   51.39
 -20   0   7  -18.10   20.70
 -20   0   6  -17.00   19.90
 -20   0   5  -13.10   19.00
 -20   0   4  676.53   51.19
 -20   0   3   14.80   18.70
 -20   0   2   42.70   19.80
 -20   0   1   13.80   19.50
 -20   0   0  575.74   49.00
 -20   0  -1   30.50   23.40
 -20   0  -2  191.78   30.50
 -20   1   9    9.40   21.30
 -20  -1   9   58.19   23.90
 -20   1   8   -0.50   19.50
 -20  -1   8    3.50   23.60
 -20   1   7   56.89   20.90
 -20  -1   7   45.70   23.80
 -20   1   6  414.96   40.40
 -20  -1   6  371.76   42.60
 -20   1   5   96.09   22.00
 -20  -1   5  108.09   24.30
 -20   1   4   33.20   20.80
 -20  -1   4   25.10   22.80
 -20   1   3   43.80   22.30
 -20  -1   3   21.50   23.60
 -20   1   2  393.86   44.10
 -20  -1   2  451.25   43.30
 -20   1   1  206.48   39.10
 -20  -1   1  173.48   36.60
 -20   1   0  109.79   28.30
 -20  -1   0   82.59   23.80
 -20   1  -1   42.60   28.30
 -20   1  -2  280.97   48.40
 -20   1  -3   43.60   33.80
 -20   1  -4  125.99   35.60
 -20   2   5   51.29   26.80
 -20  -2   5  -13.80   26.10
 -20   2   4   32.30   26.60
 -20  -2   4    2.80   24.70
 -20   2   3  237.68   46.80
 -20  -2   3  282.57   42.90
 -20   2   2   53.39   30.10
 -20   2   1   21.90   31.10
 -20   2   0   -6.90   32.60
 -21   0   8  217.58   43.10
 -21   0   7  -27.30   22.60
 -21   0   6  113.59   26.00
 -21   0   5  -20.40   20.80
 -21   0   4  242.18   36.70
 -21   0   3    2.40   20.50
 -21   0   2  288.17   37.40
 -21   0   1    7.70   22.60
 -21   0   0  209.78   40.20
 -21   0  -1    9.90   25.80
 -21   0  -2  382.26   48.90
 -21   0  -3   25.80   28.90
 -21   1   7   48.70   22.50
 -21  -1   7   24.60   25.90
 -21   1   6  331.77   39.60
 -21  -1   6  382.56   45.70
 -21   1   5  233.28   35.30
 -21  -1   5  210.48   40.90
 -21   1   4  257.67   38.00
 -21  -1   4  216.48   42.30
 -21   1   3    5.10   23.20
 -21  -1   3   16.30   24.60
 -21   1   2  135.39   28.30
 -21  -1   2  136.79   27.10
 -21   1   1  252.27   43.80
 -21  -1   1  231.28   38.80
 -21   1   0  375.86   49.99
 -21   1  -1   44.10   30.10
 -21   1  -2  -15.10   31.70
 -22   0   5   11.50   22.90
 -22   0   4  254.77   40.00
 -22   0   3    8.80   23.00
 -22   0   2  272.07   40.70
 -22   0   1   20.50   25.40
 -22   0   0  274.47   44.20

_computing_structure_solution     'SHELXT 2014/4 (Sheldrick, 2014)'
;
_shelx_hkl_checksum              11228
loop_
_space_group_symop_operation_xyz
'x, y, z'
'-x, y+1/2, -z+1/2'
'-x, -y, -z'
'x, -y-1/2, z-1/2'
loop_
_atom_site_label
_atom_site_type_symbol
_atom_site_fract_x
_atom_site_fract_y
_atom_site_fract_z
_atom_site_U_iso_or_equiv
_atom_site_adp_type
_atom_site_occupancy
_atom_site_site_symmetry_order
_atom_site_calc_flag
_atom_site_refinement_flags_posn
_atom_site_refinement_flags_adp
Tl1 Tl 0.05469(3) 0.84810(14) 0.13750(4) 0.0328(3) Uani 1 1 d . .
C1 C 0.0953(9) 0.942(3) 0.4034(10) 0.027(3) Uani 1 1 d . .
C2 C 0.1751(8) 0.808(4) 0.4213(9) 0.023(3) Uani 1 1 d . .
H2A H 0.2097 0.9932 0.4402 0.028 Uiso 1 1 calc R U
H2B H 0.1801 0.6489 0.4749 0.028 Uiso 1 1 calc R U
C3 C 0.2689(7) 0.525(3) 0.3485(10) 0.024(3) Uani 1 1 d . .
C4 C 0.2904(9) 0.379(3) 0.2665(10) 0.028(3) Uani 1 1 d . .
C5 C 0.3624(9) 0.247(4) 0.2693(11) 0.031(4) Uani 1 1 d . .
H5 H 0.3772 0.1508 0.2144 0.037 Uiso 1 1 calc R U
C6 C 0.4110(9) 0.263(4) 0.3553(11) 0.032(3) Uani 1 1 d . .
C7 C 0.3901(10) 0.401(3) 0.4374(11) 0.033(3) Uani 1 1 d . .
H7 H 0.4236 0.4045 0.4955 0.039 Uiso 1 1 calc R U
C8 C 0.3201(9) 0.534(4) 0.4323(11) 0.033(3) Uani 1 1 d . .
H8 H 0.3062 0.6331 0.4874 0.040 Uiso 1 1 calc R U
Cl1 Cl 0.2272(3) 0.3596(10) 0.1583(3) 0.0414(10) Uani 1 1 d . .
Cl2 Cl 0.5025(2) 0.0991(11) 0.3604(3) 0.0465(11) Uani 1 1 d . .
O1 O 0.0821(6) 1.131(3) 0.4716(8) 0.038(3) Uani 1 1 d . .
O2 O 0.0511(6) 0.861(3) 0.3311(7) 0.036(3) Uani 1 1 d . .
O3 O 0.1958(6) 0.647(2) 0.3390(7) 0.031(2) Uani 1 1 d . .
loop_
_atom_site_aniso_label
_atom_site_aniso_U_11
_atom_site_aniso_U_22
_atom_site_aniso_U_33
_atom_site_aniso_U_23
_atom_site_aniso_U_13
_atom_site_aniso_U_12
Tl1 0.0296(4) 0.0383(4) 0.0301(4) 0.0000(3) 0.0038(3) -0.0025(3)
C1 0.029(8) 0.021(7) 0.028(8) 0.000(6) -0.003(7) -0.005(6)
C2 0.023(7) 0.038(8) 0.006(5) -0.005(5) -0.009(5) -0.002(6)
C3 0.016(7) 0.027(7) 0.027(7) -0.005(6) 0.002(6) 0.001(6)
C4 0.032(8) 0.026(7) 0.024(7) 0.005(6) 0.001(7) 0.002(6)
C5 0.043(10) 0.022(7) 0.031(8) -0.003(6) 0.016(8) 0.001(7)
C6 0.021(8) 0.037(8) 0.037(9) 0.010(7) 0.004(7) 0.007(7)
C7 0.041(10) 0.032(8) 0.025(7) 0.004(6) 0.004(7) 0.000(7)
C8 0.031(9) 0.042(8) 0.026(8) -0.004(7) 0.003(7) 0.007(8)
Cl1 0.040(2) 0.056(3) 0.0260(19) -0.0078(17) -0.0018(18) 0.0051(19)
Cl2 0.031(2) 0.053(2) 0.053(3) -0.001(2) 0.001(2) 0.0144(19)
O1 0.038(7) 0.048(7) 0.029(6) -0.005(5) 0.004(5) 0.009(5)
O2 0.027(6) 0.056(7) 0.024(5) -0.001(5) -0.003(5) 0.005(5)
O3 0.020(5) 0.048(6) 0.026(5) -0.009(5) 0.002(4) 0.005(5)
loop_
_atom_type_symbol
_atom_type_description
_atom_type_scat_dispersion_real
_atom_type_scat_dispersion_imag
_atom_type_scat_source
C C 0.0033 0.0016 'International Tables Vol C Tables 4.2.6.8 and 6.1.1.4'
H H 0.0000 0.0000 'International Tables Vol C Tables 4.2.6.8 and 6.1.1.4'
O O 0.0106 0.0060 'International Tables Vol C Tables 4.2.6.8 and 6.1.1.4'
Cl Cl 0.1484 0.1585 'International Tables Vol C Tables 4.2.6.8 and 6.1.1.4'
Tl Tl -2.8358 9.6688 'International Tables Vol C Tables 4.2.6.8 and 6.1.1.4'
loop_
_geom_angle_atom_site_label_1
_geom_angle_atom_site_label_2
_geom_angle_atom_site_label_3
_geom_angle
_geom_angle_site_symmetry_3
O2 Tl1 O2 74.7(3) 2_545
O2 C1 O1 127.1(15) .
O2 C1 C2 121.3(12) .
O1 C1 C2 111.6(13) .
O3 C2 C1 112.7(12) .
O3 C2 H2A 109.1 .
C1 C2 H2A 109.1 .
O3 C2 H2B 109.1 .
C1 C2 H2B 109.1 .
H2A C2 H2B 107.8 .
C8 C3 O3 124.9(12) .
C8 C3 C4 118.6(13) .
O3 C3 C4 116.5(13) .
C3 C4 C5 120.7(14) .
C3 C4 Cl1 120.4(12) .
C5 C4 Cl1 118.9(11) .
C6 C5 C4 118.0(13) .
C6 C5 H5 121.0 .
C4 C5 H5 121.0 .
C5 C6 C7 122.0(15) .
C5 C6 Cl2 118.8(12) .
C7 C6 Cl2 119.2(14) .
C8 C7 C6 118.8(17) .
C8 C7 H7 120.6 .
C6 C7 H7 120.6 .
C7 C8 C3 121.9(14) .
C7 C8 H8 119.1 .
C3 C8 H8 119.1 .
C1 O2 Tl1 135.6(9) .
C1 O2 Tl1 93.3(9) 2
Tl1 O2 Tl1 106.9(4) 2
C3 O3 C2 116.3(11) .
loop_
_geom_bond_atom_site_label_1
_geom_bond_atom_site_label_2
_geom_bond_distance
_geom_bond_site_symmetry_2
Tl1 O2 2.708(10) .
Tl1 O2 2.786(10) 2_545
C1 O2 1.223(18) .
C1 O1 1.261(16) .
C1 C2 1.51(2) .
C2 O3 1.412(14) .
C2 H2A 0.9700 .
C2 H2B 0.9700 .
C3 C8 1.37(2) .
C3 O3 1.381(16) .
C3 C4 1.386(18) .
C4 C5 1.39(2) .
C4 Cl1 1.740(16) .
C5 C6 1.37(2) .
C5 H5 0.9300 .
C6 C7 1.37(2) .
C6 Cl2 1.754(15) .
C7 C8 1.35(2) .
C7 H7 0.9300 .
C8 H8 0.9300 .
O2 Tl1 2.787(10) 2
