#------------------------------------------------------------------------------
#$Date: 2017-01-09 05:02:49 +0200 (Mon, 09 Jan 2017) $
#$Revision: 190064 $
#$URL: file:///home/coder/svn-repositories/cod/cif/7/22/68/7226836.cif $
#------------------------------------------------------------------------------
#
# This file is available in the Crystallography Open Database (COD),
# http://www.crystallography.net/
#
# All data on this site have been placed in the public domain by the
# contributors.
#
data_7226836
loop_
_publ_author_name
'Collings, Ines E.'
'Bykov, Maxim'
'Bykova, Elena'
'Tucker, Matthew G.'
'Petitgirard, Sylvain'
'Hanfland, Michael'
'Glazyrin, Konstantin'
'van Smaalen, Sander'
'Goodwin, Andrew L.'
'Dubrovinsky, Leonid'
'Dubrovinskaia, Natalia'
_publ_section_title
;
 Structural distortions in the high-pressure polar phases of ammonium
 metal formates
;
_journal_issue                   46
_journal_name_full               CrystEngComm
_journal_page_first              8849
_journal_paper_doi               10.1039/C6CE01891B
_journal_volume                  18
_journal_year                    2016
_chemical_formula_sum            'C3 H7 Fe N O6'
_chemical_formula_weight         208.9
_chemical_name_systematic        'ammonium iron formate'
_space_group_IT_number           4
_symmetry_cell_setting           monoclinic
_symmetry_Int_Tables_number      4
_symmetry_space_group_name_Hall  'P 2yb'
_symmetry_space_group_name_H-M   'P 1 21 1'
_audit_update_record
;
2016-08-29 deposited with the CCDC.
2016-10-19 downloaded from the CCDC.
;
_cell_angle_alpha                90
_cell_angle_beta                 116.64(11)
_cell_angle_gamma                90
_cell_formula_units_Z            2
_cell_length_a                   6.668(6)
_cell_length_b                   8.298(4)
_cell_length_c                   7.393(6)
_cell_measurement_reflns_used    859
_cell_measurement_temperature    293
_cell_measurement_theta_max      9.28
_cell_measurement_theta_min      1.72
_cell_volume                     365.6(6)
_computing_cell_refinement       'CrysAlisPro 1.171.38.41 (Rigaku OD, 2015)'
_computing_data_collection       'CrysAlisPro 1.171.38.41 (Rigaku OD, 2015)'
_computing_data_reduction        'CrysAlisPro 1.171.38.41 (Rigaku OD, 2015)'
_computing_structure_refinement  JANA2006
_computing_structure_solution    'superflip in JANA'
_diffrn_ambient_temperature      293
_diffrn_detector                 'CCD plate'
_diffrn_measured_fraction_theta_full 0.95
_diffrn_measured_fraction_theta_max 0.95
_diffrn_measurement_device       'P02.2 Beamline, DESY'
_diffrn_measurement_method       '\w scans'
_diffrn_radiation_monochromator  synchrotron
_diffrn_radiation_probe          x-ray
_diffrn_radiation_source         synchrotron
_diffrn_radiation_type           synchrotron
_diffrn_radiation_wavelength     0.2903
_diffrn_reflns_av_R_equivalents  0.1405
_diffrn_reflns_av_unetI/netI     0.1338
_diffrn_reflns_limit_h_max       7
_diffrn_reflns_limit_h_min       -7
_diffrn_reflns_limit_k_max       9
_diffrn_reflns_limit_k_min       -9
_diffrn_reflns_limit_l_max       8
_diffrn_reflns_limit_l_min       -8
_diffrn_reflns_number            4154
_diffrn_reflns_theta_full        9.29
_diffrn_reflns_theta_max         9.29
_diffrn_reflns_theta_min         1.61
_diffrn_source                   synchrotron
_exptl_absorpt_coefficient_mu    0.177
_exptl_absorpt_correction_T_max  1
_exptl_absorpt_correction_T_min  0.541
_exptl_absorpt_correction_type   multi-scan
_exptl_absorpt_process_details
;
CrysAlisPro 1.171.38.41 (Rigaku Oxford Diffraction, 2015)
Empirical absorption correction using spherical harmonics,
 implemented in SCALE3 ABSPACK scaling algorithm.
;
_exptl_crystal_colour            colourless
_exptl_crystal_density_diffrn    1.8978
_exptl_crystal_description       'irregular block'
_exptl_crystal_F_000             204
_exptl_crystal_size_max          0.045
_exptl_crystal_size_mid          0.025
_exptl_crystal_size_min          0.015
_refine_diff_density_max         0.58
_refine_diff_density_min         -0.44
_refine_ls_abs_structure_details
'  567 of Friedel pairs used in the refinement'
_refine_ls_extinction_method     none
_refine_ls_goodness_of_fit_gt    3.31
_refine_ls_goodness_of_fit_ref   2.44
_refine_ls_hydrogen_treatment    constr
_refine_ls_number_constraints    21
_refine_ls_number_parameters     46
_refine_ls_number_reflns         3250
_refine_ls_number_restraints     0
_refine_ls_R_factor_all          0.1914
_refine_ls_R_factor_gt           0.1431
_refine_ls_shift/su_max          0.0335
_refine_ls_shift/su_mean         0.0071
_refine_ls_structure_factor_coef F
_refine_ls_weighting_details     w=1/(\s^2^(F)+0.0001F^2^)
_refine_ls_weighting_scheme      sigma
_refine_ls_wR_factor_gt          0.1562
_refine_ls_wR_factor_ref         0.1657
_reflns_number_gt                1549
_reflns_number_total             3250
_reflns_threshold_expression     I>3\s(I)
_cod_data_source_file            c6ce01891b2.cif
_cod_data_source_block           I
_cod_depositor_comments
;
The following automatic conversions were performed:

'_diffrn_radiation_probe' value 'X-ray' changed to 'x-ray' according
to
/usr/data/users/saulius/crontab/automatic-downloads/rss-feeds/RSC/lib/dictionaries/cif_core.dic
dictionary named 'cif_core.dic' version 2.4.2 from 2011-04-26.

Automatic conversion script
Id: cif_fix_values 4268 2015-11-12 08:31:59Z antanas 

 Adding full bibliography for 7226831--7226836.cif.
;
_cod_original_formula_sum        'C3 H7 Fe1 N1 O6'
_cod_database_code               7226836
loop_
_space_group_symop_id
_space_group_symop_operation_xyz
1 x,y,z
2 -x,y+1/2,-z
loop_
_atom_site_label
_atom_site_type_symbol
_atom_site_fract_x
_atom_site_fract_y
_atom_site_fract_z
_atom_site_adp_type
_atom_site_U_iso_or_equiv
_atom_site_site_symmetry_multiplicity
_atom_site_occupancy
_atom_site_calc_flag
Fe1 Fe 0.3394(4) 0.25 0.6782(3) Uani 0.0661(10) 2 1 d
O1 O 0.103(2) 0.1058(16) 0.7032(17) Uiso 0.0784(13) 2 1 d
O2 O 0.314(2) 0.1062(15) 0.4424(16) Uiso 0.0784(13) 2 1 d
O3 O 0.5953(19) 0.1142(16) 0.8949(16) Uiso 0.0784(13) 2 1 d
O4 O 0.117(2) 0.3942(15) 0.4410(15) Uiso 0.0784(13) 2 1 d
O5 O 0.6263(19) 0.3874(16) 0.7078(17) Uiso 0.0784(13) 2 1 d
O6 O 0.297(2) 0.4038(16) 0.8936(16) Uiso 0.0784(13) 2 1 d
C1 C 0.070(3) 0.535(2) 0.449(3) Uiso 0.0784(13) 2 1 d
C2 C 0.583(3) 0.473(2) 0.562(3) Uiso 0.0784(13) 2 1 d
C3 C 0.541(3) 0.008(2) 0.977(3) Uiso 0.0784(13) 2 1 d
N1 N 1.037(2) 0.247(3) 1.0518(17) Uiso 0.078(3) 2 1 d
H1 H 0.158697 0.596454 0.568302 Uiso 0.0941 2 1 d
H2 H 0.46036 0.439669 0.436363 Uiso 0.0941 2 1 d
H3 H 0.387578 -0.003461 0.952385 Uiso 0.0941 2 1 d
loop_
_atom_site_aniso_label
_atom_site_aniso_type_symbol
_atom_site_aniso_U_11
_atom_site_aniso_U_22
_atom_site_aniso_U_33
_atom_site_aniso_U_12
_atom_site_aniso_U_13
_atom_site_aniso_U_23
Fe1 Fe 0.0900(18) 0.0373(11) 0.0549(12) 0.0028(14) 0.0183(11) -0.0025(15)
loop_
_atom_type_symbol
_atom_type_scat_dispersion_real
_atom_type_scat_dispersion_imag
_atom_type_scat_source
C -0.0010 0.0002 'International Tables Vol C tables 4.2.6.8 and 6.1.1.1'
H 0.0000 0.0000 'International Tables Vol C tables 4.2.6.8 and 6.1.1.1'
Fe 0.1036 0.1542 'International Tables Vol C tables 4.2.6.8 and 6.1.1.1'
N -0.0011 0.0004 'International Tables Vol C tables 4.2.6.8 and 6.1.1.1'
O -0.0009 0.0008 'International Tables Vol C tables 4.2.6.8 and 6.1.1.1'
loop_
_geom_angle_atom_site_label_1
_geom_angle_atom_site_label_2
_geom_angle_atom_site_label_3
_geom_angle_site_symmetry_1
_geom_angle_site_symmetry_3
_geom_angle
O1 Fe1 O2 . . 87.9(6)
O1 Fe1 O3 . . 90.8(5)
O1 Fe1 O4 . . 97.2(5)
O2 Fe1 O3 . . 93.8(5)
O2 Fe1 O4 . . 82.1(5)
O3 Fe1 O4 . . 170.9(6)
Fe1 O1 C1 . 2_546 126.0(13)
Fe1 O2 C2 . 2_646 131.6(10)
Fe1 O3 C3 . . 117.1(12)
Fe1 O4 C1 . . 127.6(10)
O1 C1 O4 2_556 . 121.8(15)
O1 C1 H1 2_556 . 119.09
O4 C1 H1 . . 119.09
O2 C2 O5 2_656 . 126.5(14)
O2 C2 H2 2_656 . 116.75
O5 C2 H2 . . 116.75
O3 C3 O6 . 2_647 119.0(19)
O3 C3 H3 . . 120.5
O6 C3 H3 2_647 . 120.5
loop_
_geom_bond_atom_site_label_1
_geom_bond_atom_site_label_2
_geom_bond_site_symmetry_2
_geom_bond_distance
Fe1 O1 . 2.054(15)
Fe1 O2 . 2.056(13)
Fe1 O3 . 2.072(12)
Fe1 O4 . 2.091(11)
O1 C1 2_546 1.331(19)
O2 C2 2_646 1.31(2)
O3 C3 . 1.21(3)
O4 C1 . 1.22(2)
O5 C2 . 1.22(2)
O6 C3 2_657 1.38(2)
C1 H1 . 0.96
C2 H2 . 0.96
C3 H3 . 0.96
loop_
_twin_individual_id
_twin_individual_mass_fraction_refined
_twin_individual_twin_matrix_11
_twin_individual_twin_matrix_12
_twin_individual_twin_matrix_13
_twin_individual_twin_matrix_21
_twin_individual_twin_matrix_22
_twin_individual_twin_matrix_23
_twin_individual_twin_matrix_31
_twin_individual_twin_matrix_32
_twin_individual_twin_matrix_33
1 0.138(6) 1 0 0 0 1 0 0 0 1
2 0.141(2) 1 0 0 0 -1 0 0.8088 0 -1
3 0.189(2) -0.0656 0 -1.0742 0 1 0 0.8739 0 -0.9344
4 0.220(3) -0.9344 0 1.0742 0 -1 0 0.1182 0 0.9344
5 0.176(3) -0.9344 0 1.0742 0 1 0 -0.8739 0 -0.0656
6 0.136(3) -0.0656 0 -1.0742 0 -1 0 -0.927 0 0.0656
loop_
_twin_refln_datum_id
_twin_refln_individual_id
_twin_refln_index_h
_twin_refln_index_k
_twin_refln_index_l
_twin_refln_f_squared_calc
_twin_refln_f_squared_meas
_twin_refln_f_squared_sigma
_twin_refln_include_status
1 2 1 -2 0 7.55 7.04 0.99 o
1 1 1 2 0 7.55 7.04 0.99 o
2 2 1 2 0 7.56 7.60 0.94 o
2 1 1 -2 0 7.56 7.60 0.94 o
3 2 2 -2 0 75.89 60.97 6.37 o
3 1 2 2 0 75.89 60.97 6.37 o
4 2 2 2 0 75.89 63.03 9.00 o
4 1 2 -2 0 75.89 63.03 9.00 o
5 2 1 -3 0 95.93 107.94 6.20 o
5 1 1 3 0 95.93 107.94 6.20 o
6 2 1 3 0 95.92 104.89 5.65 o
6 1 1 -3 0 95.92 104.89 5.65 o
7 2 2 -3 0 379.41 415.38 35.87 o
7 1 2 3 0 379.41 415.38 35.87 o
8 2 2 3 0 379.41 416.88 40.47 o
8 1 2 -3 0 379.41 416.88 40.47 o
9 2 3 -3 0 32.46 32.23 2.42 o
9 1 3 3 0 32.46 32.23 2.42 o
10 2 1 -4 0 40.66 32.58 4.00 o
10 1 1 4 0 40.66 32.58 4.00 o
11 2 1 4 0 40.66 27.97 3.40 o
11 1 1 -4 0 40.66 27.97 3.40 o
12 2 2 -4 0 2.53 4.81 1.47 o
12 1 2 4 0 2.53 4.81 1.47 o
13 2 2 4 0 2.53 4.08 0.97 o
13 1 2 -4 0 2.53 4.08 0.97 o
14 2 3 -4 0 45.08 46.92 3.68 o
14 1 3 4 0 45.08 46.92 3.68 o
15 2 3 4 0 45.08 54.76 6.96 o
15 1 3 -4 0 45.08 54.76 6.96 o
16 2 4 -4 0 0.11 0.10 0.13 <
16 1 4 4 0 0.11 0.10 0.13 <
17 2 1 -5 0 110.88 110.01 8.72 o
17 1 1 5 0 110.88 110.01 8.72 o
18 2 1 5 0 110.88 102.79 8.46 o
18 1 1 -5 0 110.88 102.79 8.46 o
19 2 2 -5 0 110.41 75.60 6.94 o
19 1 2 5 0 110.41 75.60 6.94 o
20 2 2 5 0 110.41 82.82 5.49 o
20 1 2 -5 0 110.41 82.82 5.49 o
21 2 3 -5 0 0.72 1.22 0.68 <
21 1 3 5 0 0.72 1.22 0.68 <
22 2 3 5 0 0.72 1.62 0.52 o
22 1 3 -5 0 0.72 1.62 0.52 o
23 2 4 -5 0 14.25 6.26 1.27 o
23 1 4 5 0 14.25 6.26 1.27 o
24 2 4 5 0 14.25 14.45 1.54 o
24 1 4 -5 0 14.25 14.45 1.54 o
25 2 5 -5 0 6.64 9.49 2.07 o
25 1 5 5 0 6.64 9.49 2.07 o
26 2 1 -6 0 14.68 25.91 4.65 o
26 1 1 6 0 14.68 25.91 4.65 o
27 2 1 6 0 14.68 31.98 5.40 o
27 1 1 -6 0 14.68 31.98 5.40 o
28 2 2 -6 0 21.60 21.68 4.16 o
28 1 2 6 0 21.60 21.68 4.16 o
29 2 2 6 0 21.60 23.80 3.28 o
29 1 2 -6 0 21.60 23.80 3.28 o
30 2 3 -6 0 58.41 49.24 5.77 o
30 1 3 6 0 58.41 49.24 5.77 o
31 2 3 6 0 58.41 51.94 3.78 o
31 1 3 -6 0 58.41 51.94 3.78 o
32 2 4 -6 0 9.56 9.47 2.15 o
32 1 4 6 0 9.56 9.47 2.15 o
33 2 4 6 0 9.56 15.95 1.72 o
33 1 4 -6 0 9.56 15.95 1.72 o
34 2 5 -6 0 1.86 1.01 0.80 <
34 1 5 6 0 1.86 1.01 0.80 <
35 2 1 7 0 82.43 139.61 13.33 o
35 1 1 -7 0 82.43 139.61 13.33 o
36 2 2 -7 0 13.66 13.15 3.67 o
36 1 2 7 0 13.66 13.15 3.67 o
37 2 2 7 0 13.66 16.15 3.34 o
37 1 2 -7 0 13.66 16.15 3.34 o
38 2 3 -7 0 1.60 2.58 1.38 <
38 1 3 7 0 1.60 2.58 1.38 <
39 2 3 7 0 1.60 0.96 0.66 <
39 1 3 -7 0 1.60 0.96 0.66 <
40 2 4 -7 0 14.54 22.85 4.18 o
40 1 4 7 0 14.54 22.85 4.18 o
41 2 4 7 0 14.54 26.99 2.69 o
41 1 4 -7 0 14.54 26.99 2.69 o
42 2 1 8 0 13.30 17.17 4.98 o
42 1 1 -8 0 13.30 17.17 4.98 o
43 2 2 -8 0 2.33 1.26 0.87 <
43 1 2 8 0 2.33 1.26 0.87 <
44 2 2 8 0 2.33 1.91 1.48 <
44 1 2 -8 0 2.33 1.91 1.48 <
45 2 3 -8 0 16.11 19.02 4.79 o
45 1 3 8 0 16.11 19.02 4.79 o
46 2 3 8 0 16.11 21.79 3.48 o
46 1 3 -8 0 16.11 21.79 3.48 o
47 2 1 9 0 9.71 12.35 5.73 <
47 1 1 -9 0 9.71 12.35 5.73 <
48 1 0 1 1 490.85 596.55 13.62 o
49 1 0 -1 1 490.98 591.52 14.24 o
50 6 -1 -1 -1 310.16 384.98 17.73 o
50 1 1 1 1 310.16 384.98 17.73 o
51 6 -1 1 -1 310.15 380.37 12.71 o
51 1 1 -1 1 310.15 380.37 12.71 o
52 1 0 2 1 0.20 0.24 0.24 <
53 1 0 -2 1 0.17 0.18 0.39 <
54 6 -1 -2 -1 771.71 977.84 25.48 o
54 1 1 2 1 771.71 977.84 25.48 o
55 6 -1 2 -1 771.71 976.53 22.29 o
55 1 1 -2 1 771.71 976.53 22.29 o
56 1 2 2 1 86.13 79.02 4.75 o
57 1 2 -2 1 84.59 76.96 4.20 o
58 1 -3 3 1 55.44 45.22 2.85 o
59 1 -2 3 1 2.53 3.74 0.95 o
60 1 -2 -3 1 2.54 3.81 0.68 o
61 1 0 3 1 11.46 9.64 2.53 o
62 1 0 -3 1 11.43 10.05 2.58 o
63 6 -1 -3 -1 28.37 31.57 5.05 o
63 1 1 3 1 28.37 31.57 5.05 o
64 6 -1 3 -1 28.37 25.53 2.70 o
64 1 1 -3 1 28.37 25.53 2.70 o
65 1 2 3 1 88.76 89.13 6.88 o
66 1 2 -3 1 88.68 89.06 5.17 o
67 1 3 3 1 9.02 8.32 1.80 o
68 1 3 -3 1 8.69 8.95 1.57 o
69 1 -4 4 1 0.89 1.39 0.52 <
70 1 -3 4 1 28.13 19.01 2.40 o
71 1 -3 -4 1 27.75 26.83 2.16 o
72 1 -2 4 1 191.76 151.66 8.44 o
73 1 -2 -4 1 191.60 156.82 6.77 o
74 1 -1 -4 1 13.71 10.76 2.68 o
75 1 0 4 1 2.84 0.80 0.64 <
76 1 0 -4 1 2.69 1.31 0.99 <
77 6 -1 -4 -1 353.07 376.89 29.92 o
77 1 1 4 1 353.07 376.89 29.92 o
78 6 -1 4 -1 353.08 375.99 29.17 o
78 1 1 -4 1 353.08 375.99 29.17 o
79 1 2 4 1 54.38 43.57 5.40 o
80 1 2 -4 1 54.77 44.94 4.52 o
81 1 3 4 1 2.76 2.15 1.28 <
82 1 3 -4 1 2.74 3.51 1.08 o
83 1 4 4 1 7.66 5.84 1.94 o
84 1 -5 5 1 0.32 0.33 0.34 <
85 1 -4 5 1 10.44 7.38 1.67 o
86 1 -3 5 1 35.29 27.32 3.74 o
87 1 -3 -5 1 35.45 34.07 2.71 o
88 1 -2 5 1 19.66 19.81 3.52 o
89 1 -2 -5 1 19.66 17.58 2.87 o
90 1 -1 -5 1 31.85 38.94 7.02 o
91 1 0 -5 1 55.07 55.76 9.22 o
92 6 -1 -5 -1 42.39 46.07 5.89 o
92 1 1 5 1 42.39 46.07 5.89 o
93 6 -1 5 -1 42.39 45.37 4.50 o
93 1 1 -5 1 42.39 45.37 4.50 o
94 1 2 5 1 32.46 36.58 5.84 o
95 1 2 -5 1 32.33 33.54 4.65 o
96 1 3 5 1 11.42 9.02 2.60 o
97 1 3 -5 1 11.79 12.62 2.21 o
98 1 4 5 1 1.12 2.13 0.80 <
99 1 4 -5 1 1.15 2.59 0.93 <
100 1 5 5 1 2.44 1.48 0.74 <
101 1 -5 6 1 4.09 3.54 1.47 <
102 1 -4 6 1 1.64 0.25 0.80 <
103 1 -4 -6 1 1.59 2.05 0.79 <
104 1 -3 6 1 3.52 3.94 1.60 <
105 1 -3 -6 1 3.37 2.78 1.02 <
106 1 -2 6 1 30.66 22.06 4.06 o
107 1 -2 -6 1 30.75 29.89 4.59 o
108 1 -1 -6 1 12.17 11.82 4.69 <
109 1 0 -6 1 10.54 12.44 5.04 <
110 6 -1 -6 -1 104.28 96.13 7.68 o
110 1 1 6 1 104.28 96.13 7.68 o
111 6 -1 6 -1 104.27 94.60 10.09 o
111 1 1 -6 1 104.27 94.60 10.09 o
112 1 2 6 1 9.05 8.64 3.08 <
113 1 2 -6 1 9.29 8.82 2.51 o
114 1 3 6 1 0.52 -0.26 0.41 <
115 1 3 -6 1 0.54 0.79 0.63 <
116 1 4 6 1 6.96 8.61 2.80 o
117 1 4 -6 1 6.99 15.43 2.56 o
118 1 -4 7 1 6.62 7.94 2.69 <
119 1 -4 -7 1 6.68 8.77 1.63 o
120 1 -3 7 1 5.21 2.70 1.59 <
121 1 -3 -7 1 5.29 3.69 1.26 <
122 1 -2 7 1 0.22 0.80 0.75 <
123 1 -2 -7 1 0.22 3.16 1.95 <
124 1 -1 -7 1 38.91 53.31 9.52 o
125 1 0 -7 1 37.90 33.25 10.60 o
126 6 -1 -7 -1 0.08 -1.06 1.02 <
126 1 1 7 1 0.08 -1.06 1.02 <
127 6 -1 7 -1 0.08 2.18 1.74 <
127 1 1 -7 1 0.08 2.18 1.74 <
128 1 2 7 1 10.79 7.71 3.01 <
129 1 2 -7 1 10.74 5.76 2.26 <
130 1 3 7 1 14.06 16.66 4.53 o
131 1 3 -7 1 13.99 16.54 3.46 o
132 1 -3 8 1 1.62 1.67 1.27 <
133 1 -3 -8 1 1.68 2.23 1.25 <
134 1 -2 -8 1 13.03 11.24 3.96 <
135 1 -1 -8 1 4.63 -0.31 1.65 <
136 6 -1 -8 -1 24.81 20.43 4.02 o
136 1 1 8 1 24.81 20.43 4.02 o
137 6 -1 8 -1 24.81 130.52 17.76 o
137 1 1 -8 1 24.81 130.52 17.76 o
138 1 2 8 1 1.88 3.54 1.80 <
139 1 2 -8 1 1.78 5.54 3.31 <
140 1 -1 0 2 47.01 46.11 2.95 o
141 1 0 0 2 6.59 8.42 0.92 o
142 1 1 0 2 1.19 2.17 0.64 o
143 1 -1 1 2 240.33 191.33 10.17 o
144 1 -1 -1 2 240.98 194.63 10.03 o
145 1 0 1 2 68.09 74.62 6.07 o
146 1 0 -1 2 67.87 73.97 6.90 o
147 1 1 1 2 44.79 47.65 3.89 o
148 1 1 -1 2 43.42 37.59 3.19 o
149 6 -2 -1 -2 39.10 30.76 3.32 o
149 1 2 1 2 39.10 30.76 3.32 o
150 1 -1 2 2 455.57 439.60 17.98 o
151 1 -1 -2 2 455.88 441.07 18.23 o
152 1 0 2 2 144.97 138.30 9.76 o
153 1 0 -2 2 144.76 139.37 9.89 o
154 1 1 2 2 110.40 151.65 9.02 o
155 1 1 -2 2 111.63 133.41 7.44 o
156 6 -2 -2 -2 121.46 114.33 7.02 o
156 1 2 2 2 121.46 114.33 7.02 o
157 6 -2 2 -2 121.46 113.32 5.95 o
157 1 2 -2 2 121.46 113.32 5.95 o
158 1 -1 -3 2 11.34 17.89 6.31 <
159 1 0 3 2 224.98 235.32 14.68 o
160 1 0 -3 2 224.97 239.71 14.07 o
161 1 1 3 2 143.68 168.63 11.76 o
162 1 1 -3 2 143.80 160.33 9.47 o
163 6 -2 -3 -2 15.56 14.41 3.06 o
163 1 2 3 2 15.56 14.41 3.06 o
164 6 -2 3 -2 15.56 36.01 3.82 o
164 1 2 -3 2 15.56 36.01 3.82 o
165 1 3 3 2 33.90 31.79 4.21 o
166 1 3 -3 2 33.71 33.53 3.55 o
167 1 -4 4 2 35.73 36.55 2.51 o
168 1 -3 4 2 30.78 19.47 1.94 o
169 1 0 4 2 7.87 8.16 2.71 o
170 1 0 -4 2 7.86 10.72 3.44 o
171 1 1 4 2 24.44 24.92 4.98 o
172 1 1 -4 2 24.21 23.06 4.19 o
173 6 -2 -4 -2 151.31 169.82 11.91 o
173 1 2 4 2 151.31 169.82 11.91 o
174 6 -2 4 -2 151.31 160.49 9.55 o
174 1 2 -4 2 151.31 160.49 9.55 o
175 1 3 4 2 4.07 2.65 1.21 <
176 1 3 -4 2 4.08 4.10 1.39 <
177 1 4 4 2 2.41 1.42 0.97 <
178 1 4 -4 2 2.42 3.56 1.19 <
179 1 -5 5 2 4.92 5.33 1.19 o
180 1 -4 5 2 0.13 -0.23 0.59 <
181 1 -3 5 2 31.37 28.47 3.52 o
182 1 -3 -5 2 31.22 33.88 2.09 o
183 1 -2 -5 2 36.52 34.00 3.96 o
184 1 0 5 2 65.93 48.86 7.68 o
185 1 0 -5 2 65.79 55.41 8.42 o
186 1 1 5 2 47.24 51.17 7.74 o
187 1 1 -5 2 47.25 52.28 7.58 o
188 6 -2 -5 -2 12.80 19.55 4.91 o
188 1 2 5 2 12.80 19.55 4.91 o
189 6 -2 5 -2 12.80 16.81 3.56 o
189 1 2 -5 2 12.80 16.81 3.56 o
190 1 3 5 2 9.10 7.40 2.36 o
191 1 3 -5 2 9.31 10.51 2.18 o
192 1 4 5 2 4.54 7.04 2.54 <
193 1 4 -5 2 4.56 9.64 2.13 o
194 1 -5 6 2 0.79 1.99 0.85 <
195 1 -4 6 2 7.63 5.84 1.47 o
196 1 -4 -6 2 7.61 12.80 1.42 o
197 1 -3 6 2 5.99 2.70 0.90 o
198 1 -3 -6 2 6.23 3.14 0.87 o
199 1 -2 -6 2 6.41 9.17 2.63 o
200 1 0 6 2 16.08 13.41 4.27 o
201 1 0 -6 2 16.07 17.29 5.24 o
202 1 1 6 2 8.72 12.56 4.06 o
203 1 1 -6 2 8.47 10.17 3.50 <
204 6 -2 -6 -2 24.89 24.42 6.00 o
204 1 2 6 2 24.89 24.42 6.00 o
205 6 -2 6 -2 24.89 27.74 4.93 o
205 1 2 -6 2 24.89 27.74 4.93 o
206 1 3 6 2 5.10 9.08 3.53 <
207 1 3 -6 2 5.09 9.76 2.46 o
208 1 -4 7 2 0.12 -1.25 0.77 <
209 1 -4 -7 2 0.12 0.00 0.14 <
210 1 -3 7 2 4.13 2.58 1.28 <
211 1 -3 -7 2 4.11 3.63 1.16 o
212 1 -2 -7 2 8.14 6.38 2.76 <
213 1 0 7 2 7.38 0.95 1.00 <
214 1 0 -7 2 7.52 2.90 2.03 <
215 1 1 7 2 7.15 2.42 1.03 <
216 1 1 -7 2 7.21 6.53 3.26 <
217 6 -2 -7 -2 1.00 2.19 1.29 <
217 1 2 7 2 1.00 2.19 1.29 <
218 6 -2 7 -2 1.00 0.52 1.02 <
218 1 2 -7 2 1.00 0.52 1.02 <
219 1 3 7 2 3.75 3.78 1.39 <
220 1 3 -7 2 3.77 3.35 1.48 <
221 1 -3 -8 2 1.46 3.73 2.17 <
222 1 -2 -8 2 1.44 0.57 0.68 <
223 1 0 -8 2 4.04 1.66 2.85 <
224 1 1 8 2 2.44 5.14 3.28 <
225 1 1 -8 2 2.51 4.92 3.51 <
226 6 -2 -8 -2 16.09 13.47 4.83 <
226 1 2 8 2 16.09 13.47 4.83 <
227 6 -2 8 -2 16.09 16.73 4.84 o
227 1 2 -8 2 16.09 16.73 4.84 o
228 1 -2 0 3 0.70 0.03 0.38 <
229 1 -1 0 3 2.43 2.42 0.74 o
230 1 0 0 3 135.36 158.11 6.13 o
231 1 1 0 3 90.01 82.76 3.52 o
232 1 -2 1 3 98.85 60.22 5.46 o
233 1 -1 1 3 41.68 37.55 2.96 o
234 1 -1 -1 3 42.99 43.14 4.44 o
235 1 0 1 3 36.68 38.35 2.68 o
236 1 0 -1 3 36.62 34.46 2.43 o
237 1 1 1 3 77.54 80.83 6.21 o
238 1 1 -1 3 77.94 66.80 4.84 o
239 1 2 1 3 22.75 23.14 3.35 o
240 1 2 -1 3 22.98 22.28 2.57 o
241 1 -1 2 3 112.19 107.17 5.02 o
242 1 -1 -2 3 110.99 103.46 5.24 o
243 1 0 2 3 130.03 159.43 12.18 o
244 1 0 -2 3 130.05 154.57 10.11 o
245 1 1 2 3 15.45 13.06 2.91 o
246 1 1 -2 3 15.76 12.59 2.37 o
247 1 2 2 3 12.41 13.25 2.88 o
248 1 2 -2 3 12.24 14.81 2.34 o
249 6 -3 -2 -3 61.27 67.09 6.47 o
249 1 3 2 3 61.27 67.09 6.47 o
250 1 -1 3 3 144.11 118.54 11.49 o
251 1 -1 -3 3 143.97 126.36 12.09 o
252 1 0 3 3 3.90 0.78 0.97 <
253 1 0 -3 3 3.89 1.19 0.86 <
254 1 1 3 3 40.01 35.49 5.77 o
255 1 1 -3 3 40.51 34.56 4.84 o
256 1 2 3 3 33.90 35.64 5.42 o
257 1 2 -3 3 34.11 37.97 4.19 o
258 6 -3 -3 -3 5.43 10.00 2.69 o
258 1 3 3 3 5.43 10.00 2.69 o
259 6 -3 3 -3 5.43 11.27 2.20 o
259 1 3 -3 3 5.43 11.27 2.20 o
260 1 -1 4 3 20.25 16.16 4.61 o
261 1 -1 -4 3 20.46 19.60 5.23 o
262 1 0 4 3 78.68 68.51 9.57 o
263 1 0 -4 3 78.57 66.10 9.51 o
264 1 1 4 3 24.82 25.37 5.64 o
265 1 1 -4 3 24.62 27.98 4.93 o
266 1 2 4 3 0.33 0.06 0.44 <
267 1 2 -4 3 0.35 0.01 0.28 <
268 6 -3 -4 -3 21.25 35.15 5.82 o
268 1 3 4 3 21.25 35.15 5.82 o
269 6 -3 4 -3 21.25 31.69 4.21 o
269 1 3 -4 3 21.25 31.69 4.21 o
270 1 4 4 3 1.68 1.45 1.15 <
271 1 4 -4 3 1.65 5.51 1.66 o
272 1 -5 5 3 5.76 4.23 0.31 o
273 1 -4 5 3 12.04 6.40 1.16 o
274 1 -1 5 3 43.02 38.39 7.78 o
275 1 -1 -5 3 42.76 40.00 8.46 o
276 1 0 5 3 0.58 2.70 1.87 <
277 1 0 -5 3 0.57 0.76 1.38 <
278 1 1 5 3 24.50 22.77 5.93 o
279 1 1 -5 3 24.20 20.81 4.61 o
280 1 2 5 3 15.80 24.16 5.71 o
281 1 2 -5 3 15.61 22.02 4.21 o
282 6 -3 -5 -3 5.52 8.14 3.27 <
282 1 3 5 3 5.52 8.14 3.27 <
283 6 -3 5 -3 5.52 11.97 2.79 o
283 1 3 -5 3 5.52 11.97 2.79 o
284 1 -5 6 3 0.94 1.15 0.45 <
285 1 -4 6 3 1.34 0.85 0.36 <
286 1 -3 -6 3 23.56 19.14 1.63 o
287 1 -2 -6 3 6.38 3.58 1.94 <
288 1 -1 -6 3 7.78 8.76 4.33 <
289 1 0 6 3 25.86 14.36 4.65 o
290 1 0 -6 3 25.92 16.09 5.43 <
291 1 1 6 3 7.12 6.49 3.15 <
292 1 1 -6 3 7.16 8.33 3.16 <
293 1 2 6 3 2.97 4.58 2.46 <
294 1 2 -6 3 3.02 4.11 1.87 <
295 6 -3 -6 -3 8.83 9.83 3.84 <
295 1 3 6 3 8.83 9.83 3.84 <
296 6 -3 6 -3 8.84 8.05 2.52 o
296 1 3 -6 3 8.84 8.05 2.52 o
297 1 -4 7 3 5.20 4.81 1.54 o
298 1 -4 -7 3 5.18 11.66 1.20 o
299 1 -3 -7 3 0.19 0.77 0.38 <
300 1 -2 -7 3 9.96 6.87 3.13 <
301 1 -1 -7 3 7.44 3.78 3.28 <
302 1 0 7 3 6.18 6.94 3.80 <
303 1 0 -7 3 6.19 6.00 3.32 <
304 1 1 7 3 8.52 9.85 4.04 <
305 1 1 -7 3 8.51 10.96 4.61 <
306 1 2 7 3 4.18 3.70 2.81 <
307 1 2 -7 3 4.19 6.44 3.01 <
308 1 -3 -8 3 8.11 10.39 2.57 o
309 1 -2 -8 3 3.22 6.87 3.25 <
310 1 0 8 3 12.71 9.95 4.63 <
311 1 0 -8 3 12.73 17.22 6.84 <
312 1 -2 0 4 48.47 51.46 4.80 o
313 1 -1 0 4 76.34 84.88 5.21 o
314 1 0 0 4 2.35 3.71 0.87 o
315 1 1 0 4 96.86 105.03 4.59 o
316 1 -2 1 4 14.61 10.78 2.23 o
317 1 -2 -1 4 14.72 11.08 2.27 o
318 1 -1 1 4 67.03 66.48 4.47 o
319 1 -1 -1 4 67.03 62.55 4.64 o
320 1 0 1 4 128.33 130.69 5.66 o
321 1 0 -1 4 128.55 131.69 5.46 o
322 1 1 1 4 20.10 17.03 3.25 o
323 1 1 -1 4 20.38 18.33 2.76 o
324 1 2 1 4 18.38 16.47 3.31 o
325 1 2 -1 4 18.24 19.43 2.68 o
326 1 -3 2 4 1.63 0.28 0.37 <
327 1 -2 2 4 59.13 49.63 4.48 o
328 1 -2 -2 4 59.02 42.90 4.31 o
329 1 -1 2 4 10.11 10.06 1.88 o
330 1 -1 -2 4 9.98 9.78 1.97 o
331 1 0 2 4 4.77 5.38 2.91 <
332 1 0 -2 4 4.77 4.42 1.09 o
333 1 1 2 4 28.91 30.42 5.02 o
334 1 1 -2 4 29.34 32.13 4.17 o
335 1 2 2 4 20.90 21.34 4.24 o
336 1 2 -2 4 21.06 25.40 3.51 o
337 1 3 2 4 0.48 0.84 0.49 <
338 1 3 -2 4 0.48 0.61 0.37 <
339 1 -2 3 4 7.01 4.33 2.90 <
340 1 -2 -3 4 7.10 4.93 2.69 <
341 1 -1 3 4 40.57 28.93 6.32 o
342 1 -1 -3 4 39.97 27.89 3.42 o
343 1 0 3 4 2.21 3.40 2.59 <
344 1 0 -3 4 2.09 2.17 1.37 <
345 1 1 3 4 7.83 8.19 3.19 <
346 1 1 -3 4 7.80 9.08 2.73 o
347 1 2 3 4 5.11 5.76 2.20 <
348 1 2 -3 4 5.08 6.67 1.89 o
349 1 3 3 4 6.39 10.88 3.28 o
350 1 3 -3 4 6.36 13.84 2.59 o
351 1 -2 -4 4 81.58 42.41 9.28 o
352 1 -1 4 4 19.51 19.64 5.76 o
353 1 -1 -4 4 19.53 20.67 5.86 o
354 1 0 4 4 0.16 0.29 0.25 <
355 1 0 -4 4 0.18 0.12 1.16 <
356 1 1 4 4 10.14 9.46 4.38 <
357 1 1 -4 4 10.08 8.04 2.92 <
358 1 2 4 4 13.76 17.03 4.40 o
359 1 2 -4 4 13.77 20.62 3.82 o
360 1 3 4 4 0.03 -0.58 1.42 <
361 1 3 -4 4 0.03 0.53 0.55 <
362 1 -5 5 4 0.23 0.28 0.04 o
363 1 -1 5 4 26.80 17.58 5.97 <
364 1 -1 -5 4 27.22 20.67 6.21 o
365 1 0 5 4 9.68 5.89 3.00 <
366 1 0 -5 4 9.74 5.13 2.58 <
367 1 1 5 4 2.70 3.61 2.48 <
368 1 1 -5 4 2.66 3.11 1.94 <
369 1 2 5 4 6.41 10.15 4.15 <
370 1 2 -5 4 6.46 8.79 3.06 <
371 1 -5 6 4 3.92 2.89 0.74 o
372 1 -1 6 4 8.66 5.72 3.37 <
373 1 -1 -6 4 8.67 5.94 3.94 <
374 1 0 6 4 2.33 0.06 1.49 <
375 1 0 -6 4 2.31 1.45 1.53 <
376 1 1 6 4 17.66 18.94 6.36 <
377 1 1 -6 4 17.55 18.52 5.16 o
378 1 2 6 4 3.71 4.60 3.43 <
379 1 2 -6 4 3.63 3.59 1.92 <
380 1 -1 7 4 7.62 7.13 4.11 <
381 1 -1 -7 4 7.58 9.50 4.67 <
382 1 0 7 4 23.48 26.52 7.58 o
383 1 0 -7 4 23.42 36.45 9.20 o
384 1 1 7 4 1.11 0.27 0.53 <
385 1 1 -7 4 1.10 0.89 1.56 <
386 1 -1 -8 4 3.81 5.01 3.56 <
387 2 1 0 -5 105.46 58.25 8.36 o
387 1 -3 0 5 105.46 58.25 8.36 o
388 2 2 0 -5 0.78 2.11 1.11 <
388 1 -2 0 5 0.78 2.11 1.11 <
389 2 3 0 -5 103.02 105.47 6.50 o
389 1 -1 0 5 103.02 105.47 6.50 o
390 2 4 0 -5 106.61 85.96 7.44 o
390 1 0 0 5 106.61 85.96 7.44 o
391 2 5 0 -5 4.43 4.51 1.08 o
391 1 1 0 5 4.43 4.51 1.08 o
392 2 1 -1 -5 35.57 29.91 5.25 o
392 1 -3 1 5 35.57 29.91 5.25 o
393 2 1 1 -5 36.22 25.44 6.07 o
393 1 -3 -1 5 36.22 25.44 6.07 o
394 2 2 -1 -5 31.02 36.33 6.45 o
394 1 -2 1 5 31.02 36.33 6.45 o
395 2 2 1 -5 31.02 30.54 3.85 o
395 1 -2 -1 5 31.02 30.54 3.85 o
396 2 3 -1 -5 36.14 39.22 8.90 o
396 1 -1 1 5 36.14 39.22 8.90 o
397 2 3 1 -5 35.50 34.38 3.52 o
397 1 -1 -1 5 35.50 34.38 3.52 o
398 2 4 -1 -5 31.67 35.04 3.60 o
398 1 0 1 5 31.67 35.04 3.60 o
399 2 4 1 -5 31.62 34.23 3.14 o
399 1 0 -1 5 31.62 34.23 3.14 o
400 2 5 -1 -5 21.71 21.72 4.45 o
400 1 1 1 5 21.71 21.72 4.45 o
401 2 5 1 -5 21.99 24.78 2.58 o
401 1 1 -1 5 21.99 24.78 2.58 o
402 2 6 -1 -5 2.39 4.66 2.13 <
402 1 2 1 5 2.39 4.66 2.13 <
403 2 6 1 -5 2.30 5.18 1.66 o
403 1 2 -1 5 2.30 5.18 1.66 o
404 2 1 -2 -5 43.06 22.49 4.23 o
404 1 -3 2 5 43.06 22.49 4.23 o
405 2 1 2 -5 43.32 5.54 4.02 <
405 1 -3 -2 5 43.32 5.54 4.02 <
406 2 2 -2 -5 18.88 18.28 4.33 o
406 1 -2 2 5 18.88 18.28 4.33 o
407 2 2 2 -5 18.87 16.17 3.07 o
407 1 -2 -2 5 18.87 16.17 3.07 o
408 2 3 -2 -5 42.84 40.86 7.27 o
408 1 -1 2 5 42.84 40.86 7.27 o
409 2 3 2 -5 42.59 29.55 5.73 o
409 1 -1 -2 5 42.59 29.55 5.73 o
410 2 4 -2 -5 34.72 27.93 6.09 o
410 1 0 2 5 34.72 27.93 6.09 o
411 2 4 2 -5 34.44 31.46 6.16 o
411 1 0 -2 5 34.44 31.46 6.16 o
412 2 5 -2 -5 1.68 0.34 0.41 <
412 1 1 2 5 1.68 0.34 0.41 <
413 2 5 2 -5 1.70 1.14 0.72 <
413 1 1 -2 5 1.70 1.14 0.72 <
414 2 6 -2 -5 5.98 6.44 2.56 <
414 1 2 2 5 5.98 6.44 2.56 <
415 2 6 2 -5 5.98 8.38 2.19 o
415 1 2 -2 5 5.98 8.38 2.19 o
416 2 7 -2 -5 2.85 5.96 2.42 <
416 1 3 2 5 2.85 5.96 2.42 <
417 2 7 2 -5 2.76 6.88 1.88 o
417 1 3 -2 5 2.76 6.88 1.88 o
418 2 0 -3 -5 9.69 2.45 1.26 <
418 1 -4 3 5 9.69 2.45 1.26 <
419 2 1 -3 -5 24.62 21.55 2.44 o
419 1 -3 3 5 24.62 21.55 2.44 o
420 2 2 -3 -5 50.79 63.21 14.88 o
420 1 -2 3 5 50.79 63.21 14.88 o
421 2 2 3 -5 50.80 47.90 5.25 o
421 1 -2 -3 5 50.80 47.90 5.25 o
422 2 3 -3 -5 24.91 23.23 6.82 o
422 1 -1 3 5 24.91 23.23 6.82 o
423 2 3 3 -5 24.79 29.09 6.35 o
423 1 -1 -3 5 24.79 29.09 6.35 o
424 2 4 -3 -5 9.45 6.05 3.61 <
424 1 0 3 5 9.45 6.05 3.61 <
425 2 4 3 -5 9.49 7.31 2.74 <
425 1 0 -3 5 9.49 7.31 2.74 <
426 2 5 -3 -5 14.87 11.66 4.03 <
426 1 1 3 5 14.87 11.66 4.03 <
427 2 5 3 -5 14.80 15.00 3.60 o
427 1 1 -3 5 14.80 15.00 3.60 o
428 2 6 -3 -5 8.16 10.42 3.55 <
428 1 2 3 5 8.16 10.42 3.55 <
429 2 6 3 -5 8.12 10.81 2.65 o
429 1 2 -3 5 8.12 10.81 2.65 o
430 2 2 -4 -5 1.98 0.65 1.52 <
430 1 -2 4 5 1.98 0.65 1.52 <
431 2 2 4 -5 1.98 0.47 0.92 <
431 1 -2 -4 5 1.98 0.47 0.92 <
432 2 3 -4 -5 8.96 4.90 3.66 <
432 1 -1 4 5 8.96 4.90 3.66 <
433 2 3 4 -5 9.00 9.69 2.46 o
433 1 -1 -4 5 9.00 9.69 2.46 o
434 2 4 -4 -5 4.17 3.41 2.93 <
434 1 0 4 5 4.17 3.41 2.93 <
435 2 4 4 -5 4.33 4.84 2.80 <
435 1 0 -4 5 4.33 4.84 2.80 <
436 2 5 -4 -5 1.27 0.81 0.46 <
436 1 1 4 5 1.27 0.81 0.46 <
437 2 5 4 -5 1.27 1.00 0.53 <
437 1 1 -4 5 1.27 1.00 0.53 <
438 2 6 -4 -5 6.45 6.75 2.76 <
438 1 2 4 5 6.45 6.75 2.76 <
439 2 6 4 -5 6.47 10.13 2.92 o
439 1 2 -4 5 6.47 10.13 2.92 o
440 2 2 -5 -5 39.09 37.16 9.50 o
440 1 -2 5 5 39.09 37.16 9.50 o
441 2 2 5 -5 39.09 28.17 8.21 o
441 1 -2 -5 5 39.09 28.17 8.21 o
442 2 3 -5 -5 16.04 6.31 4.12 <
442 1 -1 5 5 16.04 6.31 4.12 <
443 2 3 5 -5 16.23 10.85 5.54 <
443 1 -1 -5 5 16.23 10.85 5.54 <
444 2 4 -5 -5 4.81 5.68 3.85 <
444 1 0 5 5 4.81 5.68 3.85 <
445 2 4 5 -5 4.80 5.47 3.17 <
445 1 0 -5 5 4.80 5.47 3.17 <
446 2 5 -5 -5 10.81 11.02 5.15 <
446 1 1 5 5 10.81 11.02 5.15 <
447 2 5 5 -5 10.80 9.25 3.95 <
447 1 1 -5 5 10.80 9.25 3.95 <
448 2 2 6 -5 4.72 9.42 4.95 <
448 1 -2 -6 5 4.72 9.42 4.95 <
449 2 3 -6 -5 19.32 25.46 8.38 o
449 1 -1 6 5 19.32 25.46 8.38 o
450 2 3 6 -5 19.39 24.15 7.61 o
450 1 -1 -6 5 19.39 24.15 7.61 o
451 2 4 -6 -5 17.80 13.86 6.63 <
451 1 0 6 5 17.80 13.86 6.63 <
452 2 4 6 -5 17.78 18.22 6.89 <
452 1 0 -6 5 17.78 18.22 6.89 <
453 2 2 7 -5 4.88 0.33 1.77 <
453 1 -2 -7 5 4.88 0.33 1.77 <
454 2 3 -7 -5 3.02 2.70 2.59 <
454 1 -1 7 5 3.02 2.70 2.59 <
455 2 3 7 -5 3.01 1.46 2.39 <
455 1 -1 -7 5 3.01 1.46 2.39 <
456 1 -4 0 6 0.23 0.23 0.90 <
457 1 -3 0 6 1.38 1.61 1.14 <
458 1 -2 0 6 1.78 2.30 1.25 <
459 1 -1 0 6 1.82 2.64 1.03 <
460 1 0 0 6 3.62 2.77 1.03 <
461 1 1 0 6 3.97 5.43 1.30 o
462 1 2 0 6 0.18 0.39 0.55 <
463 1 -4 1 6 6.39 7.79 3.16 <
464 1 -3 1 6 4.82 6.73 2.57 <
465 1 -3 -1 6 4.74 6.53 2.59 <
466 1 -2 1 6 13.74 13.94 2.70 o
467 1 -2 -1 6 13.76 12.18 2.97 o
468 1 -1 1 6 16.51 18.83 2.79 o
469 1 -1 -1 6 16.19 15.95 2.69 o
470 1 0 1 6 7.33 8.79 1.82 o
471 1 0 -1 6 7.31 9.44 1.75 o
472 1 1 1 6 3.91 2.61 0.84 o
473 1 1 -1 6 4.02 3.10 1.03 o
474 1 2 1 6 3.99 6.35 2.62 <
475 1 2 -1 6 3.93 7.33 1.97 o
476 1 -4 2 6 0.34 -0.57 1.01 <
477 1 -3 2 6 20.79 27.36 4.23 o
478 1 -3 -2 6 20.95 21.73 7.19 o
479 1 -2 2 6 11.83 26.79 3.69 o
480 1 -2 -2 6 11.66 22.85 6.26 o
481 1 -1 2 6 0.46 1.30 1.10 <
482 1 -1 -2 6 0.44 0.74 0.74 <
483 1 0 2 6 12.09 13.79 4.68 <
484 1 0 -2 6 12.10 12.45 2.29 o
485 1 1 2 6 7.14 7.38 2.84 <
486 1 1 -2 6 7.10 9.06 2.47 o
487 1 -4 3 6 4.52 7.86 2.39 o
488 1 -3 3 6 4.35 4.64 1.72 <
489 1 -3 -3 6 4.27 1.95 1.83 <
490 1 -2 3 6 6.09 5.15 1.83 <
491 1 -2 -3 6 6.20 4.64 1.95 <
492 1 -1 3 6 11.47 12.14 5.07 <
493 1 -1 -3 6 11.58 27.81 14.54 <
494 1 0 3 6 0.77 -0.61 0.16 <
495 1 0 -3 6 0.79 -0.08 0.40 <
496 1 1 3 6 4.12 6.49 3.36 <
497 1 1 -3 6 4.12 8.18 2.63 o
498 1 -5 4 6 2.35 1.65 1.09 <
499 1 -4 4 6 1.28 1.41 0.60 <
500 1 -3 4 6 10.62 15.07 1.25 o
501 1 -3 -4 6 10.58 9.56 4.72 <
502 1 -2 4 6 13.25 8.54 4.63 <
503 1 -2 -4 6 13.27 14.19 3.30 o
504 1 -1 4 6 0.29 1.98 1.78 <
505 1 -1 -4 6 0.29 0.74 1.04 <
506 1 0 4 6 10.09 12.87 5.45 <
507 1 0 -4 6 10.07 15.72 4.61 o
508 1 1 4 6 6.14 7.27 3.48 <
509 1 1 -4 6 6.14 9.40 3.04 o
510 1 -3 -5 6 4.43 4.32 1.31 o
511 1 -2 5 6 5.08 7.59 4.71 <
512 1 -2 -5 6 5.00 7.44 3.02 <
513 1 -1 5 6 5.38 11.15 5.35 <
514 1 -1 -5 6 5.36 13.66 6.56 <
515 1 0 5 6 1.86 3.44 3.01 <
516 1 0 -5 6 1.85 3.42 2.12 <
517 1 -2 6 6 2.47 1.31 1.96 <
518 1 -2 -6 6 2.53 2.97 1.77 <
519 1 -4 0 7 3.34 3.74 1.88 <
520 1 -3 0 7 0.13 -0.37 0.81 <
521 1 -2 0 7 6.79 6.49 3.11 <
522 1 -1 0 7 3.48 5.54 1.90 <
523 1 0 0 7 1.53 4.28 1.50 <
524 1 -5 1 7 2.00 1.19 1.89 <
525 1 -4 1 7 1.58 4.79 2.04 <
526 1 -4 -1 7 1.55 2.71 2.32 <
527 1 -3 1 7 3.49 3.95 1.85 <
528 1 -3 -1 7 3.47 3.17 2.09 <
529 1 -2 1 7 1.06 1.90 0.72 <
530 1 -2 -1 7 1.10 1.64 0.88 <
531 1 -1 1 7 2.58 3.62 1.28 <
532 1 -1 -1 7 2.51 2.24 1.23 <
533 1 0 1 7 3.57 4.23 1.31 o
534 1 0 -1 7 3.61 3.78 1.46 <
535 1 -5 2 7 1.51 2.22 1.86 <
536 1 -4 2 7 1.68 3.15 2.00 <
537 1 -4 -2 7 1.64 4.47 2.95 <
538 1 -3 2 7 0.48 0.07 0.68 <
539 1 -3 -2 7 0.48 0.56 1.11 <
540 1 -2 2 7 4.40 3.99 1.07 o
541 1 -2 -2 7 4.41 2.74 1.65 <
542 1 -1 2 7 6.28 6.29 1.90 o
543 1 -1 -2 7 6.31 5.16 1.87 <
544 1 0 2 7 0.55 -0.25 1.90 <
545 1 0 -2 7 0.56 1.15 0.82 <
546 1 -5 3 7 0.38 0.39 1.11 <
547 1 -4 3 7 3.27 4.12 1.58 <
548 1 -4 -3 7 3.26 2.60 2.94 <
549 1 -3 3 7 4.90 5.76 2.46 <
550 1 -3 -3 7 4.91 3.87 2.85 <
551 1 -2 3 7 5.70 4.93 3.36 <
552 1 -2 -3 7 5.71 5.94 2.81 <
553 1 -1 3 7 4.57 4.21 2.66 <
554 1 -1 -3 7 4.54 3.52 1.49 <
555 1 -4 4 7 1.25 2.39 0.61 o
556 1 -3 4 7 0.06 -1.73 1.56 <
557 1 -3 -4 7 0.05 -0.48 1.75 <
558 1 -2 4 7 4.67 3.71 3.33 <
559 1 -2 -4 7 4.66 4.05 1.71 <
560 1 -1 4 7 4.88 5.69 3.97 <
561 1 -1 -4 7 4.87 6.18 1.63 o
562 1 -4 0 8 3.13 5.48 3.18 <
563 1 -3 0 8 3.45 6.86 3.40 <
564 1 -2 0 8 0.47 2.50 2.00 <
565 1 -4 1 8 1.22 2.80 1.78 <
566 1 -4 -1 8 1.21 0.67 1.41 <
567 1 -3 1 8 1.80 2.23 1.88 <
568 1 -3 -1 8 1.81 -0.07 1.43 <
569 1 -2 1 8 2.44 4.69 1.53 o
570 1 -2 -1 8 2.50 3.67 2.98 <
571 1 -3 2 8 1.89 3.72 1.52 <
572 1 -3 -2 8 1.93 2.30 1.90 <
573 2 -2 1 1 332.82 304.06 7.90 o
574 2 -2 -1 1 332.84 305.10 8.90 o
575 2 -1 1 1 404.23 462.55 14.00 o
576 2 -1 -1 1 404.29 464.74 14.64 o
577 2 -3 2 1 68.21 60.00 4.05 o
578 2 -3 -2 1 69.38 61.54 5.05 o
579 2 -2 2 1 289.78 315.68 10.79 o
580 2 -2 -2 1 290.19 313.90 13.39 o
581 2 -1 2 1 9.63 3.93 1.62 <
582 2 -1 -2 1 10.29 3.97 1.74 <
583 2 -4 3 1 10.90 19.66 2.53 o
584 2 -4 -3 1 11.30 18.14 3.27 o
585 2 -3 3 1 56.59 45.36 4.18 o
586 2 -3 -3 1 56.42 45.04 5.22 o
587 2 -2 3 1 2.59 4.92 2.04 <
588 2 -2 -3 1 2.59 4.32 2.00 <
589 2 -1 3 1 50.82 52.75 9.12 o
590 2 -1 -3 1 50.97 52.96 8.90 o
591 3 -1 -3 -1 34.11 36.03 1.86 o
591 2 1 3 1 34.11 36.03 1.86 o
592 3 -1 3 -1 34.15 34.28 2.37 o
592 2 1 -3 1 34.15 34.28 2.37 o
593 2 2 -3 1 90.51 95.11 5.29 o
594 2 -5 -4 1 5.85 14.63 3.80 o
595 2 -4 4 1 0.91 1.65 0.71 <
596 2 -4 -4 1 0.89 1.38 0.96 <
597 2 -3 4 1 28.71 25.21 3.67 o
598 2 -3 -4 1 28.32 26.67 5.05 o
599 2 -2 4 1 195.71 195.59 15.73 o
600 2 -2 -4 1 195.56 205.99 17.19 o
601 2 -1 4 1 14.30 15.02 5.64 <
602 2 -1 -4 1 14.00 15.69 5.39 <
603 2 0 4 1 2.90 1.67 1.63 <
604 3 -1 -4 -1 424.90 455.71 9.67 o
604 2 1 4 1 424.90 455.71 9.67 o
605 3 -1 4 -1 424.73 444.41 13.97 o
605 2 1 -4 1 424.73 444.41 13.97 o
606 2 2 4 1 55.50 52.62 4.05 o
607 2 2 -4 1 55.90 46.00 4.89 o
608 2 3 -4 1 2.80 3.56 1.19 o
609 2 -5 5 1 0.33 0.73 0.57 <
610 2 -5 -5 1 0.33 0.80 0.74 <
611 2 -4 5 1 10.65 12.29 2.50 o
612 2 -4 -5 1 10.32 11.52 3.51 o
613 2 -3 5 1 36.01 37.49 5.81 o
614 2 -3 -5 1 36.18 38.18 7.39 o
615 2 -2 5 1 20.07 28.09 6.38 o
616 2 -2 -5 1 20.07 31.09 7.56 o
617 2 -1 5 1 32.56 43.45 12.43 o
618 2 -1 -5 1 32.50 44.48 11.05 o
619 2 0 5 1 56.19 0.22 5.48 <
620 3 -1 -5 -1 51.02 52.51 4.41 o
620 2 1 5 1 51.02 52.51 4.41 o
621 3 -1 5 -1 50.98 53.25 5.76 o
621 2 1 -5 1 50.98 53.25 5.76 o
622 2 2 5 1 33.13 35.26 3.84 o
623 2 2 -5 1 32.99 37.81 6.48 o
624 2 3 5 1 11.66 16.82 2.14 o
625 2 3 -5 1 12.03 10.32 2.71 o
626 2 4 -5 1 1.17 2.41 1.47 <
627 2 -5 6 1 4.18 8.42 2.08 o
628 2 -5 -6 1 4.14 6.23 3.12 <
629 2 -4 6 1 1.68 2.01 1.38 <
630 2 -4 -6 1 1.62 0.86 0.33 <
631 2 -3 6 1 3.59 4.03 2.09 <
632 2 -3 -6 1 3.44 3.14 2.00 <
633 2 -2 6 1 31.29 38.00 8.06 o
634 2 -2 -6 1 31.39 33.94 8.52 o
635 2 -1 6 1 12.31 12.91 6.84 <
636 3 -1 -6 -1 125.40 123.71 7.91 o
636 2 1 6 1 125.40 123.71 7.91 o
637 3 -1 6 -1 125.53 107.47 11.21 o
637 2 1 -6 1 125.53 107.47 11.21 o
638 2 2 6 1 9.24 8.70 2.24 o
639 2 2 -6 1 9.48 9.90 3.54 <
640 2 3 6 1 0.53 0.60 0.76 <
641 2 3 -6 1 0.55 0.64 1.23 <
642 2 4 -6 1 7.13 10.45 3.60 <
643 2 -4 7 1 6.76 9.04 2.93 o
644 2 -4 -7 1 6.82 9.35 4.44 <
645 2 -3 7 1 5.32 3.41 2.15 <
646 2 -3 -7 1 5.40 2.73 2.42 <
647 2 -2 7 1 0.22 1.36 1.85 <
648 2 -2 -7 1 0.22 0.20 1.18 <
649 2 -1 7 1 39.74 55.20 17.04 o
650 3 -1 -7 -1 0.09 -0.48 0.85 <
650 2 1 7 1 0.09 -0.48 0.85 <
651 2 2 7 1 11.01 10.05 2.95 o
652 2 2 -7 1 10.96 12.05 5.60 <
653 2 3 7 1 14.35 21.14 3.35 o
654 2 3 -7 1 14.28 18.96 5.68 o
655 2 -3 -8 1 1.71 2.06 1.96 <
656 2 -2 8 1 13.32 13.10 6.18 <
657 2 -2 -8 1 13.30 10.06 5.31 <
658 2 -1 8 1 4.82 4.68 5.07 <
659 3 -1 -8 -1 29.88 25.05 4.68 o
659 2 1 8 1 29.88 25.05 4.68 o
660 2 2 8 1 1.92 3.99 1.93 <
661 2 2 -8 1 1.82 3.95 3.42 <
662 2 -1 9 1 7.32 1.53 3.26 <
663 2 -2 0 2 2.61 2.61 0.60 o
664 2 -1 0 2 47.98 62.03 4.17 o
665 2 -3 1 2 69.58 76.50 4.70 o
666 2 -3 -1 2 70.67 80.49 5.72 o
667 2 -2 1 2 33.01 31.56 3.70 o
668 2 -2 -1 2 32.04 37.02 4.50 o
669 2 -1 1 2 245.29 237.31 15.69 o
670 2 -1 -1 2 245.95 237.96 15.10 o
671 2 -4 2 2 54.40 70.04 4.93 o
672 2 -4 -2 2 54.37 67.97 6.19 o
673 2 -3 2 2 83.67 62.15 5.01 o
674 2 -3 -2 2 82.32 53.14 5.87 o
675 2 -2 2 2 47.56 34.97 5.51 o
676 2 -2 -2 2 48.03 29.90 5.50 o
677 2 -1 2 2 464.97 522.50 27.81 o
678 2 -1 -2 2 465.28 518.91 26.64 o
679 2 -5 3 2 22.96 28.45 3.43 o
680 2 -5 -3 2 23.10 22.62 4.38 o
681 2 -4 3 2 0.63 -0.32 0.62 <
682 2 -4 -3 2 0.63 0.03 0.50 <
683 2 -3 3 2 40.72 47.29 5.78 o
684 2 -3 -3 2 40.69 50.34 6.98 o
685 2 -2 3 2 222.21 220.52 18.10 o
686 2 -2 -3 2 222.26 225.53 18.77 o
687 2 -1 3 2 11.49 11.37 5.14 <
688 2 -1 -3 2 11.57 10.78 4.37 <
689 2 -6 -4 2 1.81 1.85 1.15 <
690 2 -5 4 2 1.19 2.38 1.09 <
691 2 -5 -4 2 1.19 1.03 0.72 <
692 2 -4 4 2 36.47 40.37 5.12 o
693 2 -4 -4 2 36.47 44.16 7.02 o
694 2 -3 4 2 31.41 27.95 5.63 o
695 2 -3 -4 2 31.64 24.20 6.01 o
696 2 -2 4 2 1.85 2.11 2.10 <
697 2 -2 -4 2 1.67 1.86 2.12 <
698 2 -1 4 2 144.70 175.04 21.46 o
699 2 -1 -4 2 144.26 161.73 18.81 o
700 2 1 4 2 24.94 27.51 1.80 o
701 2 1 -4 2 24.70 18.84 2.85 o
702 3 -2 4 -2 182.07 194.05 7.82 o
702 2 2 -4 2 182.07 194.05 7.82 o
703 2 -6 5 2 0.52 4.26 1.49 <
704 2 -6 -5 2 0.52 1.47 1.14 <
705 2 -5 5 2 5.02 10.00 2.74 o
706 2 -5 -5 2 4.88 7.72 3.33 <
707 2 -4 5 2 0.14 -0.24 0.58 <
708 2 -4 -5 2 0.14 1.12 1.28 <
709 2 -3 5 2 32.01 38.06 7.84 o
710 2 -3 -5 2 31.86 36.95 8.38 o
711 2 -2 5 2 37.11 46.84 10.35 o
712 2 -2 -5 2 37.28 49.20 10.86 o
713 2 -1 5 2 15.20 14.84 8.05 <
714 2 0 5 2 67.29 39.73 7.10 o
715 2 1 5 2 48.21 47.38 3.50 o
716 2 1 -5 2 48.23 45.13 6.49 o
717 3 -2 5 -2 15.39 18.23 3.21 o
717 2 2 -5 2 15.39 18.23 3.21 o
718 2 3 -5 2 9.50 10.80 2.49 o
719 2 -5 6 2 0.81 2.30 1.31 <
720 2 -5 -6 2 0.84 2.38 1.92 <
721 2 -4 6 2 7.79 8.53 3.19 <
722 2 -4 -6 2 7.77 7.95 3.71 <
723 2 -3 6 2 6.11 5.08 3.19 <
724 2 -3 -6 2 6.36 3.39 3.12 <
725 2 -2 6 2 6.58 11.97 5.73 <
726 2 -2 -6 2 6.54 12.60 5.87 <
727 2 -1 6 2 45.61 20.05 11.14 <
728 2 0 6 2 16.41 10.35 4.22 <
729 2 1 6 2 8.90 10.50 2.58 o
730 2 1 -6 2 8.65 8.07 3.14 <
731 3 -2 -6 -2 29.97 36.30 3.10 o
731 2 2 6 2 29.97 36.30 3.10 o
732 3 -2 6 -2 29.92 32.98 5.99 o
732 2 2 -6 2 29.92 32.98 5.99 o
733 2 3 -6 2 5.19 6.92 2.11 o
734 2 -4 7 2 0.12 0.36 0.47 <
735 2 -4 -7 2 0.12 -0.75 1.10 <
736 2 -3 7 2 4.21 4.19 3.08 <
737 2 -3 -7 2 4.20 5.19 4.79 <
738 2 -2 7 2 8.35 7.63 2.74 <
739 2 -2 -7 2 8.31 9.26 6.39 <
740 2 0 7 2 7.53 2.11 1.90 <
741 2 1 7 2 7.30 3.18 1.66 <
742 3 -2 -7 -2 1.20 1.78 0.96 <
742 2 2 7 2 1.20 1.78 0.96 <
743 3 -2 7 -2 1.20 1.15 1.00 <
743 2 2 -7 2 1.20 1.15 1.00 <
744 2 3 7 2 3.83 5.57 1.38 o
745 2 3 -7 2 3.85 3.15 1.11 <
746 2 -3 8 2 1.54 5.93 3.68 <
747 2 -3 -8 2 1.49 3.32 4.26 <
748 2 -2 8 2 1.48 -3.57 3.41 <
749 2 -2 -8 2 1.47 2.74 3.77 <
750 2 0 8 2 4.10 1.58 2.83 <
751 2 1 8 2 2.49 4.92 2.36 <
752 3 -2 -8 -2 19.35 17.69 3.34 o
752 2 2 8 2 19.35 17.69 3.34 o
753 3 -2 8 -2 19.37 18.82 6.91 <
753 2 2 -8 2 19.37 18.82 6.91 <
754 2 -3 0 3 256.38 211.79 6.10 o
755 2 -2 0 3 0.71 0.09 0.27 <
756 2 -1 0 3 2.48 1.87 1.01 <
757 2 -4 1 3 33.63 40.50 4.06 o
758 2 -4 -1 3 33.61 40.07 5.18 o
759 2 -3 1 3 0.40 0.82 0.41 <
760 2 -3 -1 3 0.39 0.65 0.88 <
761 2 -2 1 3 100.89 113.89 5.96 o
762 2 -2 -1 3 98.98 106.49 5.74 o
763 2 -1 1 3 42.54 36.19 4.74 o
764 2 -1 -1 3 43.88 39.15 4.60 o
765 2 -5 2 3 5.87 4.96 1.45 o
766 2 -5 -2 3 5.98 3.33 1.57 <
767 2 -4 2 3 8.42 7.66 1.83 o
768 2 -4 -2 3 8.20 9.26 3.80 <
769 2 -3 2 3 52.33 68.63 7.62 o
770 2 -3 -2 3 51.86 68.57 8.67 o
771 2 -2 2 3 72.40 89.41 6.06 o
772 2 -2 -2 3 73.63 76.44 11.34 o
773 2 -1 2 3 114.50 105.14 15.11 o
774 2 -1 -2 3 113.28 116.06 14.73 o
775 2 -6 3 3 0.76 0.05 0.52 <
776 2 -6 -3 3 0.76 0.35 0.89 <
777 2 -5 3 3 19.25 21.62 3.60 o
778 2 -5 -3 3 19.09 17.90 4.21 o
779 2 -4 3 3 14.99 14.75 3.27 o
780 2 -4 -3 3 14.57 14.91 4.17 o
781 2 -3 3 3 13.49 16.13 4.45 o
782 2 -3 -3 3 13.42 14.44 4.57 o
783 2 -2 3 3 112.51 112.00 14.17 o
784 2 -2 -3 3 112.69 113.30 14.42 o
785 2 -1 3 3 147.08 95.34 17.98 o
786 2 -1 -3 3 146.94 101.27 16.38 o
787 2 -6 4 3 5.18 9.97 2.37 o
788 2 -6 -4 3 5.19 6.94 3.39 <
789 2 -5 4 3 0.36 2.02 1.23 <
790 2 -5 -4 3 0.35 2.80 2.10 <
791 2 -4 4 3 1.39 1.77 1.65 <
792 2 -4 -4 3 1.48 1.41 1.23 <
793 2 -3 4 3 31.13 28.72 6.83 o
794 2 -3 -4 3 31.36 27.14 7.08 o
795 2 -2 4 3 34.28 44.43 11.00 o
796 2 -2 -4 3 34.10 47.93 10.75 o
797 2 -1 4 3 20.67 13.46 7.59 <
798 2 -6 5 3 0.34 0.14 0.25 <
799 2 -6 -5 3 0.34 0.55 0.89 <
800 2 -5 5 3 5.88 7.47 2.52 <
801 2 -5 -5 3 6.01 8.08 3.73 <
802 2 -4 5 3 12.29 10.83 4.27 <
803 2 -4 -5 3 12.54 11.61 4.77 <
804 2 -3 5 3 1.71 0.38 1.59 <
805 2 -3 -5 3 1.74 1.60 2.98 <
806 2 -2 5 3 27.31 32.08 11.17 <
807 2 -2 -5 3 27.57 33.30 10.07 o
808 2 1 -5 3 24.70 15.62 2.77 o
809 2 2 -5 3 15.93 15.51 2.14 o
810 2 -5 6 3 0.96 1.82 1.56 <
811 2 -5 -6 3 0.92 2.87 2.63 <
812 2 -4 6 3 1.37 0.08 1.19 <
813 2 -4 -6 3 1.36 0.11 1.20 <
814 2 -3 6 3 24.00 28.19 9.35 o
815 2 -3 -6 3 24.05 31.94 9.85 o
816 2 -2 6 3 6.81 7.33 5.77 <
817 2 -2 -6 3 6.51 7.79 4.82 <
818 2 0 6 3 26.39 7.79 2.65 <
819 2 1 6 3 7.26 8.93 1.20 o
820 2 1 -6 3 7.30 5.82 2.37 <
821 2 2 -6 3 3.09 3.44 1.14 o
822 3 -3 6 -3 10.62 9.53 2.56 o
822 2 3 -6 3 10.62 9.53 2.56 o
823 2 -4 7 3 5.31 10.05 4.83 <
824 2 -4 -7 3 5.29 8.44 5.60 <
825 2 -3 7 3 0.19 1.40 2.17 <
826 2 -3 -7 3 0.19 2.35 3.54 <
827 2 -2 7 3 10.16 10.86 6.98 <
828 2 -2 -7 3 10.17 10.65 6.39 <
829 2 0 7 3 6.31 4.41 2.33 <
830 2 1 7 3 8.70 10.76 1.88 o
831 2 2 -7 3 4.27 4.21 2.04 <
832 2 -3 8 3 8.29 11.18 6.57 <
833 2 -3 -8 3 8.27 10.08 6.41 <
834 2 -2 8 3 3.19 4.96 6.12 <
835 2 0 8 3 12.97 9.69 3.96 <
836 2 1 8 3 5.23 4.62 1.67 <
837 2 -4 0 4 37.62 49.71 3.52 o
838 2 -3 0 4 21.24 20.28 2.56 o
839 2 -2 0 4 49.47 62.59 6.25 o
840 2 -1 0 4 77.92 51.90 7.32 o
841 2 -5 1 4 1.95 1.86 0.88 <
842 2 -5 -1 4 1.95 1.65 1.30 <
843 2 -4 1 4 54.00 57.53 3.78 o
844 2 -4 -1 4 53.83 48.97 6.73 o
845 2 -3 1 4 63.90 74.36 5.09 o
846 2 -3 -1 4 63.90 76.52 5.44 o
847 2 -2 1 4 14.91 12.36 3.06 o
848 2 -2 -1 4 15.03 14.12 2.97 o
849 2 -1 1 4 68.41 41.13 6.98 o
850 2 -1 -1 4 68.41 46.29 6.48 o
851 2 -6 2 4 0.09 0.43 0.68 <
852 2 -6 -2 4 0.09 0.31 0.96 <
853 2 -5 2 4 15.66 15.60 3.02 o
854 2 -5 -2 4 15.49 15.04 4.12 o
855 2 -4 2 4 1.18 2.83 1.41 <
856 2 -4 -2 4 1.25 3.35 2.07 <
857 2 -3 2 4 1.66 0.43 0.61 <
858 2 -3 -2 4 1.63 0.22 0.76 <
859 2 -2 2 4 60.35 60.00 6.28 o
860 2 -2 -2 4 60.23 59.42 5.86 o
861 2 -1 2 4 10.32 6.21 2.65 <
862 2 -1 -2 4 10.19 9.11 2.40 o
863 2 -6 3 4 1.01 3.53 1.42 <
864 2 -6 -3 4 1.00 2.59 1.99 <
865 2 -5 3 4 1.23 0.18 0.83 <
866 2 -5 -3 4 1.24 0.65 1.42 <
867 2 -4 3 4 0.10 2.17 1.84 <
868 2 -4 -3 4 0.08 -0.06 0.79 <
869 2 -3 3 4 9.04 9.65 4.02 <
870 2 -3 -3 4 9.44 7.41 4.02 <
871 2 -2 3 4 7.16 5.82 1.78 o
872 2 -2 -3 4 7.25 6.17 3.72 <
873 2 -1 3 4 41.41 3.16 4.51 <
874 2 -6 4 4 3.20 2.06 1.04 <
875 2 -6 -4 4 3.19 2.36 1.55 <
876 2 -5 4 4 6.11 9.42 3.18 <
877 2 -5 -4 4 6.18 7.87 4.08 <
878 2 -4 4 4 0.46 0.01 0.22 <
879 2 -4 -4 4 0.41 0.50 0.74 <
880 2 -3 4 4 2.88 4.97 3.61 <
881 2 -3 -4 4 2.89 3.92 2.99 <
882 2 -2 4 4 83.04 91.00 17.87 o
883 2 -2 -4 4 83.26 82.05 15.33 o
884 2 -6 5 4 1.97 2.53 1.31 <
885 2 -6 -5 4 1.98 1.50 1.66 <
886 2 -5 5 4 0.23 0.62 1.01 <
887 2 -5 -5 4 0.23 -0.08 1.59 <
888 2 -4 5 4 3.17 4.11 2.89 <
889 2 -4 -5 4 3.21 3.94 3.92 <
890 2 -3 5 4 9.63 10.70 6.21 <
891 2 -3 -5 4 9.40 13.01 6.34 <
892 2 -2 5 4 5.22 7.66 6.28 <
893 2 -2 -5 4 5.13 3.15 2.54 <
894 2 -5 6 4 4.00 6.43 3.63 <
895 2 -5 -6 4 4.03 5.55 4.56 <
896 2 -4 6 4 4.65 7.32 4.23 <
897 2 -4 -6 4 4.68 5.77 3.18 <
898 2 -3 6 4 0.88 -4.65 7.24 <
899 2 -3 -6 4 0.87 -29.05 9.24 <
900 2 -2 6 4 14.35 11.98 8.43 <
901 2 -2 -6 4 14.24 6.47 5.31 <
902 2 2 -6 4 3.70 2.30 1.00 <
903 2 -4 7 4 7.82 12.38 6.43 <
904 2 -4 -7 4 7.84 14.73 7.78 <
905 2 -3 7 4 11.47 22.22 9.63 <
906 2 -3 -7 4 11.46 13.91 8.47 <
907 2 -2 7 4 0.68 -0.84 1.86 <
908 2 -2 8 4 5.45 5.49 6.24 <
909 2 -6 0 5 11.05 1.73 1.67 <
909 1 -2 0 -5 11.05 1.73 1.67 <
910 2 -5 0 5 4.54 2.10 0.82 <
910 1 -1 0 -5 4.54 2.10 0.82 <
911 2 -4 0 5 108.18 83.12 5.86 o
911 1 0 0 -5 108.18 83.12 5.86 o
912 2 -3 0 5 103.70 86.43 7.21 o
912 1 1 0 -5 103.70 86.43 7.21 o
913 2 -2 0 5 0.78 2.66 1.65 <
913 1 2 0 -5 0.78 2.66 1.65 <
914 2 -1 0 5 104.77 78.23 14.26 o
914 1 3 0 -5 104.77 78.23 14.26 o
915 2 -6 1 5 2.34 3.56 1.46 <
915 1 -2 -1 -5 2.34 3.56 1.46 <
916 2 -6 -1 5 2.43 2.54 1.53 <
916 1 -2 1 -5 2.43 2.54 1.53 <
917 2 -5 1 5 22.15 13.36 2.22 o
917 1 -1 -1 -5 22.15 13.36 2.22 o
918 2 -5 -1 5 21.87 12.95 4.40 <
918 1 -1 1 -5 21.87 12.95 4.40 <
919 2 -4 1 5 32.03 20.33 2.85 o
919 1 0 -1 -5 32.03 20.33 2.85 o
920 2 -4 -1 5 32.08 21.93 3.39 o
920 1 0 1 -5 32.08 21.93 3.39 o
921 2 -3 1 5 35.78 41.41 5.16 o
921 1 1 -1 -5 35.78 41.41 5.16 o
922 2 -3 -1 5 36.42 38.08 4.67 o
922 1 1 1 -5 36.42 38.08 4.67 o
923 2 -2 1 5 31.02 28.82 5.58 o
923 1 2 -1 -5 31.02 28.82 5.58 o
924 2 -2 -1 5 31.02 61.10 27.52 <
924 1 2 1 -5 31.02 61.10 27.52 <
925 2 -1 1 5 35.93 25.67 8.73 <
925 1 3 -1 -5 35.93 25.67 8.73 <
926 2 -1 -1 5 35.30 27.11 8.26 o
926 1 3 1 -5 35.30 27.11 8.26 o
927 2 -7 2 5 2.80 3.03 1.46 <
927 1 -3 -2 -5 2.80 3.03 1.46 <
928 2 -7 -2 5 2.89 1.54 1.84 <
928 1 -3 2 -5 2.89 1.54 1.84 <
929 2 -6 2 5 6.03 3.66 1.67 <
929 1 -2 -2 -5 6.03 3.66 1.67 <
930 2 -6 -2 5 6.03 2.12 1.52 <
930 1 -2 2 -5 6.03 2.12 1.52 <
931 2 -5 2 5 1.73 1.34 0.81 <
931 1 -1 -2 -5 1.73 1.34 0.81 <
932 2 -5 -2 5 1.72 0.96 0.45 <
932 1 -1 2 -5 1.72 0.96 0.45 <
933 2 -4 2 5 34.72 27.32 3.75 o
933 1 0 -2 -5 34.72 27.32 3.75 o
934 2 -4 -2 5 35.01 30.26 7.66 o
934 1 0 2 -5 35.01 30.26 7.66 o
935 2 -3 2 5 42.73 23.32 14.90 <
935 1 1 -2 -5 42.73 23.32 14.90 <
936 2 -3 -2 5 42.99 34.10 4.70 o
936 1 1 2 -5 42.99 34.10 4.70 o
937 2 -2 2 5 18.87 12.54 8.57 <
937 1 2 -2 -5 18.87 12.54 8.57 <
938 2 -2 -2 5 18.88 17.85 3.82 o
938 1 2 2 -5 18.88 17.85 3.82 o
939 2 -1 -2 5 42.91 30.01 6.53 o
939 1 3 2 -5 42.91 30.01 6.53 o
940 2 -6 3 5 8.32 6.99 2.42 <
940 1 -2 -3 -5 8.32 6.99 2.42 <
941 2 -6 -3 5 8.35 7.54 3.91 <
941 1 -2 3 -5 8.35 7.54 3.91 <
942 2 -5 3 5 14.88 11.59 3.66 o
942 1 -1 -3 -5 14.88 11.59 3.66 o
943 2 -5 -3 5 14.95 8.41 4.44 <
943 1 -1 3 -5 14.95 8.41 4.44 <
944 2 -4 3 5 9.53 6.63 3.53 <
944 1 0 -3 -5 9.53 6.63 3.53 <
945 2 -4 -3 5 9.49 4.73 4.01 <
945 1 0 3 -5 9.49 4.73 4.01 <
946 2 -3 3 5 24.93 22.66 11.73 <
946 1 1 -3 -5 24.93 22.66 11.73 <
947 2 -3 -3 5 25.05 34.75 9.88 o
947 1 1 3 -5 25.05 34.75 9.88 o
948 2 -2 3 5 50.80 30.64 17.32 <
948 1 2 -3 -5 50.80 30.64 17.32 <
949 2 -2 -3 5 50.79 59.07 6.95 o
949 1 2 3 -5 50.79 59.07 6.95 o
950 2 -1 -3 5 24.48 24.15 3.73 o
950 1 3 3 -5 24.48 24.15 3.73 o
951 2 0 -3 5 9.64 2.01 1.82 <
951 1 4 3 -5 9.64 2.01 1.82 <
952 2 -6 4 5 6.54 6.21 2.76 <
952 1 -2 -4 -5 6.54 6.21 2.76 <
953 2 -6 -4 5 6.52 3.00 3.11 <
953 1 -2 4 -5 6.52 3.00 3.11 <
954 2 -5 4 5 1.31 0.98 1.39 <
954 1 -1 -4 -5 1.31 0.98 1.39 <
955 2 -5 -4 5 1.30 0.54 1.74 <
955 1 -1 4 -5 1.30 0.54 1.74 <
956 2 -4 4 5 4.30 9.45 4.71 <
956 1 0 -4 -5 4.30 9.45 4.71 <
957 2 -4 -4 5 4.14 5.93 4.62 <
957 1 0 4 -5 4.14 5.93 4.62 <
958 2 -3 4 5 8.97 6.69 3.03 <
958 1 1 -4 -5 8.97 6.69 3.03 <
959 2 -3 -4 5 8.93 8.92 5.12 <
959 1 1 4 -5 8.93 8.92 5.12 <
960 2 -2 4 5 1.98 0.38 1.04 <
960 1 2 -4 -5 1.98 0.38 1.04 <
961 2 -2 -4 5 1.98 0.05 0.29 <
961 1 2 4 -5 1.98 0.05 0.29 <
962 2 -5 5 5 10.87 11.34 5.26 <
962 1 -1 -5 -5 10.87 11.34 5.26 <
963 2 -5 -5 5 10.88 10.05 5.48 <
963 1 -1 5 -5 10.88 10.05 5.48 <
964 2 -4 5 5 4.82 5.87 4.35 <
964 1 0 -5 -5 4.82 5.87 4.35 <
965 2 -4 -5 5 4.83 6.28 5.22 <
965 1 0 5 -5 4.83 6.28 5.22 <
966 2 -3 5 5 16.32 13.04 7.77 <
966 1 1 -5 -5 16.32 13.04 7.77 <
967 2 -3 -5 5 16.13 9.09 5.78 <
967 1 1 5 -5 16.13 9.09 5.78 <
968 2 -2 5 5 39.09 26.90 13.62 <
968 1 2 -5 -5 39.09 26.90 13.62 <
969 2 -2 -5 5 39.09 33.59 12.35 <
969 1 2 5 -5 39.09 33.59 12.35 <
970 2 -4 6 5 17.92 29.74 10.23 <
970 1 0 -6 -5 17.92 29.74 10.23 <
971 2 -4 -6 5 17.94 22.94 10.30 <
971 1 0 6 -5 17.94 22.94 10.30 <
972 2 -3 6 5 19.46 28.31 11.07 <
972 1 1 -6 -5 19.46 28.31 11.07 <
973 2 -3 -6 5 19.39 25.57 11.31 <
973 1 1 6 -5 19.39 25.57 11.31 <
974 2 -2 6 5 4.72 9.41 8.17 <
974 1 2 -6 -5 4.72 9.41 8.17 <
975 2 -3 7 5 3.02 4.08 4.84 <
975 1 1 -7 -5 3.02 4.08 4.84 <
976 2 -3 -7 5 3.02 3.81 3.15 <
976 1 1 7 -5 3.02 3.81 3.15 <
977 2 -2 7 5 4.88 -1.10 1.17 <
977 1 2 -7 -5 4.88 -1.10 1.17 <
978 2 -6 0 6 0.68 0.37 1.05 <
979 2 -5 0 6 0.06 0.60 0.88 <
980 2 -4 0 6 0.24 0.42 0.41 <
981 2 -3 0 6 1.41 1.64 1.59 <
982 2 -2 0 6 1.81 1.59 1.95 <
983 2 -1 0 6 1.85 2.86 2.97 <
984 2 -6 1 6 0.63 -0.18 0.51 <
985 2 -6 -1 6 0.63 0.78 0.46 <
986 2 -5 1 6 3.36 3.90 1.99 <
987 2 -5 -1 6 3.35 5.82 1.76 o
988 2 -4 1 6 6.52 7.49 4.51 <
989 2 -4 -1 6 6.68 9.70 2.72 o
990 2 -3 1 6 4.92 5.08 3.88 <
991 2 -3 -1 6 4.84 8.26 2.71 o
992 2 -2 1 6 14.02 16.50 6.84 <
993 2 -2 -1 6 14.05 10.30 3.67 <
994 2 -1 1 6 16.85 1.78 3.56 <
995 2 -1 -1 6 16.53 8.89 5.05 <
996 2 -6 2 6 2.08 5.01 1.95 <
997 2 -6 -2 6 2.08 5.18 3.30 <
998 2 -5 2 6 2.25 2.50 1.31 <
999 2 -5 -2 6 2.32 4.61 3.29 <
1000 2 -4 2 6 0.35 1.31 1.26 <
1001 2 -4 -2 6 0.36 1.38 1.35 <
1002 2 -3 2 6 21.22 20.84 14.16 <
1003 2 -3 -2 6 21.38 33.05 5.27 o
1004 2 -2 2 6 12.08 10.78 7.26 <
1005 2 -2 -2 6 11.90 20.02 5.29 o
1006 2 -1 -2 6 0.45 1.44 2.33 <
1007 2 -6 3 6 1.88 3.51 1.70 <
1008 2 -6 -3 6 1.88 1.93 2.11 <
1009 2 -5 3 6 1.76 2.45 1.62 <
1010 2 -5 -3 6 1.76 4.43 3.85 <
1011 2 -4 3 6 4.62 9.62 5.28 <
1012 2 -4 -3 6 4.57 6.78 4.75 <
1013 2 -3 3 6 4.44 2.54 2.39 <
1014 2 -3 -3 6 4.36 6.06 1.93 o
1015 2 -2 3 6 6.21 1.57 2.13 <
1016 2 -2 -3 6 6.32 6.41 2.38 <
1017 2 -1 -3 6 11.82 10.75 3.88 <
1018 2 -5 4 6 2.40 5.79 3.69 <
1019 2 -5 -4 6 2.38 5.41 3.60 <
1020 2 -4 4 6 1.30 1.97 1.33 <
1021 2 -4 -4 6 1.29 2.26 2.76 <
1022 2 -3 4 6 10.84 9.20 4.39 <
1023 2 -3 -4 6 10.79 12.73 6.73 <
1024 2 -2 4 6 13.52 7.44 4.97 <
1025 2 -2 -4 6 13.54 12.75 7.39 <
1026 2 -1 -4 6 0.30 0.82 0.63 <
1027 2 0 -4 6 10.28 4.04 3.25 <
1028 2 -5 5 6 0.72 3.88 3.71 <
1029 2 -5 -5 6 0.73 1.16 1.39 <
1030 2 -4 5 6 2.44 9.47 6.24 <
1031 2 -4 -5 6 2.43 8.14 6.58 <
1032 2 -3 5 6 4.46 4.29 3.32 <
1033 2 -3 -5 6 4.52 7.90 5.96 <
1034 2 -2 5 6 5.19 3.13 3.13 <
1035 2 -3 6 6 3.24 2.42 2.58 <
1036 2 -3 -6 6 3.21 4.17 4.83 <
1037 2 -2 6 6 2.52 0.73 0.92 <
1038 2 -6 0 7 0.85 0.98 1.10 <
1039 2 -5 0 7 1.14 0.98 2.88 <
1040 2 -4 0 7 3.41 4.73 3.75 <
1041 2 -3 0 7 0.13 -2.13 1.64 <
1042 2 -2 0 7 6.93 4.82 3.38 <
1043 2 -1 0 7 3.55 3.97 3.81 <
1044 2 -6 1 7 0.05 1.27 1.27 <
1045 2 -6 -1 7 0.06 1.73 1.25 <
1046 2 -5 1 7 2.04 1.41 1.41 <
1047 2 -5 -1 7 2.07 2.00 1.40 <
1048 2 -4 1 7 1.61 3.24 3.23 <
1049 2 -4 -1 7 1.59 2.00 2.00 <
1050 2 -3 1 7 3.57 4.65 2.68 <
1051 2 -3 -1 7 3.54 6.02 4.94 <
1052 2 -2 1 7 1.08 0.09 1.61 <
1053 2 -2 -1 7 1.13 -0.21 2.46 <
1054 2 -1 -1 7 2.56 0.69 1.28 <
1055 2 -5 2 7 1.54 2.21 1.73 <
1056 2 -5 -2 7 1.50 2.39 2.33 <
1057 2 -4 2 7 1.72 4.75 2.64 <
1058 2 -4 -2 7 1.68 2.73 2.73 <
1059 2 -3 2 7 0.49 0.41 1.31 <
1060 2 -3 -2 7 0.49 0.94 1.34 <
1061 2 -2 2 7 4.49 1.92 2.29 <
1062 2 -2 -2 7 4.50 5.00 3.15 <
1063 2 -1 -2 7 6.44 5.38 4.63 <
1064 2 -5 3 7 0.39 0.33 1.13 <
1065 2 -5 -3 7 0.39 -1.97 1.16 <
1066 2 -4 3 7 3.34 3.46 2.33 <
1067 2 -4 -3 7 3.33 6.36 3.33 <
1068 2 -3 3 7 5.00 4.14 4.14 <
1069 2 -3 -3 7 5.01 5.25 6.50 <
1070 2 -2 3 7 5.81 2.86 3.16 <
1071 2 -2 -3 7 5.83 8.53 2.69 o
1072 2 -1 -3 7 4.64 6.35 3.20 <
1073 2 -4 4 7 1.28 3.67 2.73 <
1074 2 -4 -4 7 1.29 0.00 4.00 <
1075 2 -3 4 7 0.06 -0.52 2.74 <
1076 2 -3 -4 7 0.06 -0.06 2.37 <
1077 2 -2 4 7 4.77 3.91 2.82 <
1078 2 -2 -4 7 4.76 8.93 2.06 o
1079 2 -1 -4 7 4.98 8.71 2.95 <
1080 2 -4 0 8 3.19 9.77 3.51 <
1081 2 -3 0 8 3.52 8.81 3.52 <
1082 2 -2 0 8 0.48 -5.37 3.86 <
1083 2 -4 1 8 1.25 1.65 2.10 <
1084 2 -4 -1 8 1.23 1.52 2.05 <
1085 2 -3 1 8 1.83 1.71 1.92 <
1086 2 -3 -1 8 1.85 1.46 1.77 <
1087 2 -2 1 8 2.49 168.35 33.49 o
1088 2 -2 -1 8 2.55 4.33 3.95 <
1089 2 -3 2 8 1.93 3.36 3.01 <
1090 2 -3 -2 8 1.97 3.72 3.41 <
1091 4 2 0 0 0.81 4.08 0.92 o
1091 3 2 0 0 0.81 4.08 0.92 o
1092 4 3 0 0 521.83 388.34 9.69 o
1092 3 3 0 0 521.83 388.34 9.69 o
1093 4 1 -1 0 1116.24 802.05 15.91 o
1093 3 1 1 0 1116.24 802.05 15.91 o
1094 4 1 1 0 1116.31 795.97 16.42 o
1094 3 1 -1 0 1116.31 795.97 16.42 o
1095 4 2 -1 0 89.09 51.22 5.29 o
1095 3 2 1 0 89.09 51.22 5.29 o
1096 4 2 1 0 88.81 50.33 2.94 o
1096 3 2 -1 0 88.81 50.33 2.94 o
1097 4 3 -1 0 1.30 0.72 0.51 <
1097 3 3 1 0 1.30 0.72 0.51 <
1098 4 3 1 0 1.30 1.16 0.61 <
1098 3 3 -1 0 1.30 1.16 0.61 <
1099 4 1 -2 0 10.99 6.47 1.26 o
1099 3 1 2 0 10.99 6.47 1.26 o
1100 4 1 2 0 11.07 6.97 1.08 o
1100 3 1 -2 0 11.07 6.97 1.08 o
1101 4 2 -2 0 110.79 47.78 4.99 o
1101 3 2 2 0 110.79 47.78 4.99 o
1102 4 2 2 0 110.87 46.26 6.84 o
1102 3 2 -2 0 110.87 46.26 6.84 o
1103 4 3 -2 0 237.08 135.64 11.14 o
1103 3 3 2 0 237.08 135.64 11.14 o
1104 4 3 2 0 237.09 112.65 10.15 o
1104 3 3 -2 0 237.09 112.65 10.15 o
1105 4 1 -3 0 140.12 78.34 12.69 o
1105 3 1 3 0 140.12 78.34 12.69 o
1106 4 1 3 0 140.06 79.89 13.99 o
1106 3 1 -3 0 140.06 79.89 13.99 o
1107 4 2 -3 0 554.07 359.30 57.36 o
1107 3 2 3 0 554.07 359.30 57.36 o
1108 4 2 3 0 554.14 354.21 53.48 o
1108 3 2 -3 0 554.14 354.21 53.48 o
1109 4 3 -3 0 47.41 26.86 3.58 o
1109 3 3 3 0 47.41 26.86 3.58 o
1110 4 3 3 0 47.41 25.66 2.75 o
1110 3 3 -3 0 47.41 25.66 2.75 o
1111 4 1 -4 0 59.42 24.09 3.38 o
1111 3 1 4 0 59.42 24.09 3.38 o
1112 4 1 4 0 59.34 26.27 6.17 o
1112 3 1 -4 0 59.34 26.27 6.17 o
1113 4 2 -4 0 3.71 4.41 1.17 o
1113 3 2 4 0 3.71 4.41 1.17 o
1114 4 2 4 0 3.68 3.46 1.10 o
1114 3 2 -4 0 3.68 3.46 1.10 o
1115 4 3 -4 0 65.84 47.15 3.63 o
1115 3 3 4 0 65.84 47.15 3.63 o
1116 4 3 4 0 65.83 48.18 4.52 o
1116 3 3 -4 0 65.83 48.18 4.52 o
1117 4 4 -4 0 0.17 0.25 0.83 <
1117 3 4 4 0 0.17 0.25 0.83 <
1118 4 4 4 0 0.17 -0.21 0.68 <
1118 3 4 -4 0 0.17 -0.21 0.68 <
1119 4 1 -5 0 161.93 81.84 21.55 o
1119 3 1 5 0 161.93 81.84 21.55 o
1120 4 1 5 0 161.93 82.97 17.46 o
1120 3 1 -5 0 161.93 82.97 17.46 o
1121 4 2 -5 0 161.24 62.48 14.17 o
1121 3 2 5 0 161.24 62.48 14.17 o
1122 4 2 5 0 161.24 77.92 7.66 o
1122 3 2 -5 0 161.24 77.92 7.66 o
1123 4 3 -5 0 1.05 1.86 0.89 <
1123 3 3 5 0 1.05 1.86 0.89 <
1124 4 3 5 0 1.06 1.78 0.83 <
1124 3 3 -5 0 1.06 1.78 0.83 <
1125 4 4 -5 0 20.80 12.35 3.98 o
1125 3 4 5 0 20.80 12.35 3.98 o
1126 4 4 5 0 20.81 7.72 2.36 o
1126 3 4 -5 0 20.81 7.72 2.36 o
1127 4 5 5 0 9.70 12.84 3.24 o
1127 3 5 -5 0 9.70 12.84 3.24 o
1128 4 1 -6 0 21.42 13.89 2.98 o
1128 3 1 6 0 21.42 13.89 2.98 o
1129 4 1 6 0 21.46 13.05 2.45 o
1129 3 1 -6 0 21.46 13.05 2.45 o
1130 4 2 -6 0 31.54 21.60 3.78 o
1130 3 2 6 0 31.54 21.60 3.78 o
1131 4 2 6 0 31.54 21.48 4.66 o
1131 3 2 -6 0 31.54 21.48 4.66 o
1132 4 3 -6 0 85.31 44.28 4.40 o
1132 3 3 6 0 85.31 44.28 4.40 o
1133 4 3 6 0 85.31 44.52 5.02 o
1133 3 3 -6 0 85.31 44.52 5.02 o
1134 4 4 -6 0 13.95 14.39 2.38 o
1134 3 4 6 0 13.95 14.39 2.38 o
1135 4 4 6 0 13.96 9.79 2.34 o
1135 3 4 -6 0 13.96 9.79 2.34 o
1136 4 5 6 0 2.71 1.42 0.77 <
1136 3 5 -6 0 2.71 1.42 0.77 <
1137 4 1 -7 0 120.38 61.05 8.23 o
1137 3 1 7 0 120.38 61.05 8.23 o
1138 4 1 7 0 120.39 49.55 48.16 <
1138 3 1 -7 0 120.39 49.55 48.16 <
1139 4 2 -7 0 19.95 10.12 2.32 o
1139 3 2 7 0 19.95 10.12 2.32 o
1140 4 2 7 0 19.95 11.22 2.21 o
1140 3 2 -7 0 19.95 11.22 2.21 o
1141 4 3 -7 0 2.33 1.54 1.00 <
1141 3 3 7 0 2.33 1.54 1.00 <
1142 4 3 7 0 2.33 0.79 0.80 <
1142 3 3 -7 0 2.33 0.79 0.80 <
1143 4 4 -7 0 21.24 21.96 5.62 o
1143 3 4 7 0 21.24 21.96 5.62 o
1144 4 4 7 0 21.24 16.64 3.99 o
1144 3 4 -7 0 21.24 16.64 3.99 o
1145 4 1 -8 0 19.43 7.64 2.63 <
1145 3 1 8 0 19.43 7.64 2.63 <
1146 4 1 8 0 19.42 0.17 2.50 <
1146 3 1 -8 0 19.42 0.17 2.50 <
1147 4 2 -8 0 3.40 0.68 0.82 <
1147 3 2 8 0 3.40 0.68 0.82 <
1148 4 2 8 0 3.41 0.06 0.58 <
1148 3 2 -8 0 3.41 0.06 0.58 <
1149 4 3 -8 0 23.53 18.60 3.28 o
1149 3 3 8 0 23.53 18.60 3.28 o
1150 4 3 8 0 23.53 14.98 4.16 o
1150 3 3 -8 0 23.53 14.98 4.16 o
1151 4 1 -9 0 14.19 4.67 2.44 <
1151 3 1 9 0 14.19 4.67 2.44 <
1152 3 -4 0 1 0.13 1.38 1.63 <
1153 3 -3 0 1 1.12 0.83 0.80 <
1154 3 -2 0 1 82.64 124.83 6.14 o
1155 3 -5 1 1 4.56 0.84 1.63 <
1156 3 -4 1 1 50.12 32.77 6.95 o
1157 3 -3 1 1 100.01 88.94 8.19 o
1158 3 -3 -1 1 98.69 79.88 6.16 o
1159 3 -2 1 1 444.95 509.28 19.90 o
1160 3 -2 -1 1 444.98 510.56 21.17 o
1161 3 -1 1 1 540.43 857.19 19.22 o
1162 3 -1 -1 1 540.50 860.29 19.17 o
1163 3 -6 2 1 3.39 1.71 1.40 <
1164 3 -5 2 1 23.21 11.79 4.38 <
1165 3 -4 2 1 13.92 6.43 2.37 <
1166 3 -3 -2 1 92.75 30.31 8.65 o
1167 3 -2 2 1 387.42 478.33 21.83 o
1168 3 -2 -2 1 387.96 472.00 23.24 o
1169 3 -1 2 1 12.87 6.48 2.14 o
1170 3 -1 -2 1 13.76 6.49 2.35 <
1171 3 0 2 1 0.28 0.11 0.21 <
1172 3 0 -2 1 0.23 -0.02 0.24 <
1173 3 -6 3 1 3.45 3.41 2.58 <
1174 3 -5 3 1 0.10 0.21 0.82 <
1175 3 -2 3 1 3.46 11.09 8.77 <
1176 3 -2 -3 1 3.46 4.18 2.77 <
1177 3 -1 3 1 67.94 87.01 9.52 o
1178 3 -1 -3 1 68.14 74.83 9.61 o
1179 3 0 3 1 15.64 15.56 2.11 o
1180 3 0 -3 1 15.59 23.78 3.84 o
1181 3 2 3 1 121.11 135.31 3.13 o
1182 3 -6 4 1 0.73 0.40 0.74 <
1183 3 -2 -4 1 261.44 161.62 17.52 o
1184 3 -1 4 1 19.12 26.08 5.80 o
1185 3 -1 -4 1 18.71 22.90 6.13 o
1186 3 0 4 1 3.88 2.95 2.00 <
1187 3 0 -4 1 3.67 2.36 1.43 <
1188 3 2 4 1 74.21 47.42 4.02 o
1189 3 3 4 1 3.76 3.07 0.46 o
1190 3 -1 -5 1 43.45 106.99 14.15 o
1191 3 0 5 1 75.12 127.27 12.75 o
1192 3 0 -5 1 75.15 118.83 12.36 o
1193 3 2 5 1 44.29 31.56 5.11 o
1194 3 2 -5 1 44.11 48.30 2.87 o
1195 3 3 5 1 15.59 5.60 1.76 o
1196 3 4 5 1 1.53 1.28 0.34 o
1197 3 -1 -6 1 16.60 23.32 7.68 o
1198 3 0 -6 1 14.38 25.74 6.66 o
1199 3 2 6 1 12.36 13.95 3.77 o
1200 3 2 -6 1 12.67 12.88 2.05 o
1201 3 3 6 1 0.71 -0.78 0.69 <
1202 3 -1 -7 1 53.09 82.66 16.53 o
1203 3 0 -7 1 51.72 96.74 15.13 o
1204 3 2 7 1 14.72 10.78 3.35 o
1205 3 2 -7 1 14.66 15.27 2.99 o
1206 3 3 7 1 19.18 22.70 4.27 o
1207 3 3 -7 1 19.09 28.17 2.03 o
1208 3 -1 -8 1 6.31 0.10 3.21 <
1209 3 0 -8 1 3.43 7.55 4.55 <
1210 3 2 -8 1 2.43 5.92 2.18 <
1211 3 0 -9 1 11.69 18.54 6.81 <
1212 3 -7 0 2 1.71 1.99 2.85 <
1213 3 -6 0 2 0.02 0.44 1.38 <
1214 3 -5 0 2 3.70 -0.04 0.80 <
1215 3 -4 0 2 28.43 24.02 3.97 o
1216 3 -3 0 2 2.22 0.49 0.60 <
1217 3 -2 0 2 3.49 3.28 0.85 o
1218 3 -7 1 2 1.00 -1.14 2.58 <
1219 3 -7 -1 2 1.01 1.55 3.32 <
1220 3 -6 1 2 2.18 3.70 2.92 <
1221 3 -6 -1 2 2.16 4.85 4.10 <
1222 3 -5 1 2 12.24 4.79 2.11 <
1223 3 -5 -1 2 12.63 4.71 2.22 <
1224 3 -4 1 2 4.43 0.84 0.94 <
1225 3 -4 -1 2 4.43 1.49 1.20 <
1226 3 -3 1 2 93.02 96.41 5.60 o
1227 3 -3 -1 2 94.48 100.04 6.29 o
1228 3 -2 1 2 44.13 42.95 2.97 o
1229 3 -2 -1 2 42.83 43.97 2.80 o
1230 3 -1 1 2 327.93 311.93 8.69 o
1231 3 -1 -1 2 328.81 307.88 7.70 o
1232 3 -7 2 2 1.78 1.80 2.44 <
1233 3 -6 2 2 0.07 0.37 0.38 <
1234 3 -6 -2 2 0.06 0.48 1.05 <
1235 3 -5 2 2 2.55 5.10 1.73 <
1236 3 -5 -2 2 2.44 2.88 2.07 <
1237 3 -4 2 2 72.73 64.29 5.83 o
1238 3 -4 -2 2 72.69 59.13 6.94 o
1239 3 -3 2 2 111.86 73.62 5.56 o
1240 3 -3 -2 2 110.06 73.84 5.77 o
1241 3 -2 2 2 63.59 44.99 6.70 o
1242 3 -2 -2 2 64.21 49.79 7.10 o
1243 3 -1 2 2 621.62 876.42 20.90 o
1244 3 -1 -2 2 622.05 879.87 19.13 o
1245 3 0 2 2 197.82 177.48 5.80 o
1246 3 0 -2 2 197.52 173.94 5.20 o
1247 3 -6 3 2 2.16 2.36 1.17 <
1248 3 -5 3 2 30.70 21.80 2.40 o
1249 3 -5 -3 2 30.88 16.07 4.43 o
1250 3 -4 3 2 0.85 0.65 0.52 <
1251 3 -4 -3 2 0.84 0.05 0.80 <
1252 3 -3 3 2 54.43 67.84 10.69 o
1253 3 -3 -3 2 54.40 55.49 5.49 o
1254 3 -2 3 2 297.07 356.55 21.84 o
1255 3 -2 -3 2 297.14 372.09 22.01 o
1256 3 -1 3 2 15.36 25.58 4.50 o
1257 3 -1 -3 2 15.47 23.25 4.46 o
1258 3 0 3 2 306.98 395.48 12.20 o
1259 3 0 -3 2 306.97 394.23 10.87 o
1260 3 1 3 2 196.04 166.16 5.49 o
1261 3 -6 4 2 2.43 1.58 0.63 <
1262 3 -5 -4 2 1.59 0.54 0.75 <
1263 3 -4 4 2 48.75 38.81 9.75 o
1264 3 -4 -4 2 48.75 39.65 5.89 o
1265 3 -3 4 2 42.00 33.94 7.82 o
1266 3 -3 -4 2 42.30 32.44 8.79 o
1267 3 -2 4 2 2.47 5.20 2.79 <
1268 3 -2 -4 2 2.23 3.03 2.26 <
1269 3 -1 4 2 193.45 377.89 22.01 o
1270 3 -1 -4 2 192.86 330.52 19.39 o
1271 3 0 4 2 10.74 14.15 3.40 o
1272 3 0 -4 2 10.72 17.45 2.98 o
1273 3 1 4 2 33.34 28.52 3.45 o
1274 3 1 -4 2 33.03 29.04 2.38 o
1275 3 2 4 2 182.07 154.28 5.28 o
1275 2 -2 -4 -2 182.07 154.28 5.28 o
1276 3 -4 -5 2 0.19 0.48 0.65 <
1277 3 -3 5 2 42.80 54.41 10.71 o
1278 3 -3 -5 2 42.60 38.20 10.95 o
1279 3 -2 5 2 49.62 69.29 11.21 o
1280 3 -2 -5 2 49.84 61.95 10.92 o
1281 3 -1 5 2 20.33 41.70 7.30 o
1282 3 -1 -5 2 20.16 37.74 6.55 o
1283 3 0 5 2 89.96 75.10 10.43 o
1284 3 0 -5 2 89.78 100.20 9.00 o
1285 3 1 5 2 64.45 64.20 6.82 o
1286 3 1 -5 2 64.48 65.55 4.76 o
1287 3 2 5 2 15.39 15.16 2.29 o
1287 2 -2 -5 -2 15.39 15.16 2.29 o
1288 3 3 5 2 12.42 39.19 3.53 o
1289 3 -4 -6 2 10.39 -2.94 2.63 <
1290 3 -3 6 2 8.17 4.73 4.38 <
1291 3 -3 -6 2 8.51 3.92 3.62 <
1292 3 -2 6 2 8.79 19.08 6.17 o
1293 3 -2 -6 2 8.74 17.65 6.46 <
1294 3 -1 6 2 60.98 90.55 11.84 o
1295 3 -1 -6 2 61.39 83.59 11.31 o
1296 3 0 6 2 21.93 21.30 6.33 o
1297 3 0 -6 2 21.93 31.25 5.52 o
1298 3 1 6 2 11.90 11.23 4.44 <
1299 3 1 -6 2 11.56 14.82 2.72 o
1300 3 2 6 2 29.92 18.31 4.38 o
1300 2 -2 -6 -2 29.92 18.31 4.38 o
1301 3 2 -6 2 29.97 36.00 2.56 o
1301 2 -2 6 -2 29.97 36.00 2.56 o
1302 3 3 6 2 6.96 7.41 1.64 o
1303 3 -3 -7 2 5.61 4.90 3.44 <
1304 3 -2 7 2 11.16 10.58 4.78 <
1305 3 -2 -7 2 11.10 11.01 6.42 <
1306 3 -1 7 2 0.14 -1.55 1.62 <
1307 3 -1 -7 2 0.13 -2.07 2.16 <
1308 3 0 7 2 10.07 5.89 3.19 <
1309 3 0 -7 2 10.26 5.18 2.54 <
1310 3 1 7 2 9.76 3.75 1.88 <
1311 3 1 -7 2 9.84 5.50 1.73 o
1312 3 2 7 2 1.20 1.11 1.18 <
1312 2 -2 -7 -2 1.20 1.11 1.18 <
1313 3 2 -7 2 1.20 2.11 0.84 <
1313 2 -2 7 -2 1.20 2.11 0.84 <
1314 3 3 7 2 5.11 4.48 1.80 <
1315 3 -3 -8 2 1.99 0.80 3.15 <
1316 3 -2 -8 2 1.96 1.90 2.12 <
1317 3 -1 8 2 19.33 18.60 5.82 o
1318 3 -1 -8 2 19.26 15.40 6.01 <
1319 3 0 8 2 5.48 2.10 1.83 <
1320 3 0 -8 2 5.51 3.79 2.70 <
1321 3 1 8 2 3.33 7.15 3.31 <
1322 3 1 -8 2 3.43 7.39 2.76 <
1323 3 2 8 2 19.37 17.92 5.37 o
1323 2 -2 -8 -2 19.37 17.92 5.37 o
1324 3 2 -8 2 19.35 21.03 2.98 o
1324 2 -2 8 -2 19.35 21.03 2.98 o
1325 3 -7 0 3 1.42 -0.15 1.52 <
1326 3 -6 0 3 2.91 4.48 2.20 <
1327 3 -5 0 3 0.08 0.66 0.73 <
1328 3 -4 0 3 6.74 4.07 1.40 <
1329 3 -3 0 3 342.76 279.83 7.48 o
1330 3 -2 0 3 0.95 0.25 0.15 <
1331 3 -7 1 3 2.74 1.69 0.82 <
1332 3 -7 -1 3 2.68 0.92 1.36 <
1333 3 -6 1 3 0.07 0.35 0.90 <
1334 3 -6 -1 3 0.07 -0.71 1.38 <
1335 3 -5 1 3 1.75 6.33 1.96 o
1336 3 -5 -1 3 1.65 6.37 2.45 <
1337 3 -4 1 3 44.96 36.36 4.05 o
1338 3 -4 -1 3 44.93 40.29 4.57 o
1339 3 -3 1 3 0.53 0.50 0.38 <
1340 3 -3 -1 3 0.52 0.94 0.34 <
1341 3 -2 1 3 134.88 151.01 8.02 o
1342 3 -2 -1 3 132.32 147.00 6.61 o
1343 3 -1 1 3 56.88 51.06 3.95 o
1344 3 -1 -1 3 58.67 55.43 3.13 o
1345 3 -7 2 3 0.19 -0.08 0.46 <
1346 3 -7 -2 3 0.18 0.31 0.79 <
1347 3 -6 2 3 5.07 5.21 1.72 o
1348 3 -6 -2 3 5.06 4.31 2.65 <
1349 3 -5 2 3 7.85 3.77 1.54 <
1350 3 -5 -2 3 8.00 4.30 2.32 <
1351 3 -4 2 3 11.26 8.32 1.84 o
1352 3 -4 -2 3 10.96 8.62 2.21 o
1353 3 -3 2 3 69.96 93.46 10.33 o
1354 3 -3 -2 3 69.33 91.84 10.71 o
1355 3 -2 2 3 96.79 128.05 8.88 o
1356 3 -2 -2 3 98.44 124.12 8.29 o
1357 3 -1 2 3 153.08 190.27 8.24 o
1358 3 -1 -2 3 151.44 175.53 6.86 o
1359 3 -6 3 3 1.02 -0.01 0.32 <
1360 3 -6 -3 3 1.02 -0.96 1.41 <
1361 3 -5 3 3 25.73 21.52 3.53 o
1362 3 -5 -3 3 25.52 17.41 4.28 o
1363 3 -4 3 3 20.04 17.31 6.13 <
1364 3 -4 -3 3 19.48 16.30 3.09 o
1365 3 -3 3 3 18.03 21.54 5.38 o
1366 3 -3 -3 3 17.94 21.94 5.49 o
1367 3 -2 3 3 150.41 153.46 12.48 o
1368 3 -2 -3 3 150.65 149.51 10.95 o
1369 3 -1 3 3 196.63 240.67 11.43 o
1370 3 -1 -3 3 196.45 235.65 10.19 o
1371 3 0 3 3 5.32 1.93 0.72 <
1372 3 0 -3 3 5.31 2.84 0.72 o
1373 3 -6 4 3 6.92 5.92 1.89 o
1374 3 -6 -4 3 6.94 5.61 3.38 <
1375 3 -5 4 3 0.48 3.31 2.78 <
1376 3 -5 -4 3 0.46 1.88 1.23 <
1377 3 -4 4 3 1.85 -0.52 1.57 <
1378 3 -4 -4 3 1.97 2.12 2.63 <
1379 3 -3 4 3 41.62 35.23 7.89 o
1380 3 -3 -4 3 41.93 35.17 7.86 o
1381 3 -2 4 3 45.83 76.62 9.99 o
1382 3 -2 -4 3 45.58 75.28 9.56 o
1383 3 -1 4 3 27.63 39.75 5.95 o
1384 3 -1 -4 3 27.91 38.73 5.09 o
1385 3 0 4 3 107.35 94.20 7.15 o
1386 3 0 -4 3 107.20 102.98 5.68 o
1387 3 1 4 3 33.86 26.35 2.82 o
1388 3 -6 5 3 0.45 -1.04 1.10 <
1389 3 -6 -5 3 0.45 -0.01 1.49 <
1390 3 -5 5 3 7.86 9.65 5.18 <
1391 3 -5 -5 3 8.04 7.94 2.79 <
1392 3 -4 5 3 16.43 11.98 5.23 <
1393 3 -4 -5 3 16.77 14.01 7.06 <
1394 3 -3 5 3 2.28 0.10 0.79 <
1395 3 -3 -5 3 2.32 -0.72 1.40 <
1396 3 -2 5 3 36.51 100.34 16.82 o
1397 3 -2 -5 3 36.85 59.00 9.43 o
1398 3 -1 5 3 58.70 91.92 10.24 o
1399 3 -1 -5 3 58.34 83.96 8.40 o
1400 3 0 5 3 0.79 1.48 0.87 <
1401 3 0 -5 3 0.78 1.96 1.04 <
1402 3 1 5 3 33.43 26.04 3.65 o
1403 3 1 -5 3 33.02 33.00 2.91 o
1404 3 2 5 3 21.56 21.87 2.38 o
1405 3 -5 6 3 1.28 5.02 4.48 <
1406 3 -5 -6 3 1.23 3.35 2.02 <
1407 3 -4 6 3 1.83 1.37 0.95 <
1408 3 -4 -6 3 1.82 0.92 2.03 <
1409 3 -3 6 3 32.09 47.29 10.14 o
1410 3 -3 -6 3 32.15 37.20 10.14 o
1411 3 -2 6 3 9.11 13.06 4.68 <
1412 3 -2 -6 3 8.70 11.33 4.36 <
1413 3 -1 6 3 10.30 15.11 4.18 o
1414 3 -1 -6 3 10.61 22.15 4.76 o
1415 3 0 6 3 35.29 31.04 5.59 o
1416 3 0 -6 3 35.36 26.21 4.12 o
1417 3 1 6 3 9.71 7.90 2.79 <
1418 3 1 -6 3 9.76 11.09 1.82 o
1419 3 2 6 3 4.06 5.12 1.56 o
1420 3 3 6 3 10.62 5.29 1.41 o
1420 2 -3 -6 -3 10.62 5.29 1.41 o
1421 3 -4 7 3 7.09 11.41 5.34 <
1422 3 -4 -7 3 7.07 8.91 5.16 <
1423 3 -3 7 3 0.25 2.59 2.88 <
1424 3 -3 -7 3 0.25 -0.73 1.31 <
1425 3 -2 7 3 13.59 16.30 5.76 <
1426 3 -2 -7 3 13.59 15.42 5.56 <
1427 3 -1 7 3 10.06 6.13 3.34 <
1428 3 -1 -7 3 10.16 6.60 2.66 <
1429 3 0 7 3 8.44 7.70 3.15 <
1430 3 0 -7 3 8.45 12.77 3.10 o
1431 3 1 7 3 11.63 18.86 4.35 o
1432 3 1 -7 3 11.61 15.48 2.59 o
1433 3 2 7 3 5.70 3.19 1.66 <
1434 3 2 -7 3 5.71 6.34 1.11 o
1435 3 -3 8 3 11.09 17.44 6.76 <
1436 3 -3 -8 3 11.06 18.99 7.88 <
1437 3 -2 8 3 4.26 4.77 3.13 <
1438 3 -2 -8 3 4.39 6.23 3.70 <
1439 3 -1 8 3 3.68 12.30 4.66 <
1440 3 -1 -8 3 3.57 4.38 2.85 <
1441 3 0 8 3 17.34 28.84 7.04 o
1442 3 0 -8 3 17.37 22.72 5.08 o
1443 3 1 8 3 7.00 153.65 19.87 o
1444 3 1 -8 3 6.99 45.44 7.71 o
1445 3 -7 0 4 0.42 1.58 1.43 <
1446 3 -6 0 4 2.91 -0.55 1.02 <
1447 3 -5 0 4 12.70 19.70 3.24 o
1448 3 -4 0 4 50.30 52.37 4.04 o
1449 3 -3 0 4 28.40 27.65 2.16 o
1450 3 -7 1 4 0.70 1.06 1.10 <
1451 3 -7 -1 4 0.69 1.01 1.59 <
1452 3 -6 1 4 3.06 24.16 23.85 <
1453 3 -6 -1 4 3.06 2.65 1.87 <
1454 3 -5 1 4 2.61 0.96 0.80 <
1455 3 -5 -1 4 2.61 0.83 0.89 <
1456 3 -4 1 4 72.20 59.15 9.24 o
1457 3 -4 -1 4 71.97 60.38 4.65 o
1458 3 -3 1 4 85.43 91.34 7.80 o
1459 3 -3 -1 4 85.43 99.65 4.10 o
1460 3 -2 1 4 19.93 24.50 2.97 o
1461 3 -2 -1 4 20.09 21.77 2.35 o
1462 3 -7 2 4 0.08 0.19 0.46 <
1463 3 -7 -2 4 0.08 -0.12 0.76 <
1464 3 -6 2 4 0.12 1.61 1.47 <
1465 3 -6 -2 4 0.12 0.59 1.40 <
1466 3 -5 2 4 20.94 15.34 3.48 o
1467 3 -5 -2 4 20.71 16.71 3.29 o
1468 3 -4 2 4 1.58 2.74 1.80 <
1469 3 -4 -2 4 1.67 2.97 0.96 o
1470 3 -3 2 4 2.22 0.00 0.76 <
1471 3 -3 -2 4 2.18 -0.40 0.71 <
1472 3 -2 2 4 80.68 87.33 6.88 o
1473 3 -2 -2 4 80.53 90.80 5.76 o
1474 3 -1 2 4 13.80 14.69 2.35 o
1475 3 -1 -2 4 13.62 16.54 1.99 o
1476 3 -6 3 4 1.35 2.28 1.30 <
1477 3 -6 -3 4 1.34 1.47 1.93 <
1478 3 -5 3 4 1.64 1.63 0.98 <
1479 3 -5 -3 4 1.66 -0.20 0.49 <
1480 3 -4 3 4 0.13 1.70 2.18 <
1481 3 -4 -3 4 0.10 2.47 1.63 <
1482 3 -3 3 4 12.09 10.72 3.79 <
1483 3 -3 -3 4 12.62 9.10 2.95 o
1484 3 -2 3 4 9.57 9.72 2.61 o
1485 3 -2 -3 4 9.69 8.83 2.15 o
1486 3 -1 3 4 55.36 49.29 4.85 o
1487 3 -1 -3 4 54.54 52.04 3.89 o
1488 3 0 3 4 3.02 1.55 0.79 <
1489 3 -6 4 4 4.27 2.62 3.90 <
1490 3 -6 -4 4 4.27 3.46 2.31 <
1491 3 -5 4 4 8.17 12.72 6.84 <
1492 3 -5 -4 4 8.26 10.05 3.05 o
1493 3 -4 4 4 0.61 0.00 1.02 <
1494 3 -4 -4 4 0.54 0.66 1.58 <
1495 3 -3 4 4 3.85 -13.48 23.14 <
1496 3 -3 -4 4 3.87 -6.57 4.45 <
1497 3 -2 4 4 111.02 130.48 11.95 o
1498 3 -2 -4 4 111.31 133.11 10.36 o
1499 3 -1 4 4 26.62 39.59 5.19 o
1500 3 -1 -4 4 26.65 38.01 3.97 o
1501 3 0 4 4 0.21 0.22 0.56 <
1502 3 0 -4 4 0.25 0.32 0.29 <
1503 3 -6 5 4 2.63 2.52 1.53 <
1504 3 -6 -5 4 2.64 2.35 1.34 <
1505 3 -5 5 4 0.31 0.92 0.78 <
1506 3 -5 -5 4 0.31 0.01 1.99 <
1507 3 -4 5 4 4.23 3.15 2.11 <
1508 3 -4 -5 4 4.29 5.45 4.14 <
1509 3 -3 5 4 12.87 17.20 5.71 o
1510 3 -3 -5 4 12.57 14.87 5.28 <
1511 3 -2 5 4 6.97 13.67 4.28 o
1512 3 -2 -5 4 6.86 11.38 3.51 o
1513 3 -1 5 4 36.57 33.58 5.77 o
1514 3 -1 -5 4 37.14 37.76 4.72 o
1515 3 0 5 4 13.21 5.57 1.91 <
1516 3 0 -5 4 13.29 6.76 1.47 o
1517 3 1 5 4 3.68 3.33 1.10 o
1518 3 -5 6 4 5.35 5.06 4.27 <
1519 3 -5 -6 4 5.38 5.88 4.42 <
1520 3 -4 6 4 6.22 7.54 4.49 <
1521 3 -4 -6 4 6.26 8.36 5.30 <
1522 3 -3 6 4 1.18 1.09 1.19 <
1523 3 -3 -6 4 1.16 1.44 2.13 <
1524 3 -2 6 4 19.18 22.76 6.34 o
1525 3 -2 -6 4 19.03 21.34 5.21 o
1526 3 -1 6 4 11.81 9.71 3.37 <
1527 3 -1 -6 4 11.83 14.12 3.34 o
1528 3 0 6 4 3.17 2.55 1.09 <
1529 3 0 -6 4 3.15 4.43 1.36 o
1530 3 1 6 4 24.09 26.07 4.14 o
1531 3 1 -6 4 23.95 39.88 3.38 o
1532 3 2 6 4 5.06 2.40 0.88 <
1533 3 -4 7 4 10.46 15.47 6.53 <
1534 3 -4 -7 4 10.48 12.95 6.88 <
1535 3 -3 7 4 15.33 21.36 7.12 <
1536 3 -3 -7 4 15.33 21.33 7.07 o
1537 3 -2 7 4 0.91 0.88 1.58 <
1538 3 -2 -7 4 0.92 1.28 1.74 <
1539 3 -1 7 4 10.39 15.02 4.69 o
1540 3 -1 -7 4 10.34 16.06 4.03 o
1541 3 0 7 4 32.03 45.25 7.36 o
1542 3 0 -7 4 31.96 56.33 5.77 o
1543 3 1 7 4 1.51 1.13 1.20 <
1544 3 1 -7 4 1.51 1.93 0.77 <
1545 3 -2 8 4 7.28 7.66 4.28 <
1546 3 -2 -8 4 7.32 10.90 4.65 <
1547 4 -3 0 -5 15.20 13.41 23.96 <
1547 3 -7 0 5 15.20 13.41 23.96 <
1548 4 -2 0 -5 17.40 6.38 2.18 <
1548 3 -6 0 5 17.40 6.38 2.18 <
1549 4 -1 0 -5 7.20 3.65 1.18 o
1549 3 -5 0 5 7.20 3.65 1.18 o
1550 4 0 0 -5 157.53 129.31 5.81 o
1550 3 -4 0 5 157.53 129.31 5.81 o
1551 4 1 0 -5 162.20 174.09 9.28 o
1551 3 -3 0 5 162.20 174.09 9.28 o
1552 4 -3 -1 -5 4.13 0.86 0.84 <
1552 3 -7 1 5 4.13 0.86 0.84 <
1553 4 -3 1 -5 4.13 0.79 1.20 <
1553 3 -7 -1 5 4.13 0.79 1.20 <
1554 4 -2 -1 -5 3.57 3.03 1.49 <
1554 3 -6 1 5 3.57 3.03 1.49 <
1555 4 -2 1 -5 3.71 3.21 1.53 <
1555 3 -6 -1 5 3.71 3.21 1.53 <
1556 4 -1 -1 -5 33.60 25.56 3.51 o
1556 3 -5 1 5 33.60 25.56 3.51 o
1557 4 -1 1 -5 33.16 23.56 3.33 o
1557 3 -5 -1 5 33.16 23.56 3.33 o
1558 4 0 -1 -5 49.90 45.49 3.65 o
1558 3 -4 1 5 49.90 45.49 3.65 o
1559 4 0 1 -5 49.99 35.98 7.29 o
1559 3 -4 -1 5 49.99 35.98 7.29 o
1560 4 1 -1 -5 51.01 61.05 5.76 o
1560 3 -3 1 5 51.01 61.05 5.76 o
1561 4 1 1 -5 51.92 67.39 4.68 o
1561 3 -3 -1 5 51.92 67.39 4.68 o
1562 4 -3 -2 -5 4.25 1.47 1.46 <
1562 3 -7 2 5 4.25 1.47 1.46 <
1563 4 -3 2 -5 4.39 2.81 2.09 <
1563 3 -7 -2 5 4.39 2.81 2.09 <
1564 4 -2 -2 -5 9.30 4.21 1.88 <
1564 3 -6 2 5 9.30 4.21 1.88 <
1565 4 -2 2 -5 9.32 4.17 1.93 <
1565 3 -6 -2 5 9.32 4.17 1.93 <
1566 4 -1 -2 -5 2.40 2.08 1.28 <
1566 3 -5 2 5 2.40 2.08 1.28 <
1567 4 -1 2 -5 2.38 1.56 0.76 <
1567 3 -5 -2 5 2.38 1.56 0.76 <
1568 4 0 -2 -5 50.88 40.69 6.82 o
1568 3 -4 2 5 50.88 40.69 6.82 o
1569 4 0 2 -5 51.25 43.92 5.91 o
1569 3 -4 -2 5 51.25 43.92 5.91 o
1570 4 1 -2 -5 64.40 67.05 7.36 o
1570 3 -3 2 5 64.40 67.05 7.36 o
1571 4 1 2 -5 64.83 64.33 5.63 o
1571 3 -3 -2 5 64.83 64.33 5.63 o
1572 4 2 -2 -5 27.58 35.39 4.21 o
1572 3 -2 2 5 27.58 35.39 4.21 o
1573 4 2 2 -5 27.55 40.85 3.51 o
1573 3 -2 -2 5 27.55 40.85 3.51 o
1574 4 -2 -3 -5 12.62 6.51 4.43 <
1574 3 -6 3 5 12.62 6.51 4.43 <
1575 4 -2 3 -5 12.67 8.31 3.67 <
1575 3 -6 -3 5 12.67 8.31 3.67 <
1576 4 -1 -3 -5 22.98 12.52 5.78 <
1576 3 -5 3 5 22.98 12.52 5.78 <
1577 4 -1 3 -5 23.07 14.47 5.63 <
1577 3 -5 -3 5 23.07 14.47 5.63 <
1578 4 0 -3 -5 14.86 10.31 4.09 <
1578 3 -4 3 5 14.86 10.31 4.09 <
1579 4 0 3 -5 14.79 10.41 3.47 o
1579 3 -4 -3 5 14.79 10.41 3.47 o
1580 4 1 -3 -5 34.50 47.65 6.64 o
1580 3 -3 3 5 34.50 47.65 6.64 o
1581 4 1 3 -5 34.66 46.57 5.68 o
1581 3 -3 -3 5 34.66 46.57 5.68 o
1582 4 2 -3 -5 74.16 105.07 8.59 o
1582 3 -2 3 5 74.16 105.07 8.59 o
1583 4 2 3 -5 74.21 109.22 6.75 o
1583 3 -2 -3 5 74.21 109.22 6.75 o
1584 4 3 -3 -5 37.84 52.45 4.88 o
1584 3 -1 3 5 37.84 52.45 4.88 o
1585 4 -2 -4 -5 10.24 5.61 4.58 <
1585 3 -6 4 5 10.24 5.61 4.58 <
1586 4 -2 4 -5 10.20 6.06 4.16 <
1586 3 -6 -4 5 10.20 6.06 4.16 <
1587 4 -1 -4 -5 1.95 0.78 0.83 <
1587 3 -5 4 5 1.95 0.78 0.83 <
1588 4 -1 4 -5 1.94 1.53 0.85 <
1588 3 -5 -4 5 1.94 1.53 0.85 <
1589 4 0 -4 -5 6.14 4.53 3.26 <
1589 3 -4 4 5 6.14 4.53 3.26 <
1590 4 0 4 -5 5.92 7.28 3.31 <
1590 3 -4 -4 5 5.92 7.28 3.31 <
1591 4 1 -4 -5 13.86 19.22 5.02 o
1591 3 -3 4 5 13.86 19.22 5.02 o
1592 4 1 4 -5 13.78 16.86 4.06 o
1592 3 -3 -4 5 13.78 16.86 4.06 o
1593 4 2 -4 -5 2.88 0.07 0.27 <
1593 3 -2 4 5 2.88 0.07 0.27 <
1594 4 2 4 -5 2.89 0.23 0.46 <
1594 3 -2 -4 5 2.89 0.23 0.46 <
1595 4 3 -4 -5 12.52 16.50 3.36 o
1595 3 -1 4 5 12.52 16.50 3.36 o
1596 4 3 4 -5 12.57 21.14 2.70 o
1596 3 -1 -4 5 12.57 21.14 2.70 o
1597 4 4 -4 -5 6.18 11.95 2.29 o
1597 3 0 4 5 6.18 11.95 2.29 o
1598 4 -1 -5 -5 16.78 14.83 6.76 <
1598 3 -5 5 5 16.78 14.83 6.76 <
1599 4 -1 5 -5 16.80 20.37 7.76 <
1599 3 -5 -5 5 16.80 20.37 7.76 <
1600 4 0 -5 -5 7.49 7.66 3.91 <
1600 3 -4 5 5 7.49 7.66 3.91 <
1601 4 0 5 -5 7.51 -3.19 7.93 <
1601 3 -4 -5 5 7.51 -3.19 7.93 <
1602 4 1 -5 -5 23.05 17.08 5.04 o
1602 3 -3 5 5 23.05 17.08 5.04 o
1603 4 1 5 -5 22.79 17.96 4.77 o
1603 3 -3 -5 5 22.79 17.96 4.77 o
1604 4 2 -5 -5 57.10 71.13 8.95 o
1604 3 -2 5 5 57.10 71.13 8.95 o
1605 4 2 5 -5 57.07 62.14 6.79 o
1605 3 -2 -5 5 57.07 62.14 6.79 o
1606 4 3 -5 -5 24.01 16.26 3.27 o
1606 3 -1 5 5 24.01 16.26 3.27 o
1607 4 3 5 -5 24.29 24.96 3.34 o
1607 3 -1 -5 5 24.29 24.96 3.34 o
1608 4 4 -5 -5 6.67 8.23 2.22 o
1608 3 0 5 5 6.67 8.23 2.22 o
1609 4 4 5 -5 6.67 15.55 2.22 o
1609 3 0 -5 5 6.67 15.55 2.22 o
1610 4 5 -5 -5 15.10 16.28 2.72 o
1610 3 1 5 5 15.10 16.28 2.72 o
1611 4 0 -6 -5 26.51 32.50 9.49 o
1611 3 -4 6 5 26.51 32.50 9.49 o
1612 4 0 6 -5 26.54 35.61 9.13 o
1612 3 -4 -6 5 26.54 35.61 9.13 o
1613 4 1 -6 -5 29.76 50.85 9.56 o
1613 3 -3 6 5 29.76 50.85 9.56 o
1614 4 1 6 -5 29.64 44.91 8.40 o
1614 3 -3 -6 5 29.64 44.91 8.40 o
1615 4 2 -6 -5 6.89 18.72 5.10 o
1615 3 -2 6 5 6.89 18.72 5.10 o
1616 4 2 6 -5 6.90 17.69 4.36 o
1616 3 -2 -6 5 6.90 17.69 4.36 o
1617 4 3 -6 -5 27.21 44.04 6.94 o
1617 3 -1 6 5 27.21 44.04 6.94 o
1618 4 3 6 -5 27.31 48.39 5.29 o
1618 3 -1 -6 5 27.31 48.39 5.29 o
1619 4 4 -6 -5 25.74 33.95 5.10 o
1619 3 0 6 5 25.74 33.95 5.10 o
1620 4 4 6 -5 25.71 48.88 4.34 o
1620 3 0 -6 5 25.71 48.88 4.34 o
1621 4 1 -7 -5 4.29 6.52 4.30 <
1621 3 -3 7 5 4.29 6.52 4.30 <
1622 4 1 7 -5 4.30 4.78 3.13 <
1622 3 -3 -7 5 4.30 4.78 3.13 <
1623 4 2 -7 -5 7.13 -17.40 6.44 <
1623 3 -2 7 5 7.13 -17.40 6.44 <
1624 4 2 7 -5 7.13 1.99 3.78 <
1624 3 -2 -7 5 7.13 1.99 3.78 <
1625 4 3 -7 -5 4.49 7.20 3.11 <
1625 3 -1 7 5 4.49 7.20 3.11 <
1626 4 3 7 -5 4.48 5.91 2.17 <
1626 3 -1 -7 5 4.48 5.91 2.17 <
1627 3 -6 0 6 0.91 0.99 0.69 <
1628 3 -5 0 6 0.08 1.13 0.68 <
1629 3 -4 0 6 0.32 0.99 0.55 <
1630 3 -6 1 6 0.85 -1.19 1.15 <
1631 3 -6 -1 6 0.84 0.37 0.77 <
1632 3 -5 1 6 4.49 4.57 3.13 <
1633 3 -5 -1 6 4.48 5.48 1.96 <
1634 3 -4 1 6 8.72 10.47 3.46 o
1635 3 -4 -1 6 8.94 13.47 2.49 o
1636 3 -3 1 6 6.57 14.57 2.98 o
1637 3 -6 2 6 2.78 6.99 3.36 <
1638 3 -6 -2 6 2.78 4.94 1.69 <
1639 3 -5 2 6 3.01 3.32 2.70 <
1640 3 -5 -2 6 3.10 5.18 1.40 o
1641 3 -4 2 6 0.47 2.05 1.68 <
1642 3 -4 -2 6 0.49 1.66 1.07 <
1643 3 -3 2 6 28.37 48.31 6.13 o
1644 3 -3 -2 6 28.58 58.09 4.82 o
1645 3 -6 3 6 2.52 1.66 2.27 <
1646 3 -6 -3 6 2.51 1.45 1.39 <
1647 3 -5 3 6 2.36 2.05 1.94 <
1648 3 -5 -3 6 2.36 4.45 2.59 <
1649 3 -4 3 6 6.17 8.40 3.24 <
1650 3 -4 -3 6 6.10 8.57 2.75 o
1651 3 -3 3 6 5.93 6.50 2.63 <
1652 3 -3 -3 6 5.83 7.06 2.05 o
1653 3 -2 3 6 8.30 9.17 2.76 o
1654 3 -2 -3 6 8.45 11.23 2.21 o
1655 3 -5 4 6 3.21 2.34 2.13 <
1656 3 -5 -4 6 3.18 4.64 2.72 <
1657 3 -4 4 6 1.74 1.33 1.77 <
1658 3 -4 -4 6 1.73 2.71 1.78 <
1659 3 -3 4 6 14.50 24.57 5.48 o
1660 3 -3 -4 6 14.43 18.92 4.50 o
1661 3 -2 4 6 18.08 26.32 5.07 o
1662 3 -2 -4 6 18.10 32.35 3.87 o
1663 3 -1 4 6 0.40 1.23 0.87 <
1664 3 -5 5 6 0.97 1.03 1.83 <
1665 3 -5 -5 6 0.97 2.71 2.24 <
1666 3 -4 5 6 3.26 5.78 3.10 <
1667 3 -4 -5 6 3.25 5.32 2.99 <
1668 3 -3 5 6 5.96 6.43 3.05 <
1669 3 -3 -5 6 6.05 7.26 2.65 <
1670 3 -2 5 6 6.94 16.77 4.24 o
1671 3 -2 -5 6 6.83 14.24 2.96 o
1672 3 -1 5 6 7.34 10.90 3.27 o
1673 3 -1 -5 6 7.31 21.86 3.08 o
1674 3 0 5 6 2.53 2.70 1.28 <
1675 3 -3 6 6 4.34 2.94 1.84 <
1676 3 -3 -6 6 4.29 3.32 1.73 <
1677 3 -2 6 6 3.37 4.89 2.34 <
1678 3 -2 -6 6 3.45 5.52 1.89 <
1679 3 -6 0 7 1.14 0.32 0.63 <
1680 3 -5 0 7 1.53 4.17 1.30 o
1681 3 -6 1 7 0.06 2.65 1.26 <
1682 3 -6 -1 7 0.07 1.86 1.03 <
1683 3 -5 1 7 2.73 2.72 1.73 <
1684 3 -5 -1 7 2.77 3.48 1.36 <
1685 3 -4 1 7 2.16 3.92 1.88 <
1686 3 -4 -1 7 2.12 7.26 1.73 o
1687 3 -5 2 7 2.06 3.25 2.50 <
1688 3 -5 -2 7 2.01 3.86 1.59 <
1689 3 -4 2 7 2.30 7.67 2.91 <
1690 3 -4 -2 7 2.24 8.31 1.99 o
1691 3 -5 3 7 0.52 1.99 1.50 <
1692 3 -5 -3 7 0.52 1.59 1.20 <
1693 3 -4 3 7 4.46 8.06 2.95 <
1694 3 -4 -3 7 4.45 8.37 2.25 o
1695 3 -3 3 7 6.68 13.19 3.61 o
1696 3 -3 -3 7 6.69 16.91 2.73 o
1697 3 -4 4 7 1.71 2.05 1.92 <
1698 3 -4 -4 7 1.73 3.56 1.55 <
1699 3 -3 4 7 0.08 -0.37 1.09 <
1700 3 -3 -4 7 0.07 0.29 0.56 <
1701 3 -2 4 7 6.38 9.71 3.11 o
1702 3 -2 -4 7 6.36 17.08 2.75 o
1703 4 0 1 1 778.73 883.26 13.20 o
1704 4 0 -1 1 778.94 882.12 12.91 o
1705 5 -1 -1 -1 447.49 322.91 6.11 o
1705 4 1 1 1 447.49 322.91 6.11 o
1706 5 -1 1 -1 447.32 318.89 5.89 o
1706 4 1 -1 1 447.32 318.89 5.89 o
1707 4 0 2 1 0.32 0.10 0.04 <
1708 4 0 -2 1 0.27 0.06 0.21 <
1709 5 -1 -2 -1 1113.24 664.78 138.44 o
1709 4 1 2 1 1113.24 664.78 138.44 o
1710 5 -1 2 -1 1113.21 800.48 13.09 o
1710 4 1 -2 1 1113.21 800.48 13.09 o
1711 4 2 2 1 136.64 130.40 4.87 o
1712 4 2 -2 1 134.21 131.40 4.22 o
1713 4 -3 3 1 87.96 78.57 3.13 o
1714 4 -2 3 1 4.02 5.81 0.97 o
1715 4 -2 -3 1 4.03 7.45 0.73 o
1716 4 0 3 1 18.18 24.28 4.76 o
1717 4 0 -3 1 18.13 15.60 2.96 o
1718 5 -1 -3 -1 40.94 16.25 6.39 <
1718 4 1 3 1 40.94 16.25 6.39 <
1719 5 -1 3 -1 40.90 20.54 2.12 o
1719 4 1 -3 1 40.90 20.54 2.12 o
1720 4 2 3 1 140.82 161.38 7.48 o
1721 4 2 -3 1 140.70 164.08 5.76 o
1722 4 3 3 1 14.31 13.71 1.94 o
1723 4 -4 4 1 1.41 2.40 0.64 o
1724 4 -3 4 1 44.63 40.39 3.05 o
1725 4 -3 -4 1 44.02 43.68 2.26 o
1726 4 -2 4 1 304.22 272.64 10.01 o
1727 4 -2 -4 1 303.98 278.72 7.39 o
1728 4 -1 -4 1 21.76 25.52 3.82 o
1729 4 0 4 1 4.51 0.29 0.34 <
1730 4 0 -4 1 4.27 0.98 0.66 <
1731 5 -1 -4 -1 509.25 244.06 44.54 o
1731 4 1 4 1 509.25 244.06 44.54 o
1732 5 -1 4 -1 509.40 233.34 48.28 o
1732 4 1 -4 1 509.40 233.34 48.28 o
1733 4 2 4 1 86.28 79.12 6.42 o
1734 4 2 -4 1 86.89 72.59 4.93 o
1735 4 3 4 1 4.37 5.63 1.61 o
1736 4 3 -4 1 4.35 6.91 1.28 o
1737 4 4 4 1 12.15 11.15 2.11 o
1738 4 -5 5 1 0.51 0.94 0.48 <
1739 4 -4 5 1 16.56 19.41 2.55 o
1740 4 -3 5 1 55.98 57.34 4.84 o
1741 4 -3 -5 1 56.23 65.99 3.25 o
1742 4 -2 5 1 31.20 38.25 4.59 o
1743 4 -2 -5 1 31.19 41.88 3.89 o
1744 4 -1 -5 1 50.52 87.72 8.09 o
1745 4 0 5 1 87.35 71.62 7.75 o
1746 4 0 -5 1 87.38 77.68 9.16 o
1747 5 -1 -5 -1 61.13 25.63 9.85 <
1747 4 1 5 1 61.13 25.63 9.85 <
1748 5 -1 5 -1 61.17 30.16 5.16 o
1748 4 1 -5 1 61.17 30.16 5.16 o
1749 4 2 5 1 51.49 56.53 5.88 o
1750 4 2 -5 1 51.28 58.91 5.12 o
1751 4 3 5 1 18.12 23.42 3.70 o
1752 4 3 -5 1 18.71 22.99 2.53 o
1753 4 4 5 1 1.78 7.29 2.03 o
1754 4 4 -5 1 1.82 9.63 1.73 o
1755 4 5 5 1 3.88 5.76 1.78 o
1756 4 -5 6 1 6.49 10.41 2.20 o
1757 4 -4 6 1 2.61 2.27 1.24 <
1758 4 -4 -6 1 2.52 3.66 0.78 o
1759 4 -3 6 1 5.59 6.47 2.15 o
1760 4 -3 -6 1 5.35 7.86 1.50 o
1761 4 -2 6 1 48.64 35.15 5.00 o
1762 4 -2 -6 1 48.79 47.74 5.14 o
1763 4 -1 -6 1 19.30 9.00 3.26 <
1764 4 0 -6 1 16.72 14.50 4.27 o
1765 5 -1 -6 -1 150.48 53.37 25.00 <
1765 4 1 6 1 150.48 53.37 25.00 <
1766 5 -1 6 -1 150.36 70.14 20.70 o
1766 4 1 -6 1 150.36 70.14 20.70 o
1767 4 2 6 1 14.37 18.96 3.80 o
1768 4 2 -6 1 14.73 18.32 3.41 o
1769 4 3 6 1 0.83 2.59 1.44 <
1770 4 3 -6 1 0.86 0.78 0.58 <
1771 4 4 6 1 11.05 36.96 5.31 o
1772 4 4 -6 1 11.09 42.73 3.97 o
1773 4 -4 7 1 10.51 14.85 3.62 o
1774 4 -4 -7 1 10.60 16.52 2.00 o
1775 4 -3 7 1 8.27 6.37 2.45 <
1776 4 -3 -7 1 8.40 7.69 1.75 o
1777 4 -2 -7 1 0.35 0.59 1.10 <
1778 4 -1 -7 1 61.73 0.55 1.70 <
1779 4 0 -7 1 60.13 56.88 9.57 o
1780 5 -1 -7 -1 0.11 0.01 0.72 <
1780 4 1 7 1 0.11 0.01 0.72 <
1781 5 -1 7 -1 0.11 -1.05 1.05 <
1781 4 1 -7 1 0.11 -1.05 1.05 <
1782 4 2 7 1 17.11 16.91 3.82 o
1783 4 2 -7 1 17.04 19.28 3.98 o
1784 4 3 7 1 22.30 34.28 5.75 o
1785 4 3 -7 1 22.19 38.93 4.69 o
1786 4 -3 8 1 2.58 4.84 2.91 <
1787 4 -3 -8 1 2.66 4.94 2.10 <
1788 4 -2 -8 1 20.67 22.75 5.42 o
1789 4 0 -8 1 3.99 -0.52 1.43 <
1790 5 -1 -8 -1 35.77 9.31 3.11 <
1790 4 1 8 1 35.77 9.31 3.11 <
1791 5 -1 8 -1 35.82 20.26 4.70 o
1791 4 1 -8 1 35.82 20.26 4.70 o
1792 4 2 8 1 2.99 8.63 3.82 <
1793 4 2 -8 1 2.83 8.66 2.80 o
1794 4 -1 0 2 74.58 136.51 6.00 o
1795 4 0 0 2 10.46 15.30 1.00 o
1796 4 -1 1 2 381.29 556.77 14.99 o
1797 4 -1 -1 2 382.31 559.92 14.48 o
1798 4 0 1 2 108.02 125.64 6.36 o
1799 4 0 -1 2 107.68 132.23 5.53 o
1800 4 1 1 2 71.06 74.44 3.82 o
1801 4 1 -1 2 68.89 70.73 3.30 o
1802 4 -1 2 2 722.76 1177.81 24.44 o
1803 4 -1 -2 2 723.25 1165.74 24.96 o
1804 4 0 2 2 230.00 208.60 9.50 o
1805 4 0 -2 2 229.66 215.98 9.19 o
1806 4 1 2 2 175.16 221.27 8.52 o
1807 4 1 -2 2 177.10 207.63 7.50 o
1808 5 -2 -2 -2 175.21 100.46 5.22 o
1808 4 2 2 2 175.21 100.46 5.22 o
1809 5 -2 2 -2 175.21 101.83 4.27 o
1809 4 2 -2 2 175.21 101.83 4.27 o
1810 4 -1 3 2 17.86 61.63 7.78 o
1811 4 -1 -3 2 17.98 60.20 7.98 o
1812 4 0 3 2 356.93 397.34 15.43 o
1813 4 0 -3 2 356.91 405.02 14.47 o
1814 4 1 3 2 227.94 258.84 11.56 o
1815 4 1 -3 2 228.14 257.26 9.75 o
1816 5 -2 -3 -2 22.44 10.82 2.17 o
1816 4 2 3 2 22.44 10.82 2.17 o
1817 5 -2 3 -2 22.44 11.10 1.59 o
1817 4 2 -3 2 22.44 11.10 1.59 o
1818 4 3 3 2 53.79 58.18 4.89 o
1819 4 3 -3 2 53.48 70.35 3.91 o
1820 4 -4 4 2 56.68 61.52 2.91 o
1821 4 -3 4 2 48.83 32.19 2.31 o
1822 4 -1 -4 2 224.24 354.88 18.66 o
1823 4 0 4 2 12.49 15.13 3.42 o
1824 4 0 -4 2 12.47 14.11 3.33 o
1825 4 1 4 2 38.77 39.40 5.08 o
1826 4 1 -4 2 38.40 37.47 4.66 o
1827 5 -2 -4 -2 218.29 147.77 9.28 o
1827 4 2 4 2 218.29 147.77 9.28 o
1828 5 -2 4 -2 218.26 148.91 7.68 o
1828 4 2 -4 2 218.26 148.91 7.68 o
1829 4 3 4 2 6.45 15.20 3.11 o
1830 4 3 -4 2 6.47 17.45 2.34 o
1831 4 4 4 2 3.82 3.94 1.40 <
1832 4 -5 5 2 7.80 13.64 1.49 o
1833 4 -4 5 2 0.21 -0.55 0.36 <
1834 4 -3 5 2 49.76 46.70 4.15 o
1835 4 -3 -5 2 49.53 64.40 2.31 o
1836 4 -2 -5 2 57.94 76.65 6.61 o
1837 4 -1 -5 2 23.44 1.62 2.11 <
1838 4 0 5 2 104.59 84.31 9.19 o
1839 4 0 -5 2 104.38 87.89 8.62 o
1840 4 1 5 2 74.94 86.74 8.54 o
1841 4 1 -5 2 74.97 85.87 7.85 o
1842 5 -2 -5 -2 18.46 14.19 3.08 o
1842 4 2 5 2 18.46 14.19 3.08 o
1843 5 -2 5 -2 18.47 14.65 2.65 o
1843 4 2 -5 2 18.47 14.65 2.65 o
1844 4 3 5 2 14.44 20.27 3.66 o
1845 4 3 -5 2 14.76 21.65 2.59 o
1846 4 4 5 2 7.21 17.84 3.59 o
1847 4 4 -5 2 7.23 18.94 2.33 o
1848 4 -5 6 2 1.26 4.42 1.27 o
1849 4 -4 6 2 12.10 15.38 3.44 o
1850 4 -3 6 2 9.50 5.09 1.83 <
1851 4 -3 -6 2 9.89 8.54 1.39 o
1852 4 -2 -6 2 10.17 24.02 4.22 o
1853 4 0 6 2 25.50 23.56 5.09 o
1854 4 0 -6 2 25.49 23.92 5.25 o
1855 4 1 6 2 13.83 18.58 4.00 o
1856 4 1 -6 2 13.44 19.57 3.84 o
1857 5 -2 -6 -2 35.88 26.16 4.94 o
1857 4 2 6 2 35.88 26.16 4.94 o
1858 5 -2 6 -2 35.93 26.10 4.03 o
1858 4 2 -6 2 35.93 26.10 4.03 o
1859 4 3 6 2 8.09 44.69 6.47 o
1860 4 3 -6 2 8.07 47.74 4.89 o
1861 4 -4 7 2 0.19 0.28 0.28 <
1862 4 -4 -7 2 0.19 -0.03 0.21 <
1863 4 -3 7 2 6.55 3.60 1.63 <
1864 4 -3 -7 2 6.52 6.93 1.87 o
1865 4 -2 -7 2 12.91 15.16 3.96 o
1866 4 0 7 2 11.71 -15.11 5.00 <
1867 4 0 -7 2 11.93 1.74 1.60 <
1868 4 1 7 2 11.35 7.16 2.68 <
1869 4 1 -7 2 11.44 6.64 2.12 o
1870 5 -2 -7 -2 1.44 1.67 1.30 <
1870 4 2 7 2 1.44 1.67 1.30 <
1871 5 -2 7 -2 1.43 1.86 0.77 <
1871 4 2 -7 2 1.43 1.86 0.77 <
1872 4 3 7 2 5.95 7.44 2.58 <
1873 4 3 -7 2 5.98 7.60 2.14 o
1874 4 -3 -8 2 2.31 5.90 2.21 <
1875 4 -2 -8 2 2.28 1.02 1.29 <
1876 4 0 -8 2 6.41 3.26 2.88 <
1877 4 1 8 2 3.88 9.13 3.84 <
1878 4 1 -8 2 3.99 9.05 3.33 <
1879 5 -2 -8 -2 23.22 13.41 3.78 o
1879 4 2 8 2 23.22 13.41 3.78 o
1880 5 -2 8 -2 23.20 14.99 3.93 o
1880 4 2 -8 2 23.20 14.99 3.93 o
1881 4 -2 0 3 1.11 -0.40 0.46 <
1882 4 -1 0 3 3.86 3.21 0.69 o
1883 4 0 0 3 214.75 242.06 5.02 o
1884 4 -2 1 3 156.83 124.33 5.22 o
1885 4 -2 -1 3 153.85 117.82 5.40 o
1886 4 -1 1 3 66.13 67.15 3.39 o
1887 4 -1 -1 3 68.21 70.88 3.36 o
1888 4 0 1 3 58.20 59.70 4.82 o
1889 4 0 -1 3 58.10 62.58 2.61 o
1890 4 1 1 3 123.02 127.60 6.47 o
1891 4 1 -1 3 123.66 125.48 5.14 o
1892 4 -2 -2 3 114.46 84.77 8.09 o
1893 4 -1 2 3 177.99 179.24 10.43 o
1894 4 -1 -2 3 176.08 169.62 5.61 o
1895 4 0 2 3 206.29 245.73 11.56 o
1896 4 0 -2 3 206.32 232.11 10.21 o
1897 4 1 2 3 24.50 20.05 3.01 o
1898 4 1 -2 3 25.00 21.08 2.44 o
1899 4 2 2 3 19.70 39.11 3.95 o
1900 4 2 -2 3 19.41 39.69 2.98 o
1901 4 -1 3 3 228.62 218.43 13.50 o
1902 4 -1 -3 3 228.41 209.69 12.35 o
1903 4 0 3 3 6.19 2.18 1.18 <
1904 4 0 -3 3 6.17 3.06 1.46 <
1905 4 1 3 3 63.48 63.76 6.37 o
1906 4 1 -3 3 64.27 63.36 5.25 o
1907 4 2 3 3 53.79 107.31 7.62 o
1908 4 2 -3 3 54.12 101.83 5.41 o
1909 5 -3 -3 -3 7.82 12.18 2.53 o
1909 4 3 3 3 7.82 12.18 2.53 o
1910 5 -3 3 -3 7.84 12.52 1.74 o
1910 4 3 -3 3 7.84 12.52 1.74 o
1911 4 -1 4 3 32.13 30.62 5.85 o
1912 4 -1 -4 3 32.45 30.65 5.30 o
1913 4 0 4 3 124.82 109.54 9.77 o
1914 4 0 -4 3 124.64 115.57 9.02 o
1915 4 1 4 3 39.37 43.44 5.73 o
1916 4 1 -4 3 39.05 45.61 5.05 o
1917 4 2 4 3 0.52 0.04 0.17 <
1918 4 2 -4 3 0.55 0.08 0.27 <
1919 5 -3 -4 -3 30.65 33.34 4.87 o
1919 4 3 4 3 30.65 33.34 4.87 o
1920 5 -3 4 -3 30.66 36.84 3.66 o
1920 4 3 -4 3 30.66 36.84 3.66 o
1921 4 4 4 3 2.67 7.01 2.09 o
1922 4 -5 5 3 9.14 11.17 1.09 o
1923 4 -4 5 3 19.10 12.86 1.69 o
1924 4 -1 5 3 68.25 61.15 8.35 o
1925 4 -1 -5 3 67.83 54.74 8.28 o
1926 4 0 5 3 0.92 1.25 0.42 <
1927 4 0 -5 3 0.91 1.46 1.49 <
1928 4 1 5 3 38.86 45.74 6.40 o
1929 4 1 -5 3 38.39 39.28 5.45 o
1930 4 2 5 3 25.07 70.28 7.83 o
1931 4 2 -5 3 24.77 59.84 5.91 o
1932 5 -3 -5 -3 7.98 11.70 3.05 o
1932 4 3 5 3 7.98 11.70 3.05 o
1933 5 -3 5 -3 7.96 13.43 2.36 o
1933 4 3 -5 3 7.96 13.43 2.36 o
1934 4 -5 6 3 1.49 3.38 0.87 o
1935 4 -4 6 3 2.13 4.17 2.15 <
1936 4 -1 6 3 11.98 9.51 3.84 <
1937 4 -1 -6 3 12.34 10.17 4.27 <
1938 4 0 6 3 41.03 24.05 5.96 o
1939 4 0 -6 3 41.12 23.29 5.37 o
1940 4 1 6 3 11.29 11.88 3.89 o
1941 4 1 -6 3 11.35 11.42 3.35 o
1942 4 2 6 3 4.72 16.86 4.05 o
1943 4 2 -6 3 4.80 17.32 3.47 o
1944 5 -3 -6 -3 12.74 9.67 3.42 <
1944 4 3 6 3 12.74 9.67 3.42 <
1945 5 -3 6 -3 12.75 8.57 1.96 o
1945 4 3 -6 3 12.75 8.57 1.96 o
1946 4 -4 7 3 8.25 5.97 2.15 <
1947 4 -4 -7 3 8.22 17.03 1.32 o
1948 4 -3 -7 3 0.30 3.40 1.24 <
1949 4 -1 -7 3 11.81 4.62 3.20 <
1950 4 0 7 3 9.81 8.92 3.81 <
1951 4 0 -7 3 9.83 9.16 4.12 <
1952 4 1 7 3 13.52 18.37 4.76 o
1953 4 1 -7 3 13.50 17.91 4.43 o
1954 4 2 7 3 6.63 -12.76 5.60 <
1955 4 2 -7 3 6.64 5.61 1.20 o
1956 4 -3 -8 3 12.86 32.06 5.14 o
1957 4 -1 -8 3 4.15 3.55 3.19 <
1958 4 0 8 3 20.17 19.93 6.09 o
1959 4 0 -8 3 20.19 24.65 6.76 o
1960 4 -3 0 4 33.01 12.36 3.54 o
1961 4 -2 0 4 76.90 127.04 9.49 o
1962 4 -1 0 4 121.12 124.94 5.10 o
1963 4 0 0 4 3.73 7.82 1.07 o
1964 4 1 0 4 153.66 201.20 7.79 o
1965 4 -3 1 4 99.32 68.63 6.73 o
1966 4 -3 -1 4 99.33 7.28 3.93 <
1967 4 -2 1 4 23.18 27.45 2.93 o
1968 4 -2 -1 4 23.36 34.76 11.00 o
1969 4 -1 1 4 106.34 103.64 4.48 o
1970 4 -1 -1 4 106.33 102.21 5.13 o
1971 4 0 1 4 203.60 222.74 6.01 o
1972 4 0 -1 4 203.95 228.63 5.80 o
1973 4 1 1 4 31.88 58.56 5.30 o
1974 4 1 -1 4 32.33 68.12 4.30 o
1975 4 -3 2 4 2.58 1.81 1.13 <
1976 4 -2 2 4 93.81 111.20 5.59 o
1977 4 -2 -2 4 93.63 109.07 5.88 o
1978 4 -1 2 4 16.05 15.44 3.50 o
1979 4 -1 -2 4 15.84 15.20 1.88 o
1980 4 0 2 4 7.56 6.17 2.13 <
1981 4 0 -2 4 7.56 7.79 1.80 o
1982 4 1 2 4 45.87 64.69 6.09 o
1983 4 1 -2 4 46.55 66.83 4.67 o
1984 4 2 2 4 33.16 46.79 5.16 o
1985 4 2 -2 4 33.41 53.33 3.86 o
1986 4 -2 3 4 11.12 10.36 3.31 o
1987 4 -2 -3 4 11.27 10.70 1.89 o
1988 4 -1 3 4 64.37 49.42 6.66 o
1989 4 -1 -3 4 63.41 50.19 6.30 o
1990 4 0 3 4 3.51 3.65 1.53 <
1991 4 0 -3 4 3.32 2.96 1.49 <
1992 4 1 3 4 12.42 48.10 6.41 o
1993 4 1 -3 4 12.38 40.32 4.48 o
1994 4 2 3 4 8.11 14.00 3.16 o
1995 4 2 -3 4 8.06 13.85 2.06 o
1996 4 3 3 4 10.14 18.23 3.46 o
1997 4 3 -3 4 10.09 23.54 2.63 o
1998 4 -2 4 4 129.08 143.60 13.95 o
1999 4 -2 -4 4 129.43 156.51 7.80 o
2000 4 -1 4 4 30.96 35.34 6.32 o
2001 4 -1 -4 4 30.98 30.03 6.08 o
2002 4 0 4 4 0.25 -9.82 7.06 <
2003 4 0 -4 4 0.29 -6.13 7.26 <
2004 4 1 4 4 16.08 17.28 4.06 o
2005 4 1 -4 4 15.99 15.13 3.22 o
2006 4 2 4 4 21.84 38.20 5.70 o
2007 4 2 -4 4 21.85 36.20 3.96 o
2008 4 3 4 4 0.04 -0.09 0.16 <
2009 4 3 -4 4 0.05 -0.15 0.22 <
2010 4 -5 5 4 0.36 0.74 0.23 o
2011 4 -2 5 4 8.11 14.40 4.50 o
2012 4 -2 -5 4 7.98 12.32 4.53 <
2013 4 -1 5 4 42.52 34.70 6.76 o
2014 4 -1 -5 4 43.18 32.05 6.51 o
2015 4 0 5 4 15.36 5.78 2.71 <
2016 4 0 -5 4 15.45 5.35 2.54 <
2017 4 1 5 4 4.28 13.44 3.95 o
2018 4 1 -5 4 4.23 12.34 3.03 o
2019 4 2 5 4 10.16 19.87 4.47 o
2020 4 2 -5 4 10.24 17.20 3.46 o
2021 4 -2 -6 4 22.13 15.26 6.23 <
2022 4 -1 6 4 13.74 7.13 3.56 <
2023 4 -1 -6 4 13.76 8.35 3.78 <
2024 4 0 6 4 3.69 3.39 2.51 <
2025 4 0 -6 4 3.66 4.18 2.10 <
2026 4 1 6 4 28.01 50.86 8.45 o
2027 4 1 -6 4 27.84 41.17 6.78 o
2028 4 2 6 4 5.89 6.98 2.94 <
2029 4 2 -6 4 5.75 6.22 2.05 o
2030 4 -1 7 4 12.08 11.92 4.47 <
2031 4 -1 -7 4 12.02 10.33 4.66 <
2032 4 0 7 4 37.25 55.14 9.67 o
2033 4 0 -7 4 37.16 54.16 8.93 o
2034 4 1 7 4 1.76 5.34 3.06 <
2035 4 1 -7 4 1.75 4.42 2.32 <
2036 4 -3 0 5 143.26 16.56 2.98 o
2036 3 1 0 -5 143.26 16.56 2.98 o
2037 4 -2 0 5 1.14 1.53 0.71 <
2037 3 2 0 -5 1.14 1.53 0.71 <
2038 4 -1 0 5 161.13 139.83 6.20 o
2038 3 3 0 -5 161.13 139.83 6.20 o
2039 4 0 0 5 155.26 129.41 5.34 o
2039 3 4 0 -5 155.26 129.41 5.34 o
2040 4 1 0 5 7.02 7.06 1.77 o
2040 3 5 0 -5 7.02 7.06 1.77 o
2041 4 -4 1 5 44.40 5.18 2.30 <
2041 3 0 -1 -5 44.40 5.18 2.30 <
2042 4 -3 1 5 53.19 24.97 3.63 o
2042 3 1 -1 -5 53.19 24.97 3.63 o
2043 4 -3 -1 5 54.17 23.88 6.24 o
2043 3 1 1 -5 54.17 23.88 6.24 o
2044 4 -2 1 5 45.32 25.88 4.14 o
2044 3 2 -1 -5 45.32 25.88 4.14 o
2045 4 -2 -1 5 45.28 23.99 2.88 o
2045 3 2 1 -5 45.28 23.99 2.88 o
2046 4 -1 1 5 51.52 24.31 4.69 o
2046 3 3 -1 -5 51.52 24.31 4.69 o
2047 4 -1 -1 5 50.61 25.71 2.45 o
2047 3 3 1 -5 50.61 25.71 2.45 o
2048 4 0 1 5 49.36 57.31 6.01 o
2048 3 4 -1 -5 49.36 57.31 6.01 o
2049 4 0 -1 5 49.27 53.55 3.30 o
2049 3 4 1 -5 49.27 53.55 3.30 o
2050 4 1 1 5 32.93 32.23 4.46 o
2050 3 5 -1 -5 32.93 32.23 4.46 o
2051 4 1 -1 5 33.36 36.70 3.57 o
2051 3 5 1 -5 33.36 36.70 3.57 o
2052 4 -4 2 5 50.59 12.26 3.28 o
2052 3 0 -2 -5 50.59 12.26 3.28 o
2053 4 -3 2 5 60.89 16.54 3.62 o
2053 3 1 -2 -5 60.89 16.54 3.62 o
2054 4 -3 -2 5 61.22 11.32 2.73 o
2054 3 1 2 -5 61.22 11.32 2.73 o
2055 4 -2 2 5 27.55 14.62 2.74 o
2055 3 2 -2 -5 27.55 14.62 2.74 o
2056 4 -2 -2 5 27.58 14.06 2.33 o
2056 3 2 2 -5 27.58 14.06 2.33 o
2057 4 -1 2 5 64.60 41.26 5.70 o
2057 3 3 -2 -5 64.60 41.26 5.70 o
2058 4 -1 -2 5 64.18 38.29 3.24 o
2058 3 3 2 -5 64.18 38.29 3.24 o
2059 4 0 2 5 50.84 38.96 6.30 o
2059 3 4 -2 -5 50.84 38.96 6.30 o
2060 4 0 -2 5 50.47 40.40 5.03 o
2060 3 4 2 -5 50.47 40.40 5.03 o
2061 4 1 2 5 2.33 1.21 0.89 <
2061 3 5 -2 -5 2.33 1.21 0.89 <
2062 4 1 -2 5 2.35 0.87 0.62 <
2062 3 5 2 -5 2.35 0.87 0.62 <
2063 4 2 2 5 9.25 9.21 2.49 o
2063 3 6 -2 -5 9.25 9.21 2.49 o
2064 4 2 -2 5 9.23 6.25 1.84 o
2064 3 6 2 -5 9.23 6.25 1.84 o
2065 4 -4 3 5 13.20 1.57 0.87 <
2065 3 0 -3 -5 13.20 1.57 0.87 <
2066 4 -3 3 5 37.87 28.00 11.69 <
2066 3 1 -3 -5 37.87 28.00 11.69 <
2067 4 -3 -3 5 38.06 18.30 3.53 o
2067 3 1 3 -5 38.06 18.30 3.53 o
2068 4 -2 3 5 74.21 34.81 7.55 o
2068 3 2 -3 -5 74.21 34.81 7.55 o
2069 4 -2 -3 5 74.16 35.47 3.97 o
2069 3 2 3 -5 74.16 35.47 3.97 o
2070 4 -1 3 5 34.46 11.13 3.86 <
2070 3 3 -3 -5 34.46 11.13 3.86 <
2071 4 -1 -3 5 34.30 11.63 1.93 o
2071 3 3 3 -5 34.30 11.63 1.93 o
2072 4 0 3 5 14.72 9.13 3.07 <
2072 3 4 -3 -5 14.72 9.13 3.07 <
2073 4 0 -3 5 14.79 8.09 2.65 o
2073 3 4 3 -5 14.79 8.09 2.65 o
2074 4 1 3 5 22.96 23.55 4.89 o
2074 3 5 -3 -5 22.96 23.55 4.89 o
2075 4 1 -3 5 22.87 24.99 3.59 o
2075 3 5 3 -5 22.87 24.99 3.59 o
2076 4 2 3 5 12.38 16.36 3.35 o
2076 3 6 -3 -5 12.38 16.36 3.35 o
2077 4 2 -3 5 12.33 19.92 2.63 o
2077 3 6 3 -5 12.33 19.92 2.63 o
2078 4 -3 -4 5 12.48 2.59 1.39 <
2078 3 1 4 -5 12.48 2.59 1.39 <
2079 4 -2 4 5 2.89 -0.70 1.16 <
2079 3 2 -4 -5 2.89 -0.70 1.16 <
2080 4 -2 -4 5 2.88 -0.23 0.42 <
2080 3 2 4 -5 2.88 -0.23 0.42 <
2081 4 -1 4 5 13.82 10.27 3.52 <
2081 3 3 -4 -5 13.82 10.27 3.52 <
2082 4 -1 -4 5 13.90 9.26 3.28 <
2082 3 3 4 -5 13.90 9.26 3.28 <
2083 4 0 4 5 5.98 2.97 2.31 <
2083 3 4 -4 -5 5.98 2.97 2.31 <
2084 4 0 -4 5 6.20 3.43 1.94 <
2084 3 4 4 -5 6.20 3.43 1.94 <
2085 4 1 4 5 1.89 3.02 1.74 <
2085 3 5 -4 -5 1.89 3.02 1.74 <
2086 4 1 -4 5 1.90 1.74 1.15 <
2086 3 5 4 -5 1.90 1.74 1.15 <
2087 4 2 4 5 10.10 16.27 3.98 o
2087 3 6 -4 -5 10.10 16.27 3.98 o
2088 4 2 -4 5 10.14 15.78 2.72 o
2088 3 6 4 -5 10.14 15.78 2.72 o
2089 4 -2 5 5 57.07 21.41 6.13 o
2089 3 2 -5 -5 57.07 21.41 6.13 o
2090 4 -2 -5 5 57.10 22.54 6.06 o
2090 3 2 5 -5 57.10 22.54 6.06 o
2091 4 -1 5 5 22.66 5.81 3.02 <
2091 3 3 -5 -5 22.66 5.81 3.02 <
2092 4 -1 -5 5 22.92 5.35 2.58 <
2092 3 3 5 -5 22.92 5.35 2.58 <
2093 4 0 5 5 7.48 9.87 3.69 <
2093 3 4 -5 -5 7.48 9.87 3.69 <
2094 4 0 -5 5 7.46 7.52 2.49 o
2094 3 4 5 -5 7.46 7.52 2.49 o
2095 4 1 5 5 16.69 21.40 5.01 o
2095 3 5 -5 -5 16.69 21.40 5.01 o
2096 4 1 -5 5 16.67 19.85 4.12 o
2096 3 5 5 -5 16.67 19.85 4.12 o
2097 4 -2 6 5 6.90 3.10 2.12 <
2097 3 2 -6 -5 6.90 3.10 2.12 <
2098 4 -2 -6 5 6.89 5.14 3.23 <
2098 3 2 6 -5 6.89 5.14 3.23 <
2099 4 -1 6 5 29.54 30.53 7.51 o
2099 3 3 -6 -5 29.54 30.53 7.51 o
2100 4 -1 -6 5 29.65 30.43 6.77 o
2100 3 3 6 -5 29.65 30.43 6.77 o
2101 4 0 6 5 26.32 25.75 6.09 o
2101 3 4 -6 -5 26.32 25.75 6.09 o
2102 4 0 -6 5 26.29 28.08 6.22 o
2102 3 4 6 -5 26.29 28.08 6.22 o
2103 4 -2 7 5 7.13 3.03 2.44 <
2103 3 2 -7 -5 7.13 3.03 2.44 <
2104 4 -2 -7 5 7.13 3.69 3.12 <
2104 3 2 7 -5 7.13 3.69 3.12 <
2105 4 -1 7 5 4.30 1.36 0.16 o
2105 3 3 -7 -5 4.30 1.36 0.16 o
2106 4 -1 -7 5 4.29 2.35 2.73 <
2106 3 3 7 -5 4.29 2.35 2.73 <
2107 4 -4 0 6 0.37 -0.64 0.15 <
2108 4 -3 0 6 2.20 2.37 0.85 <
2109 4 -2 0 6 2.82 2.29 1.06 <
2110 4 -1 0 6 2.88 6.40 1.43 o
2111 4 0 0 6 5.74 4.27 1.13 o
2112 4 1 0 6 6.30 9.92 2.46 o
2113 4 -5 1 6 5.22 0.16 1.07 <
2114 4 -4 1 6 10.14 7.39 2.87 <
2115 4 -4 -1 6 10.39 5.37 3.01 <
2116 4 -3 1 6 7.64 11.21 2.56 o
2117 4 -3 -1 6 7.52 8.57 2.41 o
2118 4 -2 1 6 21.79 17.48 3.58 o
2119 4 -2 -1 6 21.83 18.37 2.76 o
2120 4 -1 1 6 26.19 34.80 4.54 o
2121 4 -1 -1 6 25.69 31.44 3.23 o
2122 4 0 1 6 11.62 94.32 73.77 <
2123 4 0 -1 6 11.59 29.47 15.41 <
2124 4 1 1 6 6.20 5.67 1.70 o
2125 4 1 -1 6 6.38 4.34 1.65 <
2126 4 -5 2 6 3.50 2.90 1.77 <
2127 4 -4 2 6 0.55 -0.39 0.44 <
2128 4 -4 -2 6 0.57 1.70 1.83 <
2129 4 -3 2 6 32.99 57.52 13.91 o
2130 4 -3 -2 6 33.23 46.40 6.16 o
2131 4 -2 2 6 18.77 26.22 9.01 <
2132 4 -2 -2 6 18.50 25.95 4.07 o
2133 4 -1 2 6 0.73 1.42 0.63 <
2134 4 -1 -2 6 0.70 1.21 0.64 <
2135 4 0 2 6 19.18 20.27 4.83 o
2136 4 0 -2 6 19.20 23.73 3.81 o
2137 4 1 2 6 11.33 15.49 3.36 o
2138 4 1 -2 6 11.27 9.77 2.65 o
2139 4 -5 3 6 2.74 1.77 1.31 <
2140 4 -4 3 6 7.17 10.75 2.25 o
2141 4 -4 -3 6 7.10 2.12 2.40 <
2142 4 -3 3 6 6.90 6.70 3.36 <
2143 4 -3 -3 6 6.78 3.27 1.96 <
2144 4 -2 3 6 9.66 7.35 3.46 <
2145 4 -2 -3 6 9.83 7.50 1.80 o
2146 4 -1 3 6 18.20 15.61 5.15 o
2147 4 -1 -3 6 18.37 15.79 5.02 o
2148 4 0 3 6 1.22 0.00 0.37 <
2149 4 0 -3 6 1.25 0.00 0.22 <
2150 4 1 3 6 6.53 11.36 3.73 o
2151 4 1 -3 6 6.53 5.03 2.53 <
2152 4 -5 4 6 3.73 4.89 1.59 o
2153 4 -4 4 6 2.03 2.50 0.51 o
2154 4 -3 4 6 16.86 16.79 5.20 o
2155 4 -3 -4 6 16.78 34.99 21.63 <
2156 4 -2 4 6 21.02 22.21 5.92 o
2157 4 -2 -4 6 21.05 21.24 3.07 o
2158 4 -1 4 6 0.46 0.54 1.75 <
2159 4 -1 -4 6 0.46 0.97 0.96 <
2160 4 0 4 6 16.01 16.60 5.15 o
2161 4 0 -4 6 15.97 14.82 4.63 o
2162 4 1 4 6 9.74 13.81 4.38 o
2163 4 1 -4 6 9.74 11.46 3.51 o
2164 4 -3 5 6 6.93 8.29 3.45 <
2165 4 -3 -5 6 7.03 5.48 2.00 <
2166 4 -2 5 6 8.06 9.88 4.56 <
2167 4 -2 -5 6 7.94 9.05 2.28 o
2168 4 -1 5 6 8.54 12.14 5.00 <
2169 4 -1 -5 6 8.50 6.65 4.82 <
2170 4 0 5 6 2.95 3.73 2.31 <
2171 4 0 -5 6 2.93 4.86 2.13 <
2172 4 -3 6 6 5.04 6.13 3.74 <
2173 4 -3 -6 6 4.99 4.38 2.22 <
2174 4 -2 6 6 3.92 3.22 2.92 <
2175 4 -2 -6 6 4.02 4.82 3.57 <
2176 4 -5 0 7 1.78 1.73 1.97 <
2177 4 -4 0 7 5.29 5.39 2.20 <
2178 4 -3 0 7 0.20 0.41 0.46 <
2179 4 -2 0 7 10.78 15.43 2.45 o
2180 4 -1 0 7 5.52 9.17 1.85 o
2181 4 0 0 7 2.42 7.15 1.51 o
2182 4 -5 1 7 3.18 1.24 0.26 o
2183 4 -5 -1 7 3.22 1.57 2.01 <
2184 4 -4 1 7 2.51 9.22 5.78 <
2185 4 -4 -1 7 2.47 2.68 1.33 <
2186 4 -3 1 7 5.54 7.20 2.13 o
2187 4 -3 -1 7 5.51 8.62 2.30 o
2188 4 -2 1 7 1.68 3.52 1.32 <
2189 4 -2 -1 7 1.75 3.95 1.42 <
2190 4 -1 1 7 4.10 5.97 1.39 o
2191 4 -1 -1 7 3.98 4.40 1.25 o
2192 4 0 1 7 5.67 8.42 2.89 <
2193 4 0 -1 7 5.73 8.82 1.61 o
2194 4 -5 2 7 2.39 3.99 2.42 <
2195 4 -4 2 7 2.67 4.52 1.63 <
2196 4 -4 -2 7 2.61 2.87 1.58 <
2197 4 -3 2 7 0.75 1.03 0.98 <
2198 4 -3 -2 7 0.77 0.41 0.85 <
2199 4 -2 2 7 6.98 6.78 3.23 <
2200 4 -2 -2 7 6.99 7.66 2.10 o
2201 4 -1 2 7 9.96 14.09 4.77 <
2202 4 -1 -2 7 10.01 9.54 2.30 o
2203 4 0 2 7 0.88 1.93 1.82 <
2204 4 0 -2 7 0.88 3.18 0.96 o
2205 4 -5 3 7 0.61 0.77 0.92 <
2206 4 -4 3 7 5.19 5.81 2.93 <
2207 4 -4 -3 7 5.17 1.75 1.69 <
2208 4 -3 3 7 7.77 10.56 3.45 o
2209 4 -3 -3 7 7.78 6.90 2.49 <
2210 4 -2 3 7 9.04 5.38 3.36 <
2211 4 -2 -3 7 9.06 11.98 3.61 o
2212 4 -1 3 7 7.25 9.20 3.78 <
2213 4 -1 -3 7 7.21 10.69 1.98 o
2214 4 -4 4 7 1.99 3.17 0.94 o
2215 4 -4 -4 7 2.01 4.86 2.95 <
2216 4 -3 4 7 0.09 -2.48 1.91 <
2217 4 -3 -4 7 0.09 0.74 0.71 <
2218 4 -2 4 7 7.41 6.86 4.21 <
2219 4 -2 -4 7 7.40 9.53 2.45 o
2220 4 -1 4 7 7.73 10.78 4.68 <
2221 4 -1 -4 7 7.73 10.18 3.93 <
2222 4 -4 0 8 4.96 10.72 3.26 o
2223 4 -3 0 8 5.47 0.96 4.31 <
2224 4 -2 0 8 0.75 0.91 0.77 <
2225 4 -4 1 8 1.94 1.94 1.85 <
2226 4 -4 -1 8 1.92 2.84 1.64 <
2227 4 -3 1 8 2.85 3.14 1.51 <
2228 4 -3 -1 8 2.87 3.83 1.66 <
2229 4 -2 1 8 3.87 6.65 2.50 <
2230 4 -2 -1 8 3.97 6.75 2.07 o
2231 4 -3 2 8 3.00 6.01 1.82 o
2232 4 -3 -2 8 3.07 3.91 2.11 <
2233 6 4 0 0 117.59 100.66 5.70 o
2233 5 4 0 0 117.59 100.66 5.70 o
2234 6 5 0 0 10.55 2.46 0.82 o
2234 5 5 0 0 10.55 2.46 0.82 o
2235 6 6 0 0 0.87 1.64 0.97 <
2235 5 6 0 0 0.87 1.64 0.97 <
2236 6 4 -1 0 125.68 95.13 9.46 o
2236 5 4 1 0 125.68 95.13 9.46 o
2237 6 4 1 0 125.69 99.24 6.92 o
2237 5 4 -1 0 125.69 99.24 6.92 o
2238 6 5 -1 0 15.55 14.06 3.04 o
2238 5 5 1 0 15.55 14.06 3.04 o
2239 6 5 1 0 15.59 15.17 2.71 o
2239 5 5 -1 0 15.59 15.17 2.71 o
2240 6 6 -1 0 0.89 27.25 26.48 <
2240 5 6 1 0 0.89 27.25 26.48 <
2241 6 6 1 0 0.89 0.46 0.66 <
2241 5 6 -1 0 0.89 0.46 0.66 <
2242 6 4 -2 0 6.61 6.68 2.83 <
2242 5 4 2 0 6.61 6.68 2.83 <
2243 6 4 2 0 6.61 5.95 1.56 o
2243 5 4 -2 0 6.61 5.95 1.56 o
2244 6 5 -2 0 0.14 1.83 2.03 <
2244 5 5 2 0 0.14 1.83 2.03 <
2245 6 5 2 0 0.14 1.59 0.92 <
2245 5 5 -2 0 0.14 1.59 0.92 <
2246 6 6 -2 0 7.27 6.16 3.23 <
2246 5 6 2 0 7.27 6.16 3.23 <
2247 6 6 2 0 7.27 8.54 2.79 o
2247 5 6 -2 0 7.27 8.54 2.79 o
2248 6 4 -3 0 6.55 2.74 1.92 <
2248 5 4 3 0 6.55 2.74 1.92 <
2249 6 4 3 0 6.60 4.16 2.65 <
2249 5 4 -3 0 6.60 4.16 2.65 <
2250 6 5 -3 0 4.80 8.02 3.85 <
2250 5 5 3 0 4.80 8.02 3.85 <
2251 6 5 3 0 4.80 13.33 4.61 <
2251 5 5 -3 0 4.80 13.33 4.61 <
2252 6 6 -3 0 6.65 2.66 2.24 <
2252 5 6 3 0 6.65 2.66 2.24 <
2253 6 6 3 0 6.65 5.01 3.12 <
2253 5 6 -3 0 6.65 5.01 3.12 <
2254 6 4 -4 0 0.13 0.59 1.49 <
2254 5 4 4 0 0.13 0.59 1.49 <
2255 6 4 4 0 0.13 -0.56 1.45 <
2255 5 4 -4 0 0.13 -0.56 1.45 <
2256 6 5 -4 0 0.08 -1.00 1.86 <
2256 5 5 4 0 0.08 -1.00 1.86 <
2257 6 5 4 0 0.08 0.00 0.82 <
2257 5 5 -4 0 0.08 0.00 0.82 <
2258 6 4 -5 0 15.91 10.42 4.32 <
2258 5 4 5 0 15.91 10.42 4.32 <
2259 6 4 5 0 15.89 10.44 4.77 <
2259 5 4 -5 0 15.89 10.44 4.77 <
2260 6 5 -5 0 7.42 6.46 3.75 <
2260 5 5 5 0 7.42 6.46 3.75 <
2261 6 5 5 0 7.41 9.96 4.81 <
2261 5 5 -5 0 7.41 9.96 4.81 <
2262 6 4 -6 0 10.67 10.50 4.26 <
2262 5 4 6 0 10.67 10.50 4.26 <
2263 6 4 6 0 10.67 12.42 5.45 <
2263 5 4 -6 0 10.67 12.42 5.45 <
2264 6 5 -6 0 2.07 1.64 1.55 <
2264 5 5 6 0 2.07 1.64 1.55 <
2265 6 5 6 0 2.07 0.71 1.84 <
2265 5 5 -6 0 2.07 0.71 1.84 <
2266 6 4 -7 0 16.24 15.24 6.33 <
2266 5 4 7 0 16.24 15.24 6.33 <
2267 6 4 7 0 16.23 14.29 8.66 <
2267 5 4 -7 0 16.23 14.29 8.66 <
2268 5 -2 1 1 415.15 377.80 13.76 o
2269 5 -2 -1 1 415.18 367.40 17.74 o
2270 5 -1 1 1 504.23 910.98 24.57 o
2271 5 -1 -1 1 504.30 905.96 24.08 o
2272 5 -3 2 1 85.09 78.04 7.74 o
2273 5 -3 -2 1 86.54 71.58 9.62 o
2274 5 -2 2 1 361.47 326.95 18.18 o
2275 5 -2 -2 1 361.98 287.86 19.26 o
2276 5 -1 2 1 12.01 8.80 3.02 <
2277 5 -1 -2 1 12.83 8.90 2.59 o
2278 5 -4 3 1 13.59 26.27 5.03 o
2279 5 -4 -3 1 14.10 18.28 5.47 o
2280 5 -3 3 1 70.59 53.91 7.81 o
2281 5 -3 -3 1 70.37 79.93 10.95 o
2282 5 -2 3 1 3.23 3.37 1.99 <
2283 5 -2 -3 1 3.23 4.89 2.30 <
2284 5 -1 3 1 63.39 92.36 10.36 o
2285 5 -1 -3 1 63.57 82.91 10.42 o
2286 5 2 -3 1 112.90 101.54 8.90 o
2287 5 -5 4 1 7.43 28.32 5.84 o
2288 5 -5 -4 1 7.29 15.63 5.65 <
2289 5 -4 4 1 1.13 1.54 0.46 o
2290 5 -4 -4 1 1.11 2.87 2.43 <
2291 5 -3 4 1 35.82 31.26 6.78 o
2292 5 -3 -4 1 35.33 28.20 6.71 o
2293 5 -2 4 1 244.13 233.56 19.27 o
2294 5 -2 -4 1 243.93 294.09 26.56 o
2295 5 -1 4 1 17.84 28.48 5.98 o
2296 5 -1 -4 1 17.46 24.83 5.98 o
2297 5 0 4 1 3.62 0.13 0.52 <
2298 5 2 4 1 69.24 58.84 6.49 o
2299 5 2 -4 1 69.73 63.64 8.54 o
2300 5 3 -4 1 3.49 3.79 2.71 <
2301 5 -5 5 1 0.41 1.73 1.63 <
2302 5 -5 -5 1 0.41 0.94 0.59 <
2303 5 -4 5 1 13.29 14.81 5.21 <
2304 5 -4 -5 1 12.88 11.14 4.94 <
2305 5 -3 5 1 44.92 53.59 9.91 o
2306 5 -3 -5 1 45.13 42.86 9.57 o
2307 5 -2 5 1 25.03 32.23 7.17 o
2308 5 -2 -5 1 25.03 25.62 6.23 o
2309 5 -1 5 1 40.61 70.67 12.21 o
2310 5 -1 -5 1 40.54 79.33 12.25 o
2311 5 0 5 1 70.09 34.34 7.10 o
2312 5 2 5 1 41.32 38.77 6.60 o
2313 5 2 -5 1 41.15 39.82 7.56 o
2314 5 3 5 1 14.54 22.90 4.38 o
2315 5 3 -5 1 15.01 20.57 5.99 o
2316 5 4 -5 1 1.46 4.83 3.17 <
2317 5 -5 6 1 5.21 11.75 4.05 <
2318 5 -5 -6 1 5.16 4.09 3.68 <
2319 5 -4 6 1 2.09 1.93 2.50 <
2320 5 -4 -6 1 2.02 3.55 2.91 <
2321 5 -3 6 1 4.48 3.19 2.59 <
2322 5 -3 -6 1 4.30 5.65 4.12 <
2323 5 -2 6 1 39.03 29.38 7.22 o
2324 5 -2 -6 1 39.15 26.62 7.39 o
2325 5 -1 6 1 15.35 18.97 6.57 <
2326 5 0 6 1 13.40 4.73 2.58 <
2327 5 2 6 1 11.53 13.51 4.09 o
2328 5 2 -6 1 11.82 13.37 6.12 <
2329 5 3 6 1 0.67 1.29 1.49 <
2330 5 3 -6 1 0.69 0.97 1.25 <
2331 5 4 6 1 8.87 56.50 8.54 o
2332 5 4 -6 1 8.90 34.57 9.75 o
2333 5 -4 7 1 8.43 14.62 5.67 <
2334 5 -4 -7 1 8.51 7.97 4.50 <
2335 5 -3 7 1 6.63 4.53 3.21 <
2336 5 -3 -7 1 6.74 3.56 2.77 <
2337 5 -2 7 1 0.28 -0.48 1.84 <
2338 5 -2 -7 1 0.28 0.39 0.81 <
2339 5 -1 7 1 49.57 86.18 15.63 o
2340 5 0 7 1 48.30 0.75 1.97 <
2341 5 2 7 1 13.73 12.17 4.89 <
2342 5 2 -7 1 13.68 8.09 6.03 <
2343 5 3 7 1 17.90 27.94 6.83 o
2344 5 3 -7 1 17.81 19.56 6.73 <
2345 5 -3 8 1 2.07 4.95 3.72 <
2346 5 -3 -8 1 2.13 4.47 3.55 <
2347 5 -2 8 1 16.62 25.29 9.26 <
2348 5 -2 -8 1 16.59 7.15 4.15 <
2349 5 -1 8 1 6.01 1.92 2.26 <
2350 5 2 8 1 2.40 5.17 3.20 <
2351 5 2 -8 1 2.27 3.14 2.19 <
2352 5 -3 0 2 2.07 15.71 2.95 o
2353 5 -2 0 2 3.26 5.43 1.54 o
2354 5 -1 0 2 59.85 123.72 7.00 o
2355 5 -4 1 2 4.13 3.36 1.92 <
2356 5 -4 -1 2 4.13 2.82 2.09 <
2357 5 -3 1 2 86.79 101.90 8.75 o
2358 5 -3 -1 2 88.15 79.96 10.20 o
2359 5 -2 1 2 41.18 65.41 5.98 o
2360 5 -2 -1 2 39.97 58.13 7.70 o
2361 5 -1 1 2 305.97 479.39 19.33 o
2362 5 -1 -1 2 306.79 480.00 20.38 o
2363 5 -5 -2 2 2.28 -3.37 5.49 <
2364 5 -4 2 2 67.86 86.70 9.43 o
2365 5 -4 -2 2 67.82 72.26 11.32 o
2366 5 -3 2 2 104.37 68.49 9.50 o
2367 5 -3 -2 2 102.68 62.57 10.39 o
2368 5 -2 2 2 59.33 70.43 9.69 o
2369 5 -2 -2 2 59.91 55.78 8.82 o
2370 5 -1 2 2 579.99 1001.87 34.70 o
2371 5 -1 -2 2 580.39 1004.11 32.60 o
2372 5 -6 -3 2 2.04 3.50 3.13 <
2373 5 -5 3 2 28.64 42.67 7.24 o
2374 5 -5 -3 2 28.81 24.62 7.40 o
2375 5 -4 3 2 0.79 0.52 0.39 <
2376 5 -4 -3 2 0.78 0.47 1.64 <
2377 5 -3 3 2 50.79 75.34 11.15 o
2378 5 -3 -3 2 50.75 55.93 9.74 o
2379 5 -2 3 2 277.18 465.34 27.44 o
2380 5 -2 -3 2 277.24 458.31 27.14 o
2381 5 -1 3 2 14.33 67.00 10.96 o
2382 5 -1 -3 2 14.43 58.61 9.44 o
2383 5 1 -3 2 183.07 165.48 7.98 o
2384 5 -6 4 2 2.27 6.23 2.82 <
2385 5 -6 -4 2 2.26 2.56 2.26 <
2386 5 -5 4 2 1.49 3.57 2.31 <
2387 5 -5 -4 2 1.49 1.77 1.64 <
2388 5 -4 4 2 45.49 53.23 10.12 o
2389 5 -4 -4 2 45.49 39.41 9.14 o
2390 5 -3 4 2 39.19 19.88 5.84 o
2391 5 -3 -4 2 39.46 28.33 7.42 o
2392 5 -2 4 2 2.31 4.27 3.03 <
2393 5 -2 -4 2 2.09 4.29 2.61 <
2394 5 -1 4 2 180.50 324.63 24.51 o
2395 5 1 4 2 31.11 32.39 3.59 o
2396 5 1 -4 2 30.82 17.26 3.47 o
2397 5 2 -4 2 218.29 95.09 9.54 o
2397 4 -2 4 -2 218.29 95.09 9.54 o
2398 5 -6 5 2 0.65 5.80 3.09 <
2399 5 -6 -5 2 0.65 3.26 2.72 <
2400 5 -5 5 2 6.26 11.28 4.99 <
2401 5 -5 -5 2 6.08 6.73 3.84 <
2402 5 -4 5 2 0.17 0.25 1.33 <
2403 5 -4 -5 2 0.18 1.32 1.07 <
2404 5 -3 5 2 39.93 43.11 9.62 o
2405 5 -3 -5 2 39.74 44.55 10.57 o
2406 5 -2 5 2 46.30 104.03 15.93 o
2407 5 -2 -5 2 46.50 76.71 13.04 o
2408 5 -1 5 2 18.97 1.76 2.82 <
2409 5 0 5 2 83.93 37.66 6.06 o
2410 5 1 5 2 60.14 57.79 6.29 o
2411 5 1 -5 2 60.16 56.89 9.65 o
2412 5 2 5 2 18.47 18.53 3.35 o
2412 4 -2 -5 -2 18.47 18.53 3.35 o
2413 5 2 -5 2 18.46 9.58 3.58 <
2413 4 -2 5 -2 18.46 9.58 3.58 <
2414 5 3 -5 2 11.85 14.12 4.91 <
2415 5 -5 6 2 1.01 4.04 2.72 <
2416 5 -5 -6 2 1.05 3.76 3.43 <
2417 5 -4 6 2 9.71 14.24 5.75 <
2418 5 -4 -6 2 9.69 9.04 4.46 <
2419 5 -3 6 2 7.63 5.80 3.86 <
2420 5 -3 -6 2 7.94 3.43 2.69 <
2421 5 -2 6 2 8.20 26.32 8.58 o
2422 5 -2 -6 2 8.16 21.53 7.17 o
2423 5 0 6 2 20.47 10.28 3.75 <
2424 5 1 6 2 11.10 16.00 4.05 o
2425 5 1 -6 2 10.79 8.67 3.19 <
2426 5 2 6 2 35.93 20.79 3.74 o
2426 4 -2 -6 -2 35.93 20.79 3.74 o
2427 5 2 -6 2 35.88 17.10 5.19 o
2427 4 -2 6 -2 35.88 17.10 5.19 o
2428 5 3 -6 2 6.48 33.84 8.37 o
2429 5 -4 7 2 0.15 -0.02 0.22 <
2430 5 -4 -7 2 0.15 1.19 1.31 <
2431 5 -3 7 2 5.25 4.17 3.28 <
2432 5 -3 -7 2 5.24 3.25 2.69 <
2433 5 -2 7 2 10.42 15.29 6.27 <
2434 5 -2 -7 2 10.36 9.39 4.75 <
2435 5 0 7 2 9.40 1.04 1.31 <
2436 5 1 7 2 9.11 4.45 2.37 <
2437 5 1 -7 2 9.18 1.63 1.64 <
2438 5 2 7 2 1.43 0.26 0.12 <
2438 4 -2 -7 -2 1.43 0.26 0.12 <
2439 5 2 -7 2 1.44 1.14 1.40 <
2439 4 -2 7 -2 1.44 1.14 1.40 <
2440 5 3 7 2 4.77 8.53 2.96 <
2441 5 3 -7 2 4.80 4.36 3.25 <
2442 5 -3 8 2 1.92 5.41 3.94 <
2443 5 -3 -8 2 1.86 1.05 2.33 <
2444 5 -2 8 2 1.84 -0.01 0.91 <
2445 5 -2 -8 2 1.83 0.91 1.77 <
2446 5 0 8 2 5.11 2.68 2.02 <
2447 5 1 8 2 3.11 7.03 3.32 <
2448 5 2 8 2 23.20 9.22 3.65 <
2448 4 -2 -8 -2 23.20 9.22 3.65 <
2449 5 2 -8 2 23.22 6.52 1.99 o
2449 4 -2 8 -2 23.22 6.52 1.99 o
2450 5 -4 0 3 6.29 3.86 1.37 <
2451 5 -3 0 3 319.80 494.69 16.03 o
2452 5 -2 0 3 0.89 0.17 0.50 <
2453 5 -1 0 3 3.10 1.60 1.08 <
2454 5 -5 1 3 1.64 13.34 3.90 o
2455 5 -5 -1 3 1.54 4.34 3.04 <
2456 5 -4 1 3 41.95 53.49 7.36 o
2457 5 -4 -1 3 41.92 36.88 8.02 o
2458 5 -3 1 3 0.50 1.31 0.95 <
2459 5 -3 -1 3 0.48 1.03 0.73 <
2460 5 -2 1 3 125.85 117.60 8.45 o
2461 5 -2 -1 3 123.46 134.97 22.99 o
2462 5 -1 1 3 53.07 26.46 3.42 o
2463 5 -1 -1 3 54.74 32.82 5.42 o
2464 5 -6 2 3 4.73 12.52 4.95 <
2465 5 -6 -2 3 4.72 5.09 4.26 <
2466 5 -5 2 3 7.32 3.53 2.81 <
2467 5 -5 -2 3 7.46 5.02 3.36 <
2468 5 -4 2 3 10.51 12.53 4.65 <
2469 5 -4 -2 3 10.23 10.37 4.56 <
2470 5 -3 2 3 65.28 149.51 17.48 o
2471 5 -3 -2 3 64.69 172.69 17.81 o
2472 5 -2 2 3 90.31 72.78 12.18 o
2473 5 -2 -2 3 91.85 83.95 11.16 o
2474 5 -1 2 3 142.83 75.95 12.34 o
2475 5 -6 3 3 0.95 -0.46 1.56 <
2476 5 -6 -3 3 0.95 -0.26 1.66 <
2477 5 -5 3 3 24.01 31.80 7.40 o
2478 5 -5 -3 3 23.81 30.77 9.23 o
2479 5 -4 3 3 18.69 19.96 5.84 o
2480 5 -4 -3 3 18.18 15.56 5.86 <
2481 5 -3 3 3 16.83 32.56 8.09 o
2482 5 -3 -3 3 16.74 25.36 7.16 o
2483 5 -2 3 3 140.34 123.05 16.19 o
2484 5 -2 -3 3 140.56 87.04 12.69 o
2485 5 -6 4 3 6.46 15.41 5.29 <
2486 5 -6 -4 3 6.47 8.31 4.87 <
2487 5 -5 4 3 0.45 2.82 2.35 <
2488 5 -5 -4 3 0.43 0.25 1.31 <
2489 5 -4 4 3 1.73 3.46 3.65 <
2490 5 -4 -4 3 1.84 0.51 1.68 <
2491 5 -3 4 3 38.83 64.65 12.70 o
2492 5 -3 -4 3 39.12 58.64 11.65 o
2493 5 -2 4 3 42.76 48.28 9.93 o
2494 5 -2 -4 3 42.53 39.58 9.21 o
2495 5 1 -4 3 31.34 32.91 3.62 o
2496 5 -6 5 3 0.42 0.33 0.75 <
2497 5 -6 -5 3 0.42 -0.31 2.05 <
2498 5 -5 5 3 7.33 9.69 4.81 <
2499 5 -5 -5 3 7.50 9.20 4.89 <
2500 5 -4 5 3 15.33 10.89 5.01 <
2501 5 -4 -5 3 15.64 7.33 2.82 <
2502 5 -3 5 3 2.13 2.78 2.20 <
2503 5 -3 -5 3 2.16 1.43 1.37 <
2504 5 -2 5 3 34.06 33.83 9.07 o
2505 5 -2 -5 3 34.39 29.18 7.94 o
2506 5 1 -5 3 30.81 20.50 4.06 o
2507 5 2 -5 3 19.88 60.41 8.40 o
2508 5 -5 6 3 1.19 5.63 4.74 <
2509 5 -5 -6 3 1.15 3.88 3.78 <
2510 5 -4 6 3 1.71 1.85 2.43 <
2511 5 -4 -6 3 1.69 0.31 1.33 <
2512 5 -3 6 3 29.94 51.28 12.36 o
2513 5 -3 -6 3 29.99 46.73 11.55 o
2514 5 -2 6 3 8.50 8.90 4.72 <
2515 5 -2 -6 3 8.12 8.28 4.18 <
2516 5 0 6 3 32.92 13.35 3.15 o
2517 5 1 6 3 9.06 13.53 2.29 o
2518 5 1 -6 3 9.11 6.25 2.55 <
2519 5 2 -6 3 3.85 11.37 3.58 o
2520 5 3 -6 3 12.74 4.43 2.78 <
2520 4 -3 6 -3 12.74 4.43 2.78 <
2521 5 -4 7 3 6.62 10.04 6.03 <
2522 5 -4 -7 3 6.60 7.13 5.02 <
2523 5 -3 7 3 0.23 -0.09 2.19 <
2524 5 -3 -7 3 0.24 1.76 2.28 <
2525 5 -2 7 3 12.68 9.38 4.76 <
2526 5 0 7 3 7.87 9.15 2.98 o
2527 5 1 7 3 10.85 14.74 3.09 o
2528 5 1 -7 3 10.84 7.12 3.14 <
2529 5 2 -7 3 5.33 6.86 3.02 <
2530 5 -3 8 3 10.34 26.79 10.77 <
2531 5 -3 -8 3 10.32 19.04 7.88 <
2532 5 -2 8 3 3.97 3.73 3.23 <
2533 5 0 8 3 16.18 14.79 4.46 o
2534 5 1 8 3 6.53 9.12 2.64 o
2535 5 1 -8 3 6.52 -0.89 2.00 <
2536 5 -5 0 4 11.85 26.79 7.65 o
2537 5 -4 0 4 46.93 131.85 12.19 o
2538 5 -3 0 4 26.49 26.21 4.16 o
2539 5 -2 0 4 61.71 130.77 14.01 o
2540 5 -1 0 4 97.19 41.97 7.59 o
2541 5 -6 1 4 2.86 6.33 3.49 <
2542 5 -6 -1 4 2.85 2.54 2.61 <
2543 5 -5 1 4 2.43 1.47 1.48 <
2544 5 -5 -1 4 2.44 1.69 1.93 <
2545 5 -4 1 4 67.36 117.72 19.80 o
2546 5 -4 -1 4 67.15 123.75 23.48 o
2547 5 -3 1 4 79.71 67.47 7.05 o
2548 5 -3 -1 4 79.71 82.91 7.45 o
2549 5 -2 1 4 18.60 65.05 31.32 <
2550 5 -2 -1 4 18.74 27.99 4.26 o
2551 5 -1 -1 4 85.33 33.18 6.28 o
2552 5 -7 2 4 0.08 1.57 1.71 <
2553 5 -7 -2 4 0.08 0.31 2.12 <
2554 5 -6 2 4 0.11 0.35 0.99 <
2555 5 -6 -2 4 0.11 -0.63 1.28 <
2556 5 -5 2 4 19.53 17.61 6.42 <
2557 5 -5 -2 4 19.33 14.92 6.89 <
2558 5 -4 2 4 1.47 5.18 2.40 <
2559 5 -4 -2 4 1.56 8.43 4.59 <
2560 5 -3 2 4 2.07 -0.27 0.57 <
2561 5 -3 -2 4 2.04 -0.12 0.73 <
2562 5 -2 2 4 75.28 108.02 12.61 o
2563 5 -2 -2 4 75.13 122.83 17.84 o
2564 5 -1 -2 4 12.71 7.41 2.25 o
2565 5 -6 3 4 1.26 3.68 3.60 <
2566 5 -6 -3 4 1.25 4.04 3.72 <
2567 5 -5 3 4 1.53 0.00 2.56 <
2568 5 -5 -3 4 1.55 0.91 1.89 <
2569 5 -4 3 4 0.12 4.65 4.29 <
2570 5 -4 -3 4 0.10 2.70 2.91 <
2571 5 -3 3 4 11.28 6.43 2.49 <
2572 5 -3 -3 4 11.78 7.84 4.09 <
2573 5 -2 3 4 8.93 10.21 2.73 o
2574 5 -2 -3 4 9.04 10.88 4.71 <
2575 5 -6 4 4 3.99 3.83 3.32 <
2576 5 -6 -4 4 3.99 2.97 3.68 <
2577 5 -5 4 4 7.63 16.90 7.23 <
2578 5 -5 -4 4 7.71 7.64 5.74 <
2579 5 -4 4 4 0.57 -2.28 2.39 <
2580 5 -4 -4 4 0.51 0.26 1.25 <
2581 5 -3 4 4 3.59 1.60 2.62 <
2582 5 -3 -4 4 3.61 2.79 2.58 <
2583 5 -2 4 4 103.58 164.64 30.46 o
2584 5 -2 -4 4 103.86 155.42 18.08 o
2585 5 -6 5 4 2.45 3.02 3.74 <
2586 5 -6 -5 4 2.47 2.55 2.48 <
2587 5 -5 5 4 0.29 -0.65 1.26 <
2588 5 -5 -5 4 0.29 1.25 1.90 <
2589 5 -4 5 4 3.95 12.22 6.41 <
2590 5 -4 -5 4 4.00 10.92 5.68 <
2591 5 -3 5 4 12.01 13.42 6.35 <
2592 5 -3 -5 4 11.73 10.33 5.79 <
2593 5 -2 5 4 6.51 15.81 6.54 <
2594 5 -2 -5 4 6.40 16.58 6.78 <
2595 5 1 -5 4 3.39 14.55 3.00 o
2596 5 -5 6 4 4.99 7.72 4.80 <
2597 5 -5 -6 4 5.02 6.96 6.49 <
2598 5 -4 6 4 5.81 15.11 7.17 <
2599 5 -4 -6 4 5.84 11.38 5.98 <
2600 5 -3 6 4 1.10 76.19 22.88 o
2601 5 -3 -6 4 1.08 81.34 14.03 o
2602 5 -2 6 4 17.89 26.09 8.79 <
2603 5 1 -6 4 22.34 27.24 5.14 o
2604 5 2 -6 4 4.62 5.16 2.34 <
2605 5 -4 7 4 9.76 30.25 10.60 <
2606 5 -4 -7 4 9.78 15.88 7.68 <
2607 5 -3 7 4 14.30 28.21 10.66 <
2608 5 -3 -7 4 14.30 14.72 7.11 <
2609 5 -1 7 4 9.70 2.39 1.73 <
2610 5 0 7 4 29.89 33.45 3.76 o
2611 5 1 -7 4 1.40 2.19 1.32 <
2612 5 -1 8 4 4.85 0.96 1.37 <
2613 6 -2 0 -5 10.98 1.21 1.29 <
2613 5 -6 0 5 10.98 1.21 1.29 <
2614 6 -1 0 -5 4.47 2.48 1.45 <
2614 5 -5 0 5 4.47 2.48 1.45 <
2615 6 0 0 -5 121.26 58.92 7.21 o
2615 5 -4 0 5 121.26 58.92 7.21 o
2616 6 1 0 -5 104.33 21.23 4.87 o
2616 5 -3 0 5 104.33 21.23 4.87 o
2617 6 2 0 -5 0.87 0.69 0.74 <
2617 5 -2 0 5 0.87 0.69 0.74 <
2618 6 -3 -1 -5 2.65 0.65 0.94 <
2618 5 -7 1 5 2.65 0.65 0.94 <
2619 6 -3 1 -5 2.65 -0.38 1.06 <
2619 5 -7 -1 5 2.65 -0.38 1.06 <
2620 6 -2 -1 -5 2.44 2.97 2.10 <
2620 5 -6 1 5 2.44 2.97 2.10 <
2621 6 -2 1 -5 2.54 3.71 5.50 <
2621 5 -6 -1 5 2.54 3.71 5.50 <
2622 6 -1 -1 -5 23.41 21.48 5.95 o
2622 5 -5 1 5 23.41 21.48 5.95 o
2623 6 -1 1 -5 23.11 20.59 6.02 o
2623 5 -5 -1 5 23.11 20.59 6.02 o
2624 6 0 -1 -5 32.43 9.96 3.10 o
2624 5 -4 1 5 32.43 9.96 3.10 o
2625 6 0 1 -5 32.48 7.45 2.28 o
2625 5 -4 -1 5 32.48 7.45 2.28 o
2626 6 1 -1 -5 41.25 27.04 5.23 o
2626 5 -3 1 5 41.25 27.04 5.23 o
2627 6 1 1 -5 42.01 33.95 9.21 o
2627 5 -3 -1 5 42.01 33.95 9.21 o
2628 6 2 -1 -5 34.65 8.90 3.26 <
2628 5 -2 1 5 34.65 8.90 3.26 <
2629 6 2 1 -5 34.60 10.74 2.88 o
2629 5 -2 -1 5 34.60 10.74 2.88 o
2630 6 3 1 -5 38.09 4.95 3.10 <
2630 5 -1 -1 5 38.09 4.95 3.10 <
2631 6 -3 -2 -5 2.96 2.38 2.77 <
2631 5 -7 2 5 2.96 2.38 2.77 <
2632 6 -3 2 -5 3.05 2.43 2.83 <
2632 5 -7 -2 5 3.05 2.43 2.83 <
2633 6 -2 -2 -5 6.20 2.12 2.54 <
2633 5 -6 2 5 6.20 2.12 2.54 <
2634 6 -2 2 -5 6.19 0.00 1.31 <
2634 5 -6 -2 5 6.19 0.00 1.31 <
2635 6 -1 -2 -5 2.07 1.88 1.41 <
2635 5 -5 2 5 2.07 1.88 1.41 <
2636 6 -1 2 -5 2.05 1.88 2.92 <
2636 5 -5 -2 5 2.05 1.88 2.92 <
2637 6 0 -2 -5 38.58 306.19 295.87 <
2637 5 -4 2 5 38.58 306.19 295.87 <
2638 6 0 2 -5 38.94 281.44 259.01 <
2638 5 -4 -2 5 38.94 281.44 259.01 <
2639 6 1 -2 -5 45.58 10.75 3.59 <
2639 5 -3 2 5 45.58 10.75 3.59 <
2640 6 1 2 -5 45.81 15.05 3.20 o
2640 5 -3 -2 5 45.81 15.05 3.20 o
2641 6 2 -2 -5 21.05 5.63 2.64 <
2641 5 -2 2 5 21.05 5.63 2.64 <
2642 6 2 2 -5 21.09 7.91 2.47 o
2642 5 -2 -2 5 21.09 7.91 2.47 o
2643 6 3 2 -5 50.01 12.12 4.11 <
2643 5 -1 -2 5 50.01 12.12 4.11 <
2644 6 -2 -3 -5 8.77 1.80 4.81 <
2644 5 -6 3 5 8.77 1.80 4.81 <
2645 6 -2 3 -5 8.81 3.22 3.22 <
2645 5 -6 -3 5 8.81 3.22 3.22 <
2646 6 -1 -3 -5 15.27 17.78 7.76 <
2646 5 -5 3 5 15.27 17.78 7.76 <
2647 6 -1 3 -5 15.36 10.75 6.57 <
2647 5 -5 -3 5 15.36 10.75 6.57 <
2648 6 0 -3 -5 9.64 0.96 1.14 <
2648 5 -4 3 5 9.64 0.96 1.14 <
2649 6 0 3 -5 9.61 0.00 1.49 <
2649 5 -4 -3 5 9.61 0.00 1.49 <
2650 6 1 -3 -5 29.86 21.27 5.25 o
2650 5 -3 3 5 29.86 21.27 5.25 o
2651 6 1 3 -5 30.01 19.27 7.00 <
2651 5 -3 -3 5 30.01 19.27 7.00 <
2652 6 2 -3 -5 56.73 17.29 7.43 <
2652 5 -2 3 5 56.73 17.29 7.43 <
2653 6 2 3 -5 56.67 25.47 7.98 o
2653 5 -2 -3 5 56.67 25.47 7.98 o
2654 6 3 3 -5 25.30 6.29 2.21 <
2654 5 -1 -3 5 25.30 6.29 2.21 <
2655 6 -2 -4 -5 6.57 1.65 3.13 <
2655 5 -6 4 5 6.57 1.65 3.13 <
2656 6 -2 4 -5 6.56 2.37 2.92 <
2656 5 -6 -4 5 6.56 2.37 2.92 <
2657 6 -1 -4 -5 1.43 -0.53 2.09 <
2657 5 -5 4 5 1.43 -0.53 2.09 <
2658 6 -1 4 -5 1.42 0.00 1.73 <
2658 5 -5 -4 5 1.42 0.00 1.73 <
2659 6 0 -4 -5 4.94 8.89 5.74 <
2659 5 -4 4 5 4.94 8.89 5.74 <
2660 6 0 4 -5 4.75 4.38 3.73 <
2660 5 -4 -4 5 4.75 4.38 3.73 <
2661 6 1 -4 -5 9.21 3.02 3.08 <
2661 5 -3 4 5 9.21 3.02 3.08 <
2662 6 1 4 -5 9.18 1.53 3.58 <
2662 5 -3 -4 5 9.18 1.53 3.58 <
2663 6 2 -4 -5 2.21 -0.48 0.73 <
2663 5 -2 4 5 2.21 -0.48 0.73 <
2664 6 -1 -5 -5 11.19 10.45 5.67 <
2664 5 -5 5 5 11.19 10.45 5.67 <
2665 6 -1 5 -5 11.18 9.72 7.75 <
2665 5 -5 -5 5 11.18 9.72 7.75 <
2666 6 0 -5 -5 4.90 0.00 2.22 <
2666 5 -4 5 5 4.90 0.00 2.22 <
2667 6 0 5 -5 4.90 0.00 2.32 <
2667 5 -4 -5 5 4.90 0.00 2.32 <
2668 6 1 -5 -5 19.05 7.26 5.84 <
2668 5 -3 5 5 19.05 7.26 5.84 <
2669 6 1 5 -5 18.83 4.26 3.68 <
2669 5 -3 -5 5 18.83 4.26 3.68 <
2670 6 0 -6 -5 19.66 11.31 7.67 <
2670 5 -4 6 5 19.66 11.31 7.67 <
2671 6 0 6 -5 19.68 6.15 5.44 <
2671 5 -4 -6 5 19.68 6.15 5.44 <
2672 6 1 -6 -5 20.31 7.56 5.65 <
2672 5 -3 6 5 20.31 7.56 5.65 <
2673 6 1 6 -5 20.24 2.34 3.06 <
2673 5 -3 -6 5 20.24 2.34 3.06 <
2674 6 1 -7 -5 3.49 2.21 4.21 <
2674 5 -3 7 5 3.49 2.21 4.21 <
2675 6 1 7 -5 3.49 2.43 3.11 <
2675 5 -3 -7 5 3.49 2.43 3.11 <
2676 5 -6 0 6 0.85 1.86 1.61 <
2677 5 -5 0 6 0.08 -1.05 1.06 <
2678 5 -4 0 6 0.30 0.83 0.89 <
2679 5 -3 0 6 1.76 2.24 1.52 <
2680 5 -2 0 6 2.26 1.13 1.38 <
2681 5 -6 1 6 0.79 1.03 1.13 <
2682 5 -6 -1 6 0.78 28.38 27.21 <
2683 5 -5 1 6 4.19 4.62 2.60 <
2684 5 -5 -1 6 4.18 6.70 2.53 <
2685 5 -4 1 6 8.13 6.80 2.76 <
2686 5 -4 -1 6 8.34 9.44 3.88 <
2687 5 -3 1 6 6.13 8.61 4.67 <
2688 5 -3 -1 6 6.04 12.71 3.61 o
2689 5 -2 1 6 17.49 7.41 5.04 <
2690 5 -2 -1 6 17.52 10.36 4.96 <
2691 5 -6 2 6 2.59 11.74 7.20 <
2692 5 -6 -2 6 2.60 11.96 6.42 <
2693 5 -5 2 6 2.81 4.00 3.83 <
2694 5 -5 -2 6 2.90 3.84 3.00 <
2695 5 -4 2 6 0.44 0.98 1.20 <
2696 5 -4 -2 6 0.45 1.10 1.22 <
2697 5 -3 2 6 26.47 61.93 35.25 <
2698 5 -3 -2 6 26.67 59.96 16.11 o
2699 5 -2 2 6 15.06 9.05 6.13 <
2700 5 -2 -2 6 14.84 11.68 4.60 <
2701 5 -1 -2 6 0.57 0.40 1.15 <
2702 5 -6 3 6 2.35 3.15 5.37 <
2703 5 -6 -3 6 2.34 5.04 4.03 <
2704 5 -5 3 6 2.20 1.50 1.95 <
2705 5 -5 -3 6 2.20 2.89 3.64 <
2706 5 -4 3 6 5.76 19.53 17.10 <
2707 5 -4 -3 6 5.70 23.11 15.10 <
2708 5 -3 3 6 5.54 5.06 3.29 <
2709 5 -3 -3 6 5.44 6.88 2.28 o
2710 5 -2 -3 6 7.89 3.87 1.70 <
2711 5 -1 -3 6 14.74 5.76 3.31 <
2712 5 -5 4 6 2.99 2.39 3.01 <
2713 5 -5 -4 6 2.97 2.05 2.49 <
2714 5 -4 4 6 1.63 0.97 1.61 <
2715 5 -4 -4 6 1.61 -0.73 1.43 <
2716 5 -3 4 6 13.53 57.60 48.96 <
2717 5 -3 -4 6 13.47 15.38 7.31 <
2718 5 -2 -4 6 16.89 10.45 2.04 o
2719 5 -1 -4 6 0.37 0.63 0.57 <
2720 5 -5 5 6 0.90 2.90 4.73 <
2721 5 -5 -5 6 0.91 3.22 3.94 <
2722 5 -4 5 6 3.04 2.62 2.87 <
2723 5 -4 -5 6 3.03 2.41 4.20 <
2724 5 -3 5 6 5.56 6.64 4.45 <
2725 5 -3 -5 6 5.64 7.28 5.13 <
2726 5 -3 6 6 4.05 2.27 2.68 <
2727 5 -3 -6 6 4.01 5.74 5.08 <
2728 5 -6 0 7 1.07 0.13 1.01 <
2729 5 -5 0 7 1.43 3.28 1.87 <
2730 5 -4 0 7 4.25 2.82 1.74 <
2731 5 -3 0 7 0.16 0.16 1.16 <
2732 5 -2 0 7 8.65 3.96 3.50 <
2733 5 -6 1 7 0.06 -0.58 1.65 <
2734 5 -6 -1 7 0.07 0.17 1.09 <
2735 5 -5 1 7 2.55 0.76 1.27 <
2736 5 -5 -1 7 2.58 1.78 2.32 <
2737 5 -4 1 7 2.01 0.41 0.86 <
2738 5 -4 -1 7 1.98 1.35 1.71 <
2739 5 -3 1 7 4.45 3.31 3.87 <
2740 5 -3 -1 7 4.42 4.35 2.59 <
2741 5 -2 1 7 1.35 1.90 3.45 <
2742 5 -2 -1 7 1.41 -2.10 5.23 <
2743 5 -6 2 7 0.28 -1.83 2.30 <
2744 5 -6 -2 7 0.28 -1.70 1.66 <
2745 5 -5 2 7 1.92 1.83 2.00 <
2746 5 -5 -2 7 1.87 2.42 1.99 <
2747 5 -4 2 7 2.14 2.52 1.94 <
2748 5 -4 -2 7 2.09 2.05 1.54 <
2749 5 -3 2 7 0.61 0.25 1.44 <
2750 5 -3 -2 7 0.62 -0.42 1.05 <
2751 5 -2 -2 7 5.61 5.44 4.63 <
2752 5 -5 3 7 0.49 1.94 1.88 <
2753 5 -5 -3 7 0.49 1.50 1.53 <
2754 5 -4 3 7 4.17 2.13 2.25 <
2755 5 -4 -3 7 4.15 3.85 1.83 <
2756 5 -3 3 7 6.24 2.38 2.60 <
2757 5 -3 -3 7 6.25 5.42 2.73 <
2758 5 -2 -3 7 7.27 8.43 4.09 <
2759 5 -1 -3 7 5.79 1.31 1.85 <
2760 5 -4 4 7 1.59 0.48 1.03 <
2761 5 -4 -4 7 1.61 1.19 2.61 <
2762 5 -3 4 7 0.07 -0.61 1.33 <
2763 5 -3 -4 7 0.07 -0.13 0.49 <
2764 5 -2 -4 7 5.94 7.89 2.74 <
2765 5 -1 -4 7 6.21 3.07 1.83 <
2766 5 -4 0 8 3.98 9.44 4.09 <
2767 5 -3 0 8 4.39 5.76 7.04 <
2768 5 -2 0 8 0.60 -0.36 1.38 <
2769 5 -4 1 8 1.56 2.34 1.72 <
2770 5 -4 -1 8 1.54 2.16 1.67 <
2771 5 -3 1 8 2.29 1.81 3.25 <
2772 5 -3 -1 8 2.30 1.06 2.31 <
2773 5 -2 -1 8 3.19 1.03 2.64 <
2774 5 -3 2 8 2.40 2.30 2.16 <
2775 5 -3 -2 8 2.46 3.39 3.59 <
2776 6 -6 0 1 0.04 -0.05 0.87 <
2777 6 -5 0 1 20.18 13.92 2.67 o
2778 6 -4 0 1 0.09 2.34 0.88 <
2779 6 -3 0 1 0.81 0.47 0.27 <
2780 6 -2 0 1 59.49 69.94 3.80 o
2781 6 2 0 1 1.04 0.09 0.25 <
2782 6 3 0 1 18.45 22.57 2.14 o
2783 6 4 0 1 55.88 60.60 4.35 o
2784 6 5 0 1 0.40 0.70 0.57 <
2785 6 6 0 1 0.40 0.79 0.72 <
2786 6 -6 1 1 2.11 1.93 1.03 <
2787 6 -6 -1 1 2.10 2.92 1.07 <
2788 6 -5 1 1 3.29 2.25 1.83 <
2789 6 -5 -1 1 3.27 1.50 0.89 <
2790 6 -4 1 1 36.08 25.40 3.77 o
2791 6 -4 -1 1 36.08 29.97 3.23 o
2792 6 -3 1 1 72.00 65.47 5.34 o
2793 6 -3 -1 1 71.05 56.96 4.48 o
2794 6 -2 1 1 320.34 322.07 13.82 o
2795 6 -2 -1 1 320.36 331.53 13.16 o
2796 6 2 1 1 121.88 110.75 6.19 o
2797 6 2 -1 1 123.54 103.25 7.17 o
2798 6 3 1 1 75.19 86.72 6.29 o
2799 6 3 -1 1 74.54 71.12 7.08 o
2800 6 4 1 1 8.94 8.50 2.19 o
2801 6 4 -1 1 9.00 6.54 2.20 <
2802 6 5 1 1 4.62 5.44 1.41 o
2803 6 5 -1 1 4.63 5.17 2.60 <
2804 6 6 1 1 0.69 0.50 0.64 <
2805 6 6 -1 1 0.64 3.63 2.62 <
2806 6 -6 2 1 2.44 1.87 0.86 <
2807 6 -6 -2 1 2.48 1.69 0.69 <
2808 6 -5 2 1 16.71 11.87 2.69 o
2809 6 -5 -2 1 17.04 10.80 3.93 <
2810 6 -4 2 1 10.02 6.49 1.72 o
2811 6 -4 -2 1 10.21 6.91 1.49 o
2812 6 -3 2 1 65.66 44.19 3.99 o
2813 6 -3 -2 1 66.78 48.46 6.73 o
2814 6 -2 2 1 278.91 345.94 16.75 o
2815 6 -2 -2 1 279.31 322.79 17.70 o
2816 6 0 2 1 0.20 -0.22 0.36 <
2817 6 0 -2 1 0.17 -0.16 0.12 <
2818 6 2 2 1 84.61 90.90 7.50 o
2819 6 2 -2 1 83.10 126.26 10.72 o
2820 6 3 2 1 0.09 0.18 0.25 <
2821 6 3 -2 1 0.08 1.18 1.03 <
2822 6 4 2 1 11.24 16.50 3.53 o
2823 6 4 -2 1 10.98 17.39 4.36 o
2824 6 5 2 1 2.33 5.52 2.28 <
2825 6 5 -2 1 2.29 2.57 2.47 <
2826 6 6 2 1 0.26 -1.29 1.40 <
2827 6 6 -2 1 0.26 0.35 1.70 <
2828 6 -6 3 1 2.48 -8.08 11.62 <
2829 6 -6 -3 1 2.44 1.31 1.85 <
2830 6 -5 3 1 0.07 -0.50 0.50 <
2831 6 -5 -3 1 0.07 -0.71 1.78 <
2832 6 -4 3 1 10.49 13.53 2.70 o
2833 6 -4 -3 1 10.88 11.61 4.07 <
2834 6 -3 3 1 54.47 42.11 8.21 o
2835 6 -3 -3 1 54.30 47.37 7.48 o
2836 6 -2 3 1 2.49 3.57 2.27 <
2837 6 -2 -3 1 2.49 7.10 3.25 <
2838 6 0 3 1 11.26 9.21 2.35 o
2839 6 0 -3 1 11.23 11.51 2.43 o
2840 6 2 3 1 87.19 116.73 9.04 o
2841 6 2 -3 1 87.12 116.59 9.53 o
2842 6 3 3 1 8.86 9.45 2.98 o
2843 6 3 -3 1 8.53 7.21 2.94 <
2844 6 4 3 1 1.10 0.64 0.94 <
2845 6 4 -3 1 1.06 2.11 1.51 <
2846 6 5 3 1 2.10 5.04 2.45 <
2847 6 5 -3 1 2.11 3.77 2.60 <
2848 6 -6 4 1 0.52 1.42 1.34 <
2849 6 -6 -4 1 0.51 0.60 1.25 <
2850 6 -5 4 1 5.74 11.21 5.21 <
2851 6 -5 -4 1 5.63 8.87 4.31 <
2852 6 -4 4 1 0.88 2.02 2.32 <
2853 6 -4 -4 1 0.86 2.47 1.79 <
2854 6 -3 4 1 27.64 25.51 6.78 o
2855 6 -3 -4 1 27.26 20.54 5.78 o
2856 6 -2 4 1 188.37 185.39 19.06 o
2857 6 -2 -4 1 188.22 187.85 15.99 o
2858 6 -1 4 1 13.76 -0.12 1.02 <
2859 6 0 4 1 2.79 0.51 0.54 <
2860 6 0 -4 1 2.64 1.86 1.52 <
2861 6 2 4 1 53.42 43.79 6.62 o
2862 6 2 -4 1 53.80 46.71 6.63 o
2863 6 3 4 1 2.71 3.31 1.95 <
2864 6 3 -4 1 2.69 3.01 2.09 <
2865 6 4 4 1 7.52 8.40 3.23 <
2866 6 4 -4 1 7.63 7.71 3.80 <
2867 6 5 4 1 5.25 7.87 3.12 <
2868 6 5 -4 1 5.28 5.19 2.46 <
2869 6 -5 5 1 0.31 -0.52 1.04 <
2870 6 -5 -5 1 0.31 0.79 1.10 <
2871 6 -4 5 1 10.25 8.41 4.44 <
2872 6 -4 -5 1 9.94 6.55 3.47 <
2873 6 -3 5 1 34.66 38.36 8.91 o
2874 6 -3 -5 1 34.82 34.71 8.24 o
2875 6 -2 5 1 19.32 25.00 7.76 o
2876 6 0 5 1 54.08 66.88 7.69 o
2877 6 0 -5 1 54.10 61.29 8.50 o
2878 6 2 5 1 31.88 42.61 6.99 o
2879 6 2 -5 1 31.76 41.63 6.88 o
2880 6 3 5 1 11.22 9.31 3.44 <
2881 6 3 -5 1 11.58 11.52 4.01 <
2882 6 4 5 1 1.10 2.44 1.28 <
2883 6 4 -5 1 1.13 2.09 1.73 <
2884 6 5 5 1 2.40 6.18 3.29 <
2885 6 5 -5 1 2.39 8.57 4.63 <
2886 6 -5 6 1 4.02 7.26 4.36 <
2887 6 -5 -6 1 3.98 2.53 2.79 <
2888 6 -4 6 1 1.62 4.84 7.06 <
2889 6 -4 -6 1 1.56 5.18 7.08 <
2890 6 -3 6 1 3.46 4.34 3.09 <
2891 6 -3 -6 1 3.31 2.73 3.29 <
2892 6 -2 6 1 30.12 -0.15 0.90 <
2893 6 0 6 1 10.34 14.64 3.87 o
2894 6 2 6 1 8.90 10.56 3.75 <
2895 6 2 -6 1 9.12 11.45 3.74 o
2896 6 3 6 1 0.51 1.20 2.77 <
2897 6 3 -6 1 0.53 0.71 1.18 <
2898 6 4 6 1 6.84 8.60 4.89 <
2899 6 4 -6 1 6.86 9.12 4.66 <
2900 6 -4 7 1 6.51 0.46 5.27 <
2901 6 -4 -7 1 6.57 4.29 3.79 <
2902 6 -3 7 1 5.12 0.54 4.18 <
2903 6 -3 -7 1 5.20 1.61 1.35 <
2904 6 0 7 1 37.27 49.16 8.80 o
2905 6 2 7 1 10.60 10.74 4.38 <
2906 6 2 -7 1 10.55 6.71 3.34 <
2907 6 3 7 1 13.81 20.96 6.95 o
2908 6 3 -7 1 13.74 20.09 6.20 o
2909 6 -3 8 1 1.60 0.69 3.63 <
2910 6 0 8 1 2.45 2.49 2.81 <
2911 6 2 8 1 1.85 1.25 3.50 <
2912 6 2 -8 1 1.75 5.81 3.77 <
2913 6 0 9 1 8.41 5.91 4.38 <
2914 6 -7 0 2 1.23 1.69 1.37 <
2915 6 -6 0 2 0.01 -0.80 1.06 <
2916 6 -5 0 2 2.66 0.43 0.50 <
2917 6 -4 0 2 20.47 14.32 2.64 o
2918 6 -3 0 2 1.60 0.47 0.40 <
2919 6 -7 1 2 0.72 0.25 1.17 <
2920 6 -7 -1 2 0.73 -0.63 1.23 <
2921 6 -6 1 2 1.57 1.86 1.08 <
2922 6 -6 -1 2 1.55 2.16 0.86 <
2923 6 -5 1 2 8.81 3.76 1.64 <
2924 6 -5 -1 2 9.09 4.11 1.51 <
2925 6 -4 1 2 3.19 0.57 0.81 <
2926 6 -4 -1 2 3.19 0.62 0.65 <
2927 6 -3 1 2 66.97 65.02 7.76 o
2928 6 -3 -1 2 68.02 61.37 4.79 o
2929 6 2 -1 2 39.10 32.83 3.81 o
2929 1 -2 1 -2 39.10 32.83 3.81 o
2930 6 3 1 2 26.97 33.32 3.77 o
2931 6 3 -1 2 26.43 33.26 4.62 o
2932 6 4 1 2 5.93 10.95 2.34 o
2933 6 4 -1 2 5.91 8.36 2.77 o
2934 6 5 1 2 1.73 6.83 3.12 <
2935 6 5 -1 2 1.69 2.36 1.79 <
2936 6 -7 2 2 1.28 0.32 1.58 <
2937 6 -7 -2 2 1.25 1.04 1.10 <
2938 6 -6 2 2 0.05 -0.21 0.44 <
2939 6 -6 -2 2 0.04 0.03 0.57 <
2940 6 -5 2 2 1.84 2.91 1.49 <
2941 6 -5 -2 2 1.76 2.75 1.16 <
2942 6 -4 2 2 52.36 40.27 5.02 o
2943 6 -4 -2 2 52.33 35.78 10.63 o
2944 6 -3 2 2 80.53 37.16 4.49 o
2945 6 -3 -2 2 79.23 42.40 3.92 o
2946 6 0 2 2 142.41 120.39 4.72 o
2947 6 0 -2 2 142.21 123.99 5.20 o
2948 6 1 2 2 108.46 116.38 6.07 o
2949 6 1 -2 2 109.66 100.16 6.38 o
2950 6 2 2 2 121.46 122.07 7.03 o
2950 1 -2 -2 -2 121.46 122.07 7.03 o
2951 6 2 -2 2 121.46 134.26 9.34 o
2951 1 -2 2 -2 121.46 134.26 9.34 o
2952 6 3 2 2 14.06 19.13 3.08 o
2953 6 3 -2 2 14.07 18.78 3.99 o
2954 6 4 2 2 1.51 2.29 1.15 <
2955 6 4 -2 2 1.49 0.92 1.36 <
2956 6 5 2 2 2.80 5.14 1.82 <
2957 6 5 -2 2 2.84 3.19 2.35 <
2958 6 -6 3 2 1.56 2.51 1.36 <
2959 6 -6 -3 2 1.57 0.83 1.22 <
2960 6 -5 3 2 22.10 15.14 3.43 o
2961 6 -5 -3 2 22.23 9.78 4.79 <
2962 6 -4 3 2 0.61 0.17 0.63 <
2963 6 -4 -3 2 0.60 -0.25 0.63 <
2964 6 -3 3 2 39.19 37.60 10.26 o
2965 6 -3 -3 2 39.16 30.59 7.16 o
2966 6 0 3 2 221.01 231.86 9.05 o
2967 6 0 -3 2 221.00 205.94 9.35 o
2968 6 1 3 2 141.14 132.38 8.41 o
2969 6 1 -3 2 141.26 171.30 9.99 o
2970 6 2 3 2 15.56 43.43 5.19 o
2970 1 -2 -3 -2 15.56 43.43 5.19 o
2971 6 2 -3 2 15.56 14.33 3.22 o
2971 1 -2 3 -2 15.56 14.33 3.22 o
2972 6 3 3 2 33.31 32.73 4.58 o
2973 6 3 -3 2 33.12 29.86 4.65 o
2974 6 4 3 2 7.54 13.73 3.30 o
2975 6 4 -3 2 7.50 10.15 3.34 o
2976 6 5 3 2 0.81 2.33 1.65 <
2977 6 5 -3 2 0.82 1.34 1.76 <
2978 6 -6 4 2 1.75 2.05 1.31 <
2979 6 -6 -4 2 1.74 2.02 1.61 <
2980 6 -5 4 2 1.15 0.70 1.24 <
2981 6 -5 -4 2 1.15 0.78 1.44 <
2982 6 -4 4 2 35.10 35.68 5.09 o
2983 6 -4 -4 2 35.10 29.88 7.87 o
2984 6 -3 4 2 30.24 11.76 5.88 <
2985 6 -1 4 2 139.27 143.65 7.62 o
2986 6 -1 -4 2 138.85 137.94 8.68 o
2987 6 0 4 2 7.73 9.14 2.04 o
2988 6 0 -4 2 7.72 8.97 2.31 o
2989 6 1 4 2 24.00 26.76 4.00 o
2990 6 1 -4 2 23.78 25.76 4.31 o
2991 6 2 4 2 151.31 194.51 12.73 o
2991 1 -2 -4 -2 151.31 194.51 12.73 o
2992 6 2 -4 2 151.31 174.57 13.25 o
2992 1 -2 4 -2 151.31 174.57 13.25 o
2993 6 3 4 2 3.99 3.97 1.96 <
2994 6 3 -4 2 4.01 3.50 1.93 <
2995 6 4 4 2 2.37 2.97 1.64 <
2996 6 4 -4 2 2.37 1.00 1.31 <
2997 6 -6 5 2 0.50 1.83 1.13 <
2998 6 -6 -5 2 0.50 2.26 3.16 <
2999 6 -5 5 2 4.83 7.41 2.32 o
3000 6 -5 -5 2 4.69 1.14 2.14 <
3001 6 -4 5 2 0.13 -0.23 1.16 <
3002 6 -4 -5 2 0.14 -0.64 1.41 <
3003 6 -2 5 2 35.72 16.90 3.61 o
3004 6 -1 5 2 14.63 23.07 3.21 o
3005 6 -1 -5 2 14.51 20.35 4.25 o
3006 6 0 5 2 64.76 54.37 6.18 o
3007 6 0 -5 2 64.63 58.15 7.07 o
3008 6 1 5 2 46.40 48.64 6.50 o
3009 6 1 -5 2 46.42 46.78 6.38 o
3010 6 2 5 2 12.80 20.96 4.32 o
3010 1 -2 -5 -2 12.80 20.96 4.32 o
3011 6 2 -5 2 12.80 16.51 4.17 o
3011 1 -2 5 -2 12.80 16.51 4.17 o
3012 6 3 5 2 8.94 10.81 3.52 o
3013 6 3 -5 2 9.14 8.89 3.82 <
3014 6 4 5 2 4.46 0.93 3.74 <
3015 6 4 -5 2 4.48 6.46 3.44 <
3016 6 -5 6 2 0.78 5.34 4.75 <
3017 6 -5 -6 2 0.81 -1.47 1.82 <
3018 6 -4 6 2 7.49 8.74 5.50 <
3019 6 -4 -6 2 7.48 6.27 3.51 <
3020 6 -2 6 2 6.33 4.89 2.44 <
3021 6 -1 6 2 43.90 44.17 5.70 o
3022 6 0 6 2 15.79 20.19 3.99 o
3023 6 0 -6 2 15.79 15.61 4.02 o
3024 6 1 6 2 8.57 8.17 3.44 <
3025 6 1 -6 2 8.32 14.19 3.73 o
3026 6 2 6 2 24.89 27.40 6.41 o
3026 1 -2 -6 -2 24.89 27.40 6.41 o
3027 6 2 -6 2 24.89 22.95 5.97 o
3027 1 -2 6 -2 24.89 22.95 5.97 o
3028 6 3 6 2 5.01 3.41 4.30 <
3029 6 3 -6 2 5.00 8.46 3.53 <
3030 6 -4 7 2 0.12 1.41 1.72 <
3031 6 -2 7 2 8.04 4.16 2.38 <
3032 6 -1 7 2 0.10 0.60 0.34 <
3033 6 0 7 2 7.25 0.98 1.74 <
3034 6 0 -7 2 7.39 2.49 1.99 <
3035 6 1 7 2 7.03 3.28 1.86 <
3036 6 1 -7 2 7.09 6.84 2.59 <
3037 6 2 7 2 1.00 0.79 1.50 <
3037 1 -2 -7 -2 1.00 0.79 1.50 <
3038 6 2 -7 2 1.00 0.87 1.02 <
3038 1 -2 7 -2 1.00 0.87 1.02 <
3039 6 3 7 2 3.68 1.01 3.36 <
3040 6 3 -7 2 3.70 1.69 1.15 <
3041 6 -2 8 2 1.42 0.44 0.80 <
3042 6 -1 8 2 13.92 10.08 3.66 <
3043 6 0 8 2 3.94 4.77 2.89 <
3044 6 0 -8 2 3.97 2.51 2.27 <
3045 6 1 8 2 2.40 1.45 3.14 <
3046 6 1 -8 2 2.47 3.02 1.30 <
3047 6 2 8 2 16.09 7.58 5.50 <
3047 1 -2 -8 -2 16.09 7.58 5.50 <
3048 6 2 -8 2 16.09 13.06 4.40 <
3048 1 -2 8 -2 16.09 13.06 4.40 <
3049 6 -7 0 3 1.02 -0.44 0.90 <
3050 6 -6 0 3 2.10 3.58 1.87 <
3051 6 -5 0 3 0.05 -0.12 0.46 <
3052 6 -4 0 3 4.85 1.07 1.10 <
3053 6 -7 1 3 1.97 0.78 0.69 <
3054 6 -7 -1 3 1.93 1.16 0.99 <
3055 6 -6 1 3 0.05 -0.59 0.81 <
3056 6 -6 -1 3 0.05 -0.14 0.83 <
3057 6 -5 1 3 1.26 2.12 1.63 <
3058 6 -5 -1 3 1.19 2.67 1.46 <
3059 6 -4 1 3 32.37 18.45 4.00 o
3060 6 -4 -1 3 32.35 17.14 3.47 o
3061 6 -7 2 3 0.14 -0.55 1.21 <
3062 6 -7 -2 3 0.13 -0.13 0.54 <
3063 6 -6 2 3 3.65 2.31 1.67 <
3064 6 -6 -2 3 3.64 2.53 2.66 <
3065 6 -5 2 3 5.65 1.35 1.73 <
3066 6 -5 -2 3 5.76 28.88 28.20 <
3067 6 -4 2 3 8.11 3.52 2.25 <
3068 6 -4 -2 3 7.89 5.20 1.58 o
3069 6 2 -2 3 12.02 17.93 3.18 o
3070 6 3 2 3 61.27 93.86 6.64 o
3070 1 -3 -2 -3 61.27 93.86 6.64 o
3071 6 3 -2 3 61.27 73.72 8.18 o
3071 1 -3 2 -3 61.27 73.72 8.18 o
3072 6 4 2 3 5.17 7.83 1.91 o
3073 6 4 -2 3 5.22 5.75 2.84 <
3074 6 -6 3 3 0.73 0.47 1.01 <
3075 6 -6 -3 3 0.73 -0.35 0.69 <
3076 6 -5 3 3 18.53 11.86 3.54 o
3077 6 -5 -3 3 18.37 11.98 6.44 <
3078 6 -4 3 3 14.42 3.10 2.64 <
3079 6 -4 -3 3 14.03 10.95 1.39 o
3080 6 -1 -3 3 141.43 160.42 5.64 o
3081 6 0 3 3 3.83 2.67 0.85 o
3082 6 0 -3 3 3.82 1.45 0.86 <
3083 6 1 3 3 39.31 41.18 3.94 o
3084 6 1 -3 3 39.79 33.36 4.40 o
3085 6 2 3 3 33.31 43.23 4.62 o
3086 6 2 -3 3 33.51 36.89 5.33 o
3087 6 3 3 3 5.43 12.98 2.71 o
3087 1 -3 -3 -3 5.43 12.98 2.71 o
3088 6 3 -3 3 5.43 10.49 3.32 o
3088 1 -3 3 -3 5.43 10.49 3.32 o
3089 6 4 3 3 5.21 8.39 2.50 o
3090 6 4 -3 3 5.21 9.41 3.49 <
3091 6 -6 4 3 4.98 75.79 72.68 <
3092 6 -6 -4 3 4.99 0.53 1.77 <
3093 6 -5 4 3 0.35 1.53 1.67 <
3094 6 -5 -4 3 0.33 0.71 0.97 <
3095 6 -1 4 3 19.89 25.91 2.57 o
3096 6 -1 -4 3 20.09 18.45 2.61 o
3097 6 0 4 3 77.29 91.66 5.93 o
3098 6 0 -4 3 77.18 87.34 6.81 o
3099 6 1 4 3 24.38 38.47 4.28 o
3100 6 1 -4 3 24.18 35.13 4.80 o
3101 6 2 4 3 0.32 -0.35 0.97 <
3102 6 2 -4 3 0.34 1.06 0.99 <
3103 6 3 4 3 21.25 40.36 5.51 o
3103 1 -3 -4 -3 21.25 40.36 5.51 o
3104 6 3 -4 3 21.25 34.60 6.14 o
3104 1 -3 4 -3 21.25 34.60 6.14 o
3105 6 4 4 3 1.66 3.81 2.04 <
3106 6 4 -4 3 1.62 3.11 2.51 <
3107 6 -6 5 3 0.32 0.07 1.26 <
3108 6 -6 -5 3 0.33 -0.91 2.15 <
3109 6 -5 5 3 5.66 4.34 2.16 <
3110 6 -5 -5 3 5.79 2.01 1.95 <
3111 6 -2 5 3 26.28 34.84 2.90 o
3112 6 -2 -5 3 26.53 20.03 3.67 o
3113 6 -1 5 3 42.26 50.23 4.48 o
3114 6 -1 -5 3 42.00 42.15 4.99 o
3115 6 0 5 3 0.57 0.69 0.61 <
3116 6 0 -5 3 0.56 1.60 1.19 <
3117 6 1 5 3 24.06 17.40 4.30 o
3118 6 1 -5 3 23.77 23.06 4.54 o
3119 6 2 5 3 15.52 10.17 4.43 <
3120 6 2 -5 3 15.34 20.35 4.85 o
3121 6 3 5 3 5.52 2.17 3.74 <
3121 1 -3 -5 -3 5.52 2.17 3.74 <
3122 6 3 -5 3 5.52 9.86 4.06 <
3122 1 -3 5 -3 5.52 9.86 4.06 <
3123 6 -5 6 3 0.92 1.64 1.80 <
3124 6 -2 6 3 6.56 7.67 1.90 o
3125 6 -1 6 3 7.42 17.56 2.96 o
3126 6 -1 -6 3 7.64 13.58 3.10 o
3127 6 0 6 3 25.40 20.01 4.06 o
3128 6 0 -6 3 25.46 16.94 3.60 o
3129 6 1 6 3 6.99 1.38 2.34 <
3130 6 1 -6 3 7.03 8.92 3.11 <
3131 6 2 6 3 2.92 5.48 3.00 <
3132 6 2 -6 3 2.97 5.93 2.87 <
3133 6 3 6 3 8.84 5.19 3.72 <
3133 1 -3 -6 -3 8.84 5.19 3.72 <
3134 6 3 -6 3 8.83 9.95 3.98 <
3134 1 -3 6 -3 8.83 9.95 3.98 <
3135 6 -3 7 3 0.18 1.41 0.95 <
3136 6 -2 7 3 9.78 10.18 2.63 o
3137 6 -1 7 3 7.25 4.19 1.86 <
3138 6 -1 -7 3 7.31 4.10 2.45 <
3139 6 0 7 3 6.07 5.93 2.63 <
3140 6 0 -7 3 6.08 9.15 2.81 o
3141 6 1 7 3 8.37 5.92 4.03 <
3142 6 1 -7 3 8.36 10.44 3.80 <
3143 6 2 7 3 4.11 1.45 2.27 <
3144 6 2 -7 3 4.11 3.29 2.02 <
3145 6 -3 8 3 7.98 5.76 2.42 <
3146 6 -2 8 3 3.07 6.20 2.14 <
3147 6 -1 8 3 2.65 5.35 2.47 <
3148 6 -1 -8 3 2.57 2.41 2.21 <
3149 6 0 8 3 12.49 5.87 4.28 <
3150 6 0 -8 3 12.50 19.04 6.05 o
3151 6 1 8 3 5.04 1.25 3.05 <
3152 6 1 -8 3 5.03 6.68 3.30 <
3153 6 -7 0 4 0.30 -0.42 1.07 <
3154 6 -6 0 4 2.09 -1.16 1.35 <
3155 6 -5 0 4 9.14 8.30 4.87 <
3156 6 -7 1 4 0.50 1.46 1.37 <
3157 6 -7 -1 4 0.50 115.31 113.74 <
3158 6 -6 1 4 2.20 1.60 2.05 <
3159 6 -6 -1 4 2.20 -2.65 3.09 <
3160 6 -5 1 4 1.88 -0.23 1.73 <
3161 6 -5 -1 4 1.88 -0.67 0.93 <
3162 6 -7 2 4 0.06 -0.15 0.84 <
3163 6 -7 -2 4 0.06 0.20 0.97 <
3164 6 -6 2 4 0.09 0.00 1.21 <
3165 6 -6 -2 4 0.09 1.03 1.61 <
3166 6 -5 2 4 15.07 1.34 4.48 <
3167 6 -5 -2 4 14.91 6.86 3.16 <
3168 6 -4 -2 4 1.21 1.75 1.64 <
3169 6 -6 3 4 0.97 0.27 1.62 <
3170 6 -6 -3 4 0.96 1.14 1.93 <
3171 6 -5 -3 4 1.19 0.84 0.78 <
3172 6 -4 -3 4 0.07 0.64 0.73 <
3173 6 2 -3 4 4.99 6.45 2.23 <
3174 6 3 -3 4 6.25 9.62 3.21 <
3175 6 -6 4 4 3.08 1.54 1.65 <
3176 6 -6 -4 4 3.07 2.01 0.71 <
3177 6 -5 -4 4 5.95 9.94 1.23 o
3178 6 -2 -4 4 80.14 86.82 4.25 o
3179 6 -1 -4 4 19.19 18.86 2.71 o
3180 6 0 -4 4 0.18 0.49 0.71 <
3181 6 1 4 4 9.96 4.59 2.25 <
3182 6 1 -4 4 9.90 7.04 2.23 o
3183 6 2 4 4 13.52 15.37 3.79 o
3184 6 2 -4 4 13.53 19.68 4.35 o
3185 6 3 4 4 0.03 0.45 0.78 <
3186 6 3 -4 4 0.03 3.21 2.54 <
3187 6 -6 5 4 1.89 -1.61 1.42 <
3188 6 -2 -5 4 4.94 6.25 1.59 o
3189 6 -1 5 4 26.33 33.78 3.33 o
3190 6 -1 -5 4 26.74 21.49 3.36 o
3191 6 0 5 4 9.51 5.53 1.67 o
3192 6 0 -5 4 9.57 6.84 1.58 o
3193 6 1 5 4 2.65 39.58 11.43 o
3194 6 1 -5 4 2.62 70.88 15.14 o
3195 6 2 5 4 6.29 9.17 3.10 <
3196 6 2 -5 4 6.34 15.99 4.26 o
3197 6 -2 6 4 13.81 26.59 2.50 o
3198 6 -2 -6 4 13.70 11.62 2.81 o
3199 6 -1 6 4 8.51 16.99 3.85 o
3200 6 -1 -6 4 8.52 7.14 2.49 <
3201 6 0 6 4 2.28 4.93 1.87 <
3202 6 0 -6 4 2.27 2.77 1.49 <
3203 6 1 6 4 17.35 32.22 5.20 o
3204 6 1 -6 4 17.24 16.18 4.85 o
3205 6 2 6 4 3.64 2.19 2.45 <
3206 6 2 -6 4 3.56 1.66 1.21 <
3207 6 -3 7 4 11.04 31.47 2.63 o
3208 6 -2 7 4 0.65 1.00 0.46 <
3209 6 -2 -7 4 0.66 0.85 2.35 <
3210 6 -1 7 4 7.48 10.11 2.74 o
3211 6 -1 -7 4 7.44 10.93 3.29 o
3212 6 0 7 4 23.06 32.37 5.96 o
3213 6 0 -7 4 23.01 45.07 6.83 o
3214 6 1 7 4 1.09 0.20 1.21 <
3215 6 1 -7 4 1.08 3.89 2.47 <
3216 6 -2 8 4 5.24 9.22 2.12 o
3217 6 -2 -8 4 5.27 6.51 2.98 <
3218 6 -1 8 4 3.74 5.23 1.51 o
3219 6 -1 -8 4 3.74 10.96 7.03 <
3220 6 -7 0 5 12.06 -0.64 0.76 <
3220 5 -3 0 -5 12.06 -0.64 0.76 <
3221 6 -6 0 5 13.91 -0.25 0.43 <
3221 5 -2 0 -5 13.91 -0.25 0.43 <
3222 6 -7 1 5 3.29 -2.10 2.00 <
3222 5 -3 -1 -5 3.29 -2.10 2.00 <
3223 6 -7 -1 5 3.29 0.30 0.93 <
3223 5 -3 1 -5 3.29 0.30 0.93 <
3224 6 -6 1 5 2.81 -0.20 0.88 <
3224 5 -2 -1 -5 2.81 -0.20 0.88 <
3225 6 -6 -1 5 2.92 -9.19 6.55 <
3225 5 -2 1 -5 2.92 -9.19 6.55 <
3226 6 -7 2 5 3.32 -0.76 1.31 <
3226 5 -3 -2 -5 3.32 -0.76 1.31 <
3227 6 -7 -2 5 3.43 1.13 1.41 <
3227 5 -3 2 -5 3.43 1.13 1.41 <
3228 6 -6 -2 5 7.37 0.09 0.64 <
3228 5 -2 2 -5 7.37 0.09 0.64 <
3229 6 -5 -2 5 1.76 0.26 0.32 <
3229 5 -1 2 -5 1.76 0.26 0.32 <
3230 6 -6 -3 5 9.92 1.66 1.57 <
3230 5 -2 3 -5 9.92 1.66 1.57 <
3231 6 -5 -3 5 18.24 4.80 2.77 <
3231 5 -1 3 -5 18.24 4.80 2.77 <
3232 6 -6 -4 5 8.13 1.35 0.68 <
3232 5 -2 4 -5 8.13 1.35 0.68 <
3233 6 -5 -4 5 1.50 -0.03 0.05 <
3233 5 -1 4 -5 1.50 -0.03 0.05 <
3234 6 -3 -5 5 17.05 12.28 1.65 o
3234 5 1 5 -5 17.05 12.28 1.65 o
3235 6 -2 -5 5 43.61 42.36 4.25 o
3235 5 2 5 -5 43.61 42.36 4.25 o
3236 6 -1 -5 5 18.94 9.48 2.58 o
3236 5 3 5 -5 18.94 9.48 2.58 o
3237 6 0 -5 5 4.88 5.13 2.03 <
3237 5 4 5 -5 4.88 5.13 2.03 <
3238 6 1 -5 5 11.11 12.56 3.55 o
3238 5 5 5 -5 11.11 12.56 3.55 o
3239 6 -3 -6 5 23.29 31.55 3.30 o
3239 5 1 6 -5 23.29 31.55 3.30 o
3240 6 -2 -6 5 5.28 10.26 2.14 o
3240 5 2 6 -5 5.28 10.26 2.14 o
3241 6 -1 -6 5 20.23 28.62 4.51 o
3241 5 3 6 -5 20.23 28.62 4.51 o
3242 6 0 6 5 19.51 31.26 4.47 o
3242 5 4 -6 -5 19.51 31.26 4.47 o
3243 6 0 -6 5 19.49 25.54 5.01 o
3243 5 4 6 -5 19.49 25.54 5.01 o
3244 6 -3 -7 5 3.24 2.93 1.45 <
3244 5 1 7 -5 3.24 2.93 1.45 <
3245 6 -2 -7 5 5.45 7.92 2.08 o
3245 5 2 7 -5 5.45 7.92 2.08 o
3246 6 -1 7 5 3.49 7.39 1.87 o
3246 5 3 -7 -5 3.49 7.39 1.87 o
3247 6 -1 -7 5 3.48 3.62 1.85 <
3247 5 3 7 -5 3.48 3.62 1.85 <
3248 6 -6 -3 6 1.81 0.98 2.16 <
3249 6 -3 -6 6 3.09 5.15 1.29 o
3250 6 -2 -6 6 2.49 3.69 1.48 <
