#------------------------------------------------------------------------------
#$Date: 2016-11-08 22:10:40 +0200 (Tue, 08 Nov 2016) $
#$Revision: 188251 $
#$URL: file:///home/coder/svn-repositories/cod/cif/7/22/60/7226098.cif $
#------------------------------------------------------------------------------
#
# This file is available in the Crystallography Open Database (COD),
# http://www.crystallography.net/
#
# All data on this site have been placed in the public domain by the
# contributors.
#
data_7226098
loop_
_publ_author_name
'S\/olvh\/oj, Amanda'
'Taarning, Esben'
'Madsen, Robert'
_publ_section_title
;
 Methyl vinyl glycolate as a diverse platform molecule
;
_journal_issue                   20
_journal_name_full               'Green Chem.'
_journal_page_first              5448
_journal_paper_doi               10.1039/C6GC01556E
_journal_volume                  18
_journal_year                    2016
_chemical_formula_moiety         'C8 H12 O6'
_chemical_formula_sum            'C8 H12 O6'
_chemical_formula_weight         204.18
_chemical_name_systematic
;
 dimethyl (2R,5S,E)-2,5-dihydroxyhex-3-enedioate
;
_space_group_crystal_system      monoclinic
_space_group_IT_number           14
_space_group_name_Hall           '-P 2ybc'
_space_group_name_H-M_alt        'P 1 21/c 1'
_symmetry_space_group_name_Hall  '-P 2ybc'
_symmetry_space_group_name_H-M   'P 1 21/c 1'
_atom_sites_solution_hydrogens   geom
_atom_sites_solution_primary     direct
_audit_creation_date             2016-05-20
_audit_creation_method
;
Olex2 1.2
(compiled 2014.09.19 svn.r3010 for OlexSys, GUI svn.r4874)
;
_audit_update_record
;
2016-05-20 deposited with the CCDC.
2016-08-02 downloaded from the CCDC.
;
_cell_angle_alpha                90
_cell_angle_beta                 96.896(8)
_cell_angle_gamma                90
_cell_formula_units_Z            2
_cell_length_a                   7.8642(8)
_cell_length_b                   4.0675(3)
_cell_length_c                   14.5155(13)
_cell_measurement_reflns_used    1580
_cell_measurement_temperature    120(2)
_cell_measurement_theta_max      61.9150
_cell_measurement_theta_min      5.6220
_cell_volume                     460.96(7)
_computing_cell_refinement
;
CrysAlisPro, Agilent Technologies,
Version 1.171.37.34 (release 22-05-2014 CrysAlis171 .NET)
(compiled May 22 2014,16:03:01)
;
_computing_data_collection
;
CrysAlisPro, Agilent Technologies,
Version 1.171.37.34 (release 22-05-2014 CrysAlis171 .NET)
(compiled May 22 2014,16:03:01)
;
_computing_data_reduction
;
CrysAlisPro, Agilent Technologies,
Version 1.171.37.34 (release 22-05-2014 CrysAlis171 .NET)
(compiled May 22 2014,16:03:01)
;
_computing_molecular_graphics    'Olex2 (Dolomanov et al., 2009)'
_computing_publication_material  'Olex2 (Dolomanov et al., 2009)'
_computing_structure_refinement  'ShelXL (Sheldrick, 2008)'
_computing_structure_solution    'ShelXS (Sheldrick, 2008)'
_diffrn_ambient_temperature      120(2)
_diffrn_detector                 'CCD plate'
_diffrn_detector_area_resol_mean 5.3073
_diffrn_detector_type            Atlas
_diffrn_measured_fraction_theta_full 0.867
_diffrn_measured_fraction_theta_max 0.989
_diffrn_measurement_details
;
  1 omega  -26.00   71.00   1.0000    1.0000
omega____ theta____ kappa____ phi______ frames
    -        0.0000   57.0000  120.0000 97

  2 omega   50.00   80.00   1.0000    1.0000
omega____ theta____ kappa____ phi______ frames
    -       82.2811   76.0000  161.1919 30

  3 omega   60.00   87.00   1.0000    1.0000
omega____ theta____ kappa____ phi______ frames
    -       82.2811   45.0000  120.0000 27

  4 omega   97.00  140.00   1.0000    1.0000
omega____ theta____ kappa____ phi______ frames
    -       82.2811   77.0000  150.0000 43

  5 omega  123.00  158.00   1.0000    1.0000
omega____ theta____ kappa____ phi______ frames
    -       82.2811   77.0000  120.0000 35

  6 omega  100.00  129.00   1.0000    1.0000
omega____ theta____ kappa____ phi______ frames
    -       82.2811  125.0000  -60.0000 29

  7 omega  104.00  153.00   1.0000    1.0000
omega____ theta____ kappa____ phi______ frames
    -       82.2811   77.0000 -120.0000 49

  8 omega  102.00  156.00   1.0000    1.0000
omega____ theta____ kappa____ phi______ frames
    -       82.2811   77.0000 -150.0000 54

  9 omega   64.00  107.00   1.0000    1.0000
omega____ theta____ kappa____ phi______ frames
    -       82.2811   45.0000 -120.0000 43

 10 omega   55.00   81.00   1.0000    1.0000
omega____ theta____ kappa____ phi______ frames
    -       82.2811   61.0000 -150.0000 26

 11 omega   58.00   85.00   1.0000    1.0000
omega____ theta____ kappa____ phi______ frames
    -       82.2811   77.0000 -180.0000 27

 12 omega   50.00   77.00   1.0000    1.0000
omega____ theta____ kappa____ phi______ frames
    -       82.2811   77.0000 -150.0000 27

 13 omega   56.00   82.00   1.0000    1.0000
omega____ theta____ kappa____ phi______ frames
    -       82.2811   59.0000 -156.5093 26

 14 omega    9.00   41.00   1.0000    1.0000
omega____ theta____ kappa____ phi______ frames
    -        0.0000   38.0000 -180.0000 32

 15 omega  -63.00  -35.00   1.0000    1.0000
omega____ theta____ kappa____ phi______ frames
    -        0.0000  178.0000 -150.0000 28

 16 omega   53.00  135.00   1.0000    1.0000
omega____ theta____ kappa____ phi______ frames
    -       82.2811   61.0000  120.0000 82

 17 omega   50.00   77.00   1.0000    1.0000
omega____ theta____ kappa____ phi______ frames
    -       82.2811   77.0000  120.0000 27

 18 omega   50.00   76.00   1.0000    1.0000
omega____ theta____ kappa____ phi______ frames
    -       82.2811   75.0000  146.7648 26

 19 omega   50.00   77.00   1.0000    1.0000
omega____ theta____ kappa____ phi______ frames
    -       82.2811   77.0000  150.0000 27

 20 omega    7.00  115.00   1.0000    1.0000
omega____ theta____ kappa____ phi______ frames
    -       82.2811  -77.0000   30.0000 108

 21 omega   84.00  117.00   1.0000    1.0000
omega____ theta____ kappa____ phi______ frames
    -       82.2811 -125.0000    0.0000 33

 22 omega   23.00   78.00   1.0000    1.0000
omega____ theta____ kappa____ phi______ frames
    -       82.2811 -125.0000    0.0000 55

 23 omega  -67.00  -38.00   1.0000    1.0000
omega____ theta____ kappa____ phi______ frames
    -        0.0000 -178.0000 -120.0000 29
;
_diffrn_measurement_device       'four-circle diffractometer'
_diffrn_measurement_device_type  'SuperNova, Dual, Cu at zero, Atlas'
_diffrn_measurement_method       '\w scans'
_diffrn_orient_matrix_UB_11      0.1548777000
_diffrn_orient_matrix_UB_12      -0.1027747000
_diffrn_orient_matrix_UB_13      0.0692151000
_diffrn_orient_matrix_UB_21      0.1162644000
_diffrn_orient_matrix_UB_22      0.0188114000
_diffrn_orient_matrix_UB_23      -0.0779459000
_diffrn_orient_matrix_UB_31      0.0378064000
_diffrn_orient_matrix_UB_32      0.3642186000
_diffrn_orient_matrix_UB_33      0.0235699000
_diffrn_radiation_monochromator  mirror
_diffrn_radiation_probe          x-ray
_diffrn_radiation_type           CuK\a
_diffrn_radiation_wavelength     1.54184
_diffrn_reflns_av_R_equivalents  0.0483
_diffrn_reflns_av_unetI/netI     0.0366
_diffrn_reflns_Laue_measured_fraction_full 0.867
_diffrn_reflns_Laue_measured_fraction_max 0.989
_diffrn_reflns_limit_h_max       8
_diffrn_reflns_limit_h_min       -8
_diffrn_reflns_limit_k_max       4
_diffrn_reflns_limit_k_min       -4
_diffrn_reflns_limit_l_max       16
_diffrn_reflns_limit_l_min       -15
_diffrn_reflns_number            2509
_diffrn_reflns_point_group_measured_fraction_full 0.867
_diffrn_reflns_point_group_measured_fraction_max 0.989
_diffrn_reflns_theta_full        67.684
_diffrn_reflns_theta_max         62.182
_diffrn_reflns_theta_min         5.667
_diffrn_source                   'sealed X-ray tube'
_diffrn_source_type              'SuperNova (Cu) X-ray Source'
_exptl_absorpt_coefficient_mu    1.107
_exptl_absorpt_correction_T_max  1.00000
_exptl_absorpt_correction_T_min  0.76404
_exptl_absorpt_correction_type   multi-scan
_exptl_absorpt_process_details
;
CrysAlisPro, Agilent Technologies,
Version 1.171.37.34 (release 22-05-2014 CrysAlis171 .NET)
(compiled May 22 2014,16:03:01)
Empirical absorption correction using spherical harmonics,
 implemented in SCALE3 ABSPACK scaling algorithm.
;
_exptl_crystal_colour            'clear light colourless'
_exptl_crystal_colour_lustre     clear
_exptl_crystal_colour_modifier   light
_exptl_crystal_colour_primary    colourless
_exptl_crystal_density_diffrn    1.471
_exptl_crystal_description       needle
_exptl_crystal_F_000             216
_exptl_crystal_size_max          0.369
_exptl_crystal_size_mid          0.07
_exptl_crystal_size_min          0.065
_refine_diff_density_max         0.333
_refine_diff_density_min         -0.418
_refine_diff_density_rms         0.083
_refine_ls_extinction_method     none
_refine_ls_goodness_of_fit_ref   1.268
_refine_ls_hydrogen_treatment    constr
_refine_ls_matrix_type           full
_refine_ls_number_parameters     66
_refine_ls_number_reflns         721
_refine_ls_number_restraints     0
_refine_ls_restrained_S_all      1.268
_refine_ls_R_factor_all          0.0600
_refine_ls_R_factor_gt           0.0553
_refine_ls_shift/su_max          0.000
_refine_ls_shift/su_mean         0.000
_refine_ls_structure_factor_coef Fsqd
_refine_ls_weighting_details
;
 w=1/[\s^2^(Fo^2^)+(0.0485P)^2^+1.6038P]
 where P=(Fo^2^+2Fc^2^)/3
;
_refine_ls_weighting_scheme      calc
_refine_ls_wR_factor_gt          0.1654
_refine_ls_wR_factor_ref         0.1685
_reflns_Friedel_coverage         0.000
_reflns_number_gt                644
_reflns_number_total             721
_reflns_threshold_expression     'I > 2\s(I)'
_cod_data_source_file            c6gc01556e2.cif
_cod_data_source_block           1046
_cod_depositor_comments          'Adding full bibliography for 7226098.cif.'
_cod_database_code               7226098
_shelxl_version_number           2013-2
_chemical_oxdiff_formula         'C10 N10 O10 H10'
_shelx_space_group_comment
;
The symmetry employed for this shelxl refinement is uniquely defined
by the following loop, which should always be used as a source of
symmetry information in preference to the above space-group names.
They are only intended as comments.
;
_reflns_odcompleteness_completeness 100.00
_reflns_odcompleteness_iscentric 1
_reflns_odcompleteness_theta     58.86
_olex2_refinement_description
;
1. Fixed Uiso
 At 1.2 times of:
  All C(H) groups
 At 1.5 times of:
  All C(H,H,H) groups, All O(H) groups
2.a Ternary CH refined with riding coordinates:
 C2(H2)
2.b Aromatic/amide H refined with riding coordinates:
 C1(H1A)
2.c Idealised Me refined as rotating group:
 C4(H4A,H4B,H4C)
2.d Idealised tetrahedral OH refined as rotating group:
 O1(H1)
;
_shelx_res_file
;
TITL 1046 in P21/c #14
CELL 1.54184 7.864223 4.067546 14.515503 90 96.8963 90
ZERR 2 0.000778 0.00032 0.00129 0 0.0081 0
LATT 1
SYMM -X,0.5+Y,0.5-Z

SFAC C H O
UNIT 16 24 12

L.S. 4
PLAN  20
REM reset to P21/c #14
BOND $H
MORE -1
CONF
fmap 2
acta
REM <HKL>//dtu-storage/phha/Documents/Supernova/Amanda/1046/struct/olex2_1046/
REM 1046.hkl</HKL>

WGHT    0.048500    1.603800
FVAR      15.62931
O2    3    0.767476    0.084404    0.796976    11.00000    0.01407    0.02848 =
         0.01465    0.00770    0.00448    0.00008
O1    3    0.435680   -0.017375    0.827219    11.00000    0.01105    0.02515 =
         0.01148   -0.00163   -0.00346    0.00107
AFIX 147
H1    2    0.394735   -0.139099    0.785277    11.00000   -1.50000
AFIX   0
O3    3    0.861196   -0.267638    0.910544    11.00000    0.00755    0.02538 =
         0.01405    0.00438    0.00250    0.00335
C3    1    0.739591   -0.104126    0.857551    11.00000    0.01532    0.01556 =
         0.00757   -0.00529    0.00081    0.00137
C1    1    0.556862   -0.101165    0.985324    11.00000    0.00665    0.01729 =
         0.01179    0.00175    0.00066   -0.00288
AFIX  43
H1A   2    0.637794   -0.196236    1.029323    11.00000   -1.20000
AFIX   0
C2    1    0.562904   -0.186620    0.884670    11.00000    0.01028    0.01479 =
         0.01081    0.00110    0.00084   -0.00133
AFIX  13
H2    2    0.543306   -0.423345    0.876564    11.00000   -1.20000
AFIX   0
C4    1    1.034679   -0.216320    0.888315    11.00000    0.00731    0.03426 =
         0.02106    0.00189    0.00309    0.00329
AFIX 137
H4A   2    1.044580   -0.302087    0.827575    11.00000   -1.50000
H4B   2    1.114124   -0.327683    0.933161    11.00000   -1.50000
H4C   2    1.059859    0.014689    0.889535    11.00000   -1.50000
AFIX   0
HKLF 4

REM  1046 in P21/c #14
REM R1 =  0.0553 for     644 Fo > 4sig(Fo)  and  0.0600 for all     721 data
REM     66 parameters refined using      0 restraints

END

WGHT      0.0485      1.6038

REM Highest difference peak  0.333,  deepest hole -0.418,  1-sigma level  0.083
Q1    1   1.1458  0.2457  0.9510  11.00000  0.05    0.33
Q2    1   0.8582 -0.2529  0.7870  11.00000  0.05    0.31
Q3    1   1.0630 -0.2654  0.9613  11.00000  0.05    0.28
Q4    1   1.1529  0.2550  0.8339  11.00000  0.05    0.27
Q5    1   0.5476 -0.1114  0.9281  11.00000  0.05    0.25
Q6    1   0.4653  0.1984  0.8537  11.00000  0.05    0.25
Q7    1   0.5931 -0.0591  0.7291  11.00000  0.05    0.24
Q8    1   0.9906  0.2604  0.8902  11.00000  0.05    0.21
Q9    1   0.2299 -0.1143  0.8081  11.00000  0.05    0.20
Q10   1   0.5311 -0.1954  0.7657  11.00000  0.05    0.20
Q11   1   1.0756 -0.4447  0.9005  11.00000  0.05    0.19
Q12   1   0.4613 -0.3101  1.0378  11.00000  0.05    0.19
Q13   1   0.4504 -0.5548  0.8334  11.00000  0.05    0.18
Q14   1   0.8604  0.2992  0.8467  11.00000  0.05    0.18
Q15   1   0.7179 -0.1010  1.1154  11.00000  0.05    0.17
Q16   1   0.7668  0.0508  1.0511  11.00000  0.05    0.17
Q17   1   1.3186 -0.3932  0.9762  11.00000  0.05    0.17
Q18   1   0.9847  0.1412  0.9811  11.00000  0.05    0.17
Q19   1   0.7053 -0.2686  1.0280  11.00000  0.05    0.17
Q20   1   0.6501 -0.1418  0.8729  11.00000  0.05    0.17
;
_shelx_res_checksum              85904
_shelx_hkl_file
;
   0   0  -1 19.2832 29.7756  14
   0   0  -2 5725.26 374.144  14
   0   0   2 6684.69 398.175  14
   0   0  -2 6998.84 521.959   1
   0   0  -3 38.3421 110.519   1
   0   0   3 43.3063 64.3270  14
   0   0  -3-27.8893 68.1478  14
   0   0  -4 611464. 8314.72   1
   0   0   4 631593. 7070.60  14
   0   0  -5-23.2537 178.051   1
   0   0  -6 43715.3 2354.05   1
   0   0   7 97.1560 163.247  16
   0   0   8 25027.4 1872.56  16
   0   0   9 13.2524 231.809  16
   0   0  10 200893. 5923.63  16
   0   0  11 235.164 405.460  16
   0   0  12 389.084 350.688  16
   0   0  13 145.739 212.958  16
   0   0  14 3802.58 828.722  16
   0   0  15-237.708 228.097  16
   0   0  15 345.418 279.889  22
   0   0  15-74.2711 169.467   5
   0   0  16 814.702 456.400  22
   0  -1   0 19.0556 53.9718   1
   0  -1   0 71.5996 82.3889  14
   0   1   0-40.7099 65.3773   1
   0  -1  -1 540552. 5363.19   1
   0  -1   1 536860. 6188.77  14
   0  -1  -1 536836. 4977.69  14
   0  -1   1 535065. 6018.67   1
   0   1  -1 551107. 5900.29   1
   0  -1  -2 994490. 9140.81  15
   0   1  -2 994653. 9722.03   1
   0  -1   2 999999. 10202.0  14
   0  -1   2 991487. 10480.7   1
   0  -1  -2 968539. 9005.32  23
   0  -1  -3 413912. 4917.77  23
   0  -1   3 415466. 6731.68   1
   0  -1   3 438780. 6266.89  14
   0   1  -3 433673. 6022.00   1
   0  -1  -3 416715. 5037.72  15
   0   1  -4 224150. 4631.71   1
   0  -1   4 238548. 4808.96  14
   0   1  -5 297557. 5838.54   1
   0  -1   5 312650. 6008.32  14
   0  -1   6 274597. 6675.44  16
   0   1   6 239359. 5028.66  22
   0  -1  -6 293165. 6348.96   1
   0  -1   6 231041. 7424.71  17
   0   1  -7 17039.2 1236.61   7
   0   1   7 20422.6 1501.26  22
   0  -1   7 14594.6 1457.41  19
   0   1  -7 16408.3 1221.40  20
   0  -1   7 22317.4 2363.96  17
   0   1   7 13623.0 1053.88  16
   0  -1   7 13461.0 1485.62  16
   0  -1   7 16297.5 1605.36  18
   0  -1   8 54345.5 3171.35  18
   0  -1   8 67345.1 4393.54  17
   0   1  -8 53660.5 2472.77  20
   0  -1   8 62486.6 3410.25  16
   0   1  -8 49412.3 2315.50   7
   0  -1   8 44919.9 2763.44  19
   0   1   8 60028.9 2850.11  22
   0  -1   8 50676.8 2583.06   2
   0   1   8 53415.4 2302.26  16
   0  -1   9 178.301 366.969  19
   0  -1   9 295.992 360.342  16
   0   1   9 426.046 286.446  22
   0  -1   9 8.43377 177.445   2
   0   1   9-43.3083 121.482  16
   0   1  -9 383.019 268.867   7
   0  -1  10 7722.96 1108.57  19
   0   1  10 6939.80 961.099  16
   0   1  10 8848.88 1018.28   5
   0  -1  10 10298.2 1482.42  16
   0  -1  10 12504.1 1529.43  18
   0   1 -10 8342.62 1006.54   7
   0   1  10 11491.6 1431.29  22
   0   1  11 10545.3 1424.68  22
   0  -1  11 9399.08 1477.55  16
   0   1  11 6136.90 958.055  16
   0   1  11 7296.85 970.624   5
   0  -1  12 23391.5 2237.41  16
   0   1  12 21261.2 2094.92  22
   0   1  13 1541.16 571.342  22
   0  -1  13 1625.66 667.785  16
   0   1  14 16882.3 1818.76  22
   0  -1  14 16048.7 1765.70  16
   0   1  15 13162.0 1585.93  22
   0  -1  15 13390.8 1478.41  16
   0  -1  16 1866.21 540.939  16
   0   1  16 575.905 313.217  22
   0   2   0 3521.98 544.636  21
   0  -2   0 2986.16 443.086   1
   0   2  -1 2084.10 450.500  21
   0  -2  -1 2523.45 377.483   1
   0  -2   1 2685.87 486.938   1
   0   2  -1 1621.55 333.151   1
   0   2  -1 2006.79 427.940  20
   0   2   2 148693. 3903.62  22
   0  -2   2 135611. 3974.22   1
   0   2  -2 148250. 3850.26   6
   0   2  -2 137956. 3826.41  20
   0   2  -2 137456. 3498.15   1
   0  -2   3 84727.9 3456.68   1
   0   2  -3 78648.8 2935.99  20
   0   2  -3 91811.9 3054.94   6
   0   2  -3 97358.7 3131.07  21
   0   2   3 83016.1 2933.76  22
   0   2   4 89741.9 3168.25  22
   0   2  -4 83290.3 3150.11  20
   0  -2   4 91286.4 4026.94  16
   0   2  -5 34550.5 2078.66  20
   0  -2   5 30778.7 3088.29  17
   0   2  -5 36814.9 2057.78   6
   0   2   5 35793.3 2077.47  22
   0  -2   5 34453.7 2535.59  16
   0   2   6 270562. 6300.94  22
   0   2  -6 288228. 6249.78   6
   0  -2   6 266778. 7429.33  16
   0   2  -6 263244. 6162.56  20
   0  -2   6 259453. 9282.25  17
   0  -2   7 8824.59 2246.60  18
   0   2   7 10304.7 1387.76  22
   0   2  -7 5821.54 924.299   6
   0  -2   7 5821.19 1458.20  16
   0  -2   8 42860.1 3162.60  19
   0   2   8 50956.3 2962.82  22
   0  -2   8 60557.8 4695.93  17
   0   2  -8 55282.2 2884.07  20
   0  -2   8 46064.7 3391.31  18
   0   2  -8 40151.7 2368.45   6
   0  -2   8 53455.2 3411.87  16
   0   2  -9 111156. 4225.94  20
   0  -2   9 85660.4 4200.61   2
   0  -2   9 103117. 5133.51  18
   0  -2   9 88851.9 4632.48  19
   0  -2   9 133670. 7020.82  17
   0   2   9 106525. 4451.58  22
   0   2  -9 107061. 3935.56   6
   0  -2   9 111295. 5084.31  16
   0  -2  10 20972.9 2015.47   2
   0   2  10 24112.6 2204.82  22
   0  -2  10 22132.8 2350.95  18
   0  -2  10 23206.9 2290.23  19
   0  -2  10 23943.4 2353.45  16
   0  -2  11 6.77094 171.968   2
   0  -2  11 48.2516 342.019  18
   0   2  11-110.223 228.647  22
   0  -2  11 277.687 363.778  16
   0  -2  11 274.139 302.527  19
   0   2  12 1729.10 636.354  22
   0  -2  12 1963.87 675.574  16
   0   2  13 5183.38 981.786  22
   0  -2  13 5365.19 1008.06  16
   0  -2  14 5374.58 912.353  16
   0   2  14 4135.07 831.681  22
   0   3   0-267.904 237.964  21
   0   3   0 265.695 274.284  20
   0   3  -1 4337.02 824.421  20
   0   3   1 4119.84 791.082  20
   0   3  -1 5023.17 866.294  21
   0   3   1 4639.23 836.810  21
   0   3  -2 24121.5 1892.17  21
   0   3   2 22163.9 1824.81  21
   0   3  -2 22697.3 1861.21  20
   0   3  -3 4329.88 862.410  20
   0   3   3 4504.12 828.588  21
   0  -3   3 2096.11 892.409  17
   0  -3   4 1983.54 822.866  17
   0   3  -4 3190.60 811.955  20
   0   3  -5 17799.9 1750.00  20
   0  -3   5 18985.7 2690.45  17
   0  -3   6 341.116 542.604  17
   0  -3   6-582.452 794.307  18
   0   3  -6 323.155 369.898  20
   0   3   6 386.863 389.215  22
   0  -3   7 6575.20 1363.70  19
   0   3  -7 9491.78 1281.48  20
   0   3   7 8238.68 1296.11  22
   0  -3   7 5080.19 1235.28  18
   0  -3   7 7288.69 1650.44  17
   0   3   8 135707. 5238.88  22
   0  -3   8 126222. 5846.27  19
   0  -3   8 137194. 6218.52  18
   0  -3   8 174635. 7829.79  17
   0  -3   8 125678. 5466.11   2
   0  -3   8 117688. 4768.01  16
   0   3  -8 156909. 5285.43  20
   0  -3   9 44030.6 3374.64  18
   0  -3   9 37931.3 3069.14  19
   0  -3   9 33377.5 2701.54   2
   0   3  -9 47574.2 2836.01  20
   0  -3   9 44477.4 2861.74  16
   0   3   9 36276.3 2673.74  22
   0   3  10 2175.82 657.222  22
   0  -3  10 2663.08 656.193  16
   0  -3  10 2982.61 832.073  18
   0  -3  10 2612.98 788.417  19
   0  -3  10 2308.04 721.868   2
   0   3  11 13047.2 1513.08  22
   0  -3  11 13413.2 1555.10  19
   0  -3  11 12343.4 1356.20   2
   0  -3  11 13667.3 1409.51  16
   0  -3  12 12708.6 1227.46  16
   0   3  12 11521.5 1331.37  22
   0  -3  12 12786.7 1176.86   2
   0   4   0-166.906 223.318  21
   0   4   1 2679.72 664.930  21
   0   4  -1 3418.94 696.708  20
   0   4  -2-713.370 362.278  20
   0   4   2 216.181 242.734  21
   0  -4   2-1044.64 490.828  19
   0  -4   3-370.731 308.964  18
   0   4  -3-241.197 308.328  20
   0   4   3-385.207 285.528  21
   0  -4   3-820.553 446.142  19
   0  -4   4 11724.8 1518.38   2
   0   4  -4 16195.5 1559.94  20
   0   4   4 14884.1 1528.30  21
   0  -4   4 11004.0 1555.67  19
   0  -4   4 13180.8 1689.43  18
   0  -4   5-222.640 380.245   2
   0   4  -5 318.168 274.029  20
   0  -4   5 449.209 349.724  18
   0   4   5 569.766 352.325  21
   0  -4   6 13172.4 1610.86  18
   0  -4   6 12792.0 1594.61  19
   0   4   6 12318.8 1344.38  21
   0   4  -6 14688.9 1456.57  20
   0  -4   6 12814.6 1513.86   2
   0  -4   7 17563.9 1708.28   2
   0   4   7 14533.2 1418.52  21
   0  -4   7 17128.0 1782.37  18
   0  -4   7 16579.5 1708.58  19
   0   4   8 6929.75 924.097  21
   0  -4   8 9862.12 1258.19  18
   0  -4   8 9689.90 1192.71  19
   0  -4   8 5988.39 916.528   2
  -1   0  16 28111.8 2091.73  22
  -1   0  15 353.875 333.590  22
  -1   0  15 359.992 298.069  16
  -1   0  14 1014.96 441.900  16
  -1   0  13 38.4807 230.832  16
  -1   0  12 180.895 289.430  16
  -1   0  11 115.781 324.586  16
   1   0 -10 58810.3 2514.05   7
  -1   0  10 56925.4 3101.30  16
   1   0  -9 141.334 158.460   7
  -1   0   9-70.2834 225.020  16
  -1   0   8 133239. 4408.26  16
  -1   0   8 124027. 3823.14  14
   1   0  -7-419.058 247.177   1
  -1   0   7-4.86218 150.732  16
  -1   0   6 468648. 6926.49  14
   1   0  -6 477450. 7547.82   1
  -1   0   5 53.2827 83.6408  14
   1   0  -5-2.95949 124.200   1
   1   0  -4 136171. 2976.77   1
  -1   0   4 147192. 3536.44   1
   1   0  -3-55.6699 80.7926   1
  -1   0   3-52.6173 137.334   1
   1   0  -2 605407. 5925.90   1
  -1   0   2 602028. 6122.80   1
  -1   0   1 19.7889 40.5061   1
   1   0  -1 12.4296 48.0305   1
   1   0   0 155606. 1574.01  23
  -1   0  -1 5.94937 20.8280  15
   1   0   2 368978. 3639.96  15
   1   0   3 1.61100 45.4785  15
  -1   0  -4 35349.2 1464.25  14
   1   0   4 33290.7 1112.26  15
   1   0   5-3.53726 64.2211  15
  -1   0  -5 97.8232 139.858  14
  -1   0  -6 407529. 6592.87  14
   1   0   6 413099. 5614.88  15
   1   0   7 167.945 170.312  16
  -1   0  -7 33.7104 143.362  14
   1   0   8 62010.6 2885.49  16
   1   0   9 118.421 315.382  16
   1   0  10 3520.33 799.260  16
   1   0  11 97.4116 243.565  16
   1   0  12 4704.19 977.831  16
   1   0  13 119.628 244.825  16
   1   0  14 8099.98 1260.07  16
   1   0  14 9608.58 1406.54  22
   1   0  15 483.214 298.085   5
   1   0  15-709.539 362.931  22
   1   0  16 141183. 4496.47  22
  -1  -1  16 1380.89 438.606  16
  -1   1  16 827.176 369.187  22
  -1  -1  15 41629.9 2642.25  16
  -1   1  15 38916.6 2613.21  22
  -1   1  14 1027.21 490.212  22
  -1  -1  14 1087.18 520.300  16
  -1   1  13 52714.2 3233.52  22
  -1  -1  13 49834.6 3335.89  16
  -1  -1  12 11182.2 1586.97  16
   1   1 -12 12734.1 1342.19   7
  -1   1  12 10376.7 1404.62  22
   1   1 -11-84.0267 266.620   7
  -1   1  11-137.707 183.100  22
   1   1 -10 9351.74 1119.72   7
  -1  -1  10 14604.5 1823.35  16
  -1  -1  10 12030.0 1487.50  18
  -1   1  10 13628.7 1509.37  22
  -1  -1   9 13799.5 1585.24  18
  -1  -1   9 19778.7 2503.30  17
   1   1  -9 17092.9 1428.99   7
  -1  -1   9 15472.4 1560.43  19
  -1   1   9 18514.2 1622.87  22
  -1  -1   9 15999.9 1869.06  16
  -1  -1   8 156258. 5747.87  16
  -1   1   8 160036. 4518.90  22
   1   1  -8 176368. 4210.86  20
  -1  -1   8 128095. 4952.42  18
  -1  -1   8 156700. 6882.29  17
   1   1  -8 151955. 4153.54   7
  -1  -1   8 181775. 6068.94   3
  -1  -1   7 18472.9 1850.20   3
  -1   1   7 17502.1 1348.01  22
  -1  -1   7 16042.5 1825.83  16
   1   1  -7 15039.7 1182.87   8
   1   1  -7 16590.9 1247.89   7
   1   1  -7 20879.4 1380.07  20
  -1  -1   7 15686.5 2079.50  17
  -1  -1   6 5539.28 988.333  16
   1   1  -6 7212.59 778.508   7
   1  -1  -6 7142.63 783.764   1
  -1  -1   6 7423.60 1327.84  17
  -1   1   6 7472.90 802.502  22
  -1  -1   6 7296.04 1052.83   3
   1   1  -5 78279.4 2827.31   1
  -1  -1   5 80349.2 2873.37  14
  -1  -1   5 83571.1 3438.82   1
   1  -1  -5 78188.8 2379.06   1
  -1  -1   4 286786. 5264.37  14
   1   1  -4 300017. 5242.37   1
  -1  -1   4 292069. 5881.64   1
  -1  -1   3 1171.71 319.754  14
   1   1  -3 1102.57 279.129   1
  -1  -1   3 1218.06 323.293   1
   1  -1  -3 1236.72 192.408  23
   1  -1  -3 1102.75 167.433   1
  -1  -1   2 30425.4 1341.91   1
   1  -1  -2 29023.1 949.571  15
   1  -1  -1 4953.79 370.470  15
   1   1  -1 4341.53 480.851   1
  -1   1   1 3770.19 359.854  14
  -1  -1   1 3765.01 426.372   1
  -1  -1   0 135273. 2699.31   1
  -1   1   0 129549. 1636.89   1
  -1   1  -1 481513. 6107.84  14
  -1  -1  -1 483653. 5844.41   1
  -1   1  -1 501268. 5311.15   1
  -1  -1  -2 260699. 4123.03   1
  -1   1  -2 268057. 4282.05   1
  -1  -1  -2 273654. 3828.35  23
  -1   1  -2 259103. 4530.92  14
  -1  -1  -2 262043. 3862.98  15
  -1   1  -3 56112.7 2135.61  14
  -1  -1  -3 59244.3 1685.17  15
  -1  -1  -3 59192.6 1642.47  23
  -1   1  -3 60036.6 2202.23   1
  -1   1  -4 10524.4 1046.16   1
  -1   1  -4 9257.97 934.418  14
  -1  -1  -4 7237.90 489.204  14
  -1  -1  -4 9848.91 712.082  15
  -1  -1  -5 75144.1 1765.49  14
   1  -1   5 69103.2 2936.14  19
  -1   1  -5 77808.5 3157.73   1
   1  -1   6 48620.1 2683.76  18
   1  -1   6 53779.8 2660.98  16
   1  -1   6 47594.8 2361.18   2
   1   1   6 51291.4 2093.02  16
   1   1   6 55502.5 2355.44  22
   1   1   6 48400.5 1981.10   5
   1  -1   6 45085.1 2482.90  19
   1   1   7 41378.0 2072.53  16
   1  -1   7 34880.5 2131.44   2
   1  -1   7 50822.5 2995.61  18
   1  -1   7 42781.3 2525.52  16
   1   1   7 47512.0 2200.24   5
  -1   1  -7 37251.5 1832.39   7
   1  -1   7 41613.8 2451.77  19
   1   1   7 48112.1 2523.63  22
   1   1   8 510.930 239.822  16
   1  -1   8 748.723 405.732  16
   1  -1   8 618.395 410.668   2
   1   1   8 764.699 357.514  22
   1  -1   8 600.764 383.457  19
   1  -1   8 795.511 466.172  18
   1   1   8 681.680 296.982   5
   1   1   9 7539.28 960.138   5
   1   1   9 8490.43 1163.41  22
   1  -1   9 6867.30 1121.54  16
   1  -1   9 8481.79 1047.58   2
   1  -1   9 9016.29 1234.88  19
   1   1   9 7683.18 1028.41  16
   1   1  10 21484.8 1843.55  16
   1  -1  10 19616.1 1582.21   2
   1  -1  10 28082.6 2307.51  16
   1   1  10 25170.0 1865.60   5
   1   1  10 27700.0 2236.94  22
   1   1  11 106740. 4601.71  22
   1  -1  11 108693. 4727.22  16
   1   1  11 95542.4 3846.01   5
   1   1  12 15458.0 1776.91  22
   1   1  12 11001.9 1320.86   5
   1  -1  12 12710.1 1655.37  16
   1   1  13 20926.1 1782.08   5
   1  -1  13 21818.4 2088.10  16
   1   1  13 20733.0 2053.48  22
   1  -1  14 5428.77 1012.96  16
   1   1  14 6676.18 1142.10  22
   1   1  14 5304.18 868.938   5
   1   1  15 1437.21 507.216  22
   1  -1  15 1102.41 467.353  16
  -1  -2  15 2383.09 550.408  16
  -1   2  14-144.179 174.624  22
  -1  -2  14-170.747 233.385  16
  -1   2  13 30642.5 2362.48  22
  -1  -2  13 31229.5 2498.85  16
  -1   2  12 64478.7 3533.43  22
  -1  -2  12 75734.2 4043.47  18
  -1  -2  12 71232.9 3569.58  19
  -1  -2  12 68672.3 4001.63  16
  -1  -2  11 608.891 430.812  19
  -1  -2  11 451.860 340.276  18
  -1  -2  11 1318.28 577.853  16
  -1   2  11 775.274 468.218  22
  -1  -2  11 338.524 196.985   2
  -1  -2  10 2253.36 841.121  18
   1   2 -10 3804.67 830.479   7
   1   2 -10 2472.84 605.105  20
  -1  -2  10 2905.38 862.604  19
  -1   2  10 3821.32 843.082  22
  -1  -2  10 3544.53 1043.95  16
   1   2  -9-77.6199 311.810   7
  -1  -2   9 323.927 460.793  16
  -1  -2   9 527.421 813.856  17
  -1   2   9 543.927 335.181  22
   1   2  -9-145.550 625.508  20
  -1  -2   9-478.507 611.594  18
  -1  -2   9-223.293 413.619  19
  -1   2   8 36042.6 2403.95  22
  -1  -2   8 32211.2 2911.97  16
   1   2  -8 35726.1 2375.44   7
  -1  -2   8 33019.9 3682.67  17
   1   2  -8 40722.5 2461.77  20
  -1   2   7 142596. 4559.35  22
  -1  -2   7 131658. 7121.79  17
   1   2  -7 160983. 4830.04  20
  -1  -2   7 134647. 5851.31  16
   1   2  -7 144543. 4732.54   7
  -1  -2   7 158702. 5741.62   3
  -1   2   6 3572.72 673.593  22
   1   2  -6 3873.75 631.046   6
   1   2  -6 3829.59 765.397  20
  -1  -2   6 3408.63 897.310  16
   1   2  -6 3273.35 697.220   7
  -1  -2   6 4152.19 901.734   3
   1   2  -5 34158.1 2086.34   7
  -1  -2   5 35796.9 2452.89   3
  -1  -2   5 29972.0 2590.28  16
  -1   2   5 31349.7 1882.47  22
   1   2  -5 34939.0 2116.08  20
   1   2  -5 34982.3 1851.17   6
  -1  -2   4-260.631 228.118   3
  -1   2   4 229.875 186.944  22
   1   2  -4 191.584 231.412   7
   1   2  -4 52.7188 131.712   6
   1   2  -4 16.5446 194.908  20
  -1   2   3 39049.3 1931.06  22
   1  -2  -3 38019.7 1671.02  23
   1   2  -3 45010.9 2176.35  21
   1   2  -3 43927.0 2194.33   7
   1   2  -3 38638.3 2110.52  20
  -1  -2   2 18488.2 1430.34   1
  -1   2   2 21490.1 1395.35  22
  -1  -2   2 19667.0 1425.82  14
   1  -2  -2 20625.3 1200.08  15
   1   2  -2 23480.6 1523.77  21
   1   2  -2 21361.8 1533.48  20
   1  -2  -1 65646.2 2178.94  15
   1   2  -1 64958.8 2617.99  20
  -1  -2   1 62685.5 2418.16   1
  -1  -2   1 62235.4 2365.33  14
   1   2  -1 70004.7 2601.54  21
  -1   2   0 269454. 5001.32  21
   1   2   0 268809. 5308.48  21
  -1  -2   0 259520. 4701.84  14
   1   2   0 261722. 5409.63  20
  -1   2   0 273432. 5335.50   6
  -1   2  -1 6288.19 764.375  20
  -1   2  -1 8148.67 825.340  21
  -1   2  -1 7698.67 876.217   6
   1   2   1 7931.38 876.029  20
  -1  -2  -1 6355.14 688.973   1
  -1   2  -2 28005.9 1566.98  21
   1   2   2 26927.4 1679.66  22
  -1   2  -2 22039.6 1496.35  20
  -1   2  -2 26362.9 1678.81   6
   1   2   2 25936.8 1567.01  20
  -1  -2  -2 22403.5 1347.97   1
   1   2   3 831.483 318.314  22
   1  -2   3-107.574 292.086  17
  -1   2  -3 341.946 285.745  20
  -1   2  -3 343.643 244.131   6
   1   2   3 157.527 151.164  20
   1   2   4 100252. 3493.89  22
   1  -2   4 100016. 5006.76  17
  -1   2  -4 109990. 3714.33   6
   1  -2   5 26581.9 2372.72  18
   1  -2   5 32869.1 2210.54  16
  -1   2  -5 26520.3 1841.49  20
   1   2   5 29232.5 1949.22  22
  -1   2  -5 32529.0 2084.82   6
   1  -2   5 33647.0 2960.13  17
  -1   2  -6 33829.9 2144.07  20
   1  -2   6 35847.8 2829.72  18
   1   2   6 39660.4 2400.64  22
   1   2   6 38213.6 2009.39   5
   1  -2   6 30506.9 2221.65  16
   1  -2   6 44068.3 3503.81  17
   1  -2   6 33406.8 2637.16  19
  -1   2  -6 35259.2 2269.12   6
   1  -2   7 51669.6 3008.63  16
  -1   2  -7 55528.7 2920.85   6
   1   2   7 57718.4 3098.67  22
   1  -2   7 50237.5 3380.35  19
   1  -2   7 53374.8 3562.67  18
   1  -2   7 48386.7 3104.53   2
  -1   2  -7 51721.7 2834.36  20
   1   2   7 52811.1 2465.35   5
   1   2   8 1286.90 405.446   5
   1  -2   8 2221.78 769.079  19
   1  -2   8 2507.01 849.973  18
  -1   2  -8 2567.51 626.662  20
   1  -2   8 2415.80 767.943   2
  -1   2  -8 3057.03 716.812   6
   1   2   8 3204.06 762.080  22
   1  -2   8 2940.25 750.163  16
   1  -2   9 7131.84 1207.84  16
   1   2   9 6214.25 1099.26  22
   1  -2   9 5382.02 1148.24  19
   1  -2   9 6515.73 1160.48   2
   1  -2   9 6453.82 1319.07  18
  -1   2  -9 6143.68 996.727   6
   1  -2  10 52021.8 3348.85  19
   1  -2  10 51479.8 3206.16  16
   1   2  10 47469.0 3153.85  22
   1  -2  10 43051.2 2815.44   2
   1  -2  10 58302.7 3749.68  18
   1   2  11 42064.0 2966.00  22
  -1   2 -11 36095.4 2386.64   6
   1  -2  11 40725.8 2567.05   2
   1  -2  12 16606.2 1739.33  16
   1   2  12 15900.7 1790.77  22
   1  -2  13 278.963 276.251  16
   1   2  13 172.837 232.563  22
   1  -2  14 30359.3 1988.78  16
   1   2  14 30945.8 2232.72  22
  -1   3  12 13231.3 1374.12  22
  -1  -3  12 14001.0 1386.06  16
  -1  -3  12 13929.1 1414.56  19
  -1  -3  11 2701.01 751.042  18
  -1  -3  11 2138.44 638.478   2
  -1  -3  11 2580.23 691.599  16
  -1   3  11 2544.05 635.934  22
  -1  -3  11 2683.47 718.376  19
  -1  -3  10 27430.0 2308.96   2
  -1   3  10 31184.2 2349.28  22
  -1  -3  10 33990.2 2871.92  18
   1   3 -10 39078.5 2444.88  20
  -1  -3  10 29107.6 2582.06  19
  -1  -3  10 36756.4 2671.25  16
  -1  -3   9 8533.05 1554.02  18
   1   3  -9 12901.5 1476.68  20
  -1  -3   9 7050.88 1253.87  16
  -1   3   9 10291.3 1374.51  22
  -1  -3   9 7885.34 1482.43  19
  -1  -3   9 13085.8 2270.37  17
  -1  -3   8 55765.8 4847.87  17
  -1  -3   8 46944.2 3463.70  16
  -1   3   8 43826.9 2856.54  22
  -1  -3   8 44378.8 3690.24  18
   1   3  -7 3498.72 848.541  20
  -1   3   7 2538.54 736.032  22
  -1  -3   7 1466.64 866.715  17
  -1  -3   7 2323.27 765.050  16
  -1  -3   6 13341.8 1838.71  16
   1   3  -6 19407.6 1835.68  20
  -1   3   6 18427.9 1792.77  22
  -1  -3   6 18346.3 2789.72  17
  -1  -3   5-397.538 981.937  17
  -1  -3   5-136.308 275.810  16
   1   3  -5-28.8217 289.571  20
   1   3  -4 429.005 422.786  20
  -1  -3   4 28.5522 544.270  16
   1   3  -3 11608.2 1375.74  21
   1   3  -3 10659.3 1368.92  20
  -1   3   3 9220.73 1145.02  21
  -1   3   2 89835.1 3586.19  21
   1   3  -2 96691.9 4014.20  20
   1   3  -1 847.764 443.048  21
  -1   3   1 1129.17 395.138  21
   1   3  -1 1319.59 527.181  20
  -1   3   0 25655.5 1854.95  21
   1   3   0 23843.3 1929.92  21
   1   3   0 26382.1 1979.98  20
  -1   3   0 19353.4 1564.75  20
  -1   3  -1 19221.2 1647.11  20
  -1   3  -1 20342.8 1659.91  21
   1   3   1 18866.3 1650.75  20
   1   3   1 19741.4 1753.45  21
   1   3   2 9885.37 1177.19  20
  -1   3  -2 13052.1 1364.51  21
   1  -3   2 9617.91 1502.08  18
   1   3   2 13648.4 1463.15  21
  -1   3  -2 13178.1 1395.53  20
   1  -3   3 14035.6 1812.03  18
  -1   3  -3 14836.7 1510.34  20
   1  -3   4 7167.89 1369.24  18
  -1   3  -4 8858.29 1183.24  20
   1  -3   4 6566.10 1267.70  19
   1  -3   5 42103.6 3345.18  18
  -1   3  -5 46653.6 2819.44   6
  -1   3  -5 41325.7 2650.52  20
   1  -3   5 36714.9 3077.79  19
   1  -3   5 51135.6 3917.31  17
   1  -3   6 6933.03 1333.16  19
   1   3   6 8130.08 1277.34  22
  -1   3  -6 7202.64 1116.20  20
  -1   3  -6 8565.56 1183.69   6
   1  -3   6 6864.95 1253.10   2
   1  -3   6 10040.4 1657.58  18
   1  -3   7 3827.29 1054.56  18
   1   3   7 2475.70 786.984  22
  -1   3  -7 2970.18 724.820  20
   1  -3   7 2618.31 941.358  19
   1  -3   7 2402.95 761.786   2
  -1   3  -7 3231.47 735.717   6
  -1   3  -8 32359.9 2289.78   6
   1  -3   8 33239.4 2693.26   2
   1  -3   8 37652.6 3076.26  18
   1  -3   8 30604.4 2738.06  19
   1   3   8 35769.4 2733.90  22
   1   3   9 40274.8 2875.21  22
   1  -3   9 40954.4 3016.44  19
   1  -3   9 37183.0 2721.64   2
   1  -3   9 44203.1 3209.97  18
  -1   3  -9 34670.9 2288.76   6
   1  -3  10 37294.2 2484.86   2
   1   3  10 36312.1 2638.96  22
   1  -3  10 44385.6 2938.71  19
   1   3  11 3934.35 839.408  22
   1  -3  11 6394.84 930.740   2
   1   3  12 7620.92 1064.74  22
  -1  -4   8 1389.87 538.505  18
   1   4  -8 1979.78 498.864  20
  -1  -4   8 1661.37 537.063  19
  -1  -4   8 1228.99 455.994   2
   1   4  -7 34639.0 2151.15  20
  -1  -4   7 27403.9 2351.89  18
  -1  -4   7 27676.0 2581.25  17
  -1   4   7 26485.8 1784.07  21
  -1  -4   7 25303.3 2216.75  19
  -1  -4   7 25502.4 2119.84   2
  -1  -4   6 5352.08 1074.29  19
  -1  -4   6 6804.66 1232.84  18
  -1   4   6 7738.56 991.305  21
   1   4  -6 9957.27 1178.44  20
  -1  -4   6 8748.01 1515.00  17
   1   4  -5 6542.88 987.634  20
  -1  -4   5 4600.70 1050.93  18
  -1  -4   5 3414.89 813.599  19
  -1   4   5 5277.79 830.034  21
  -1  -4   4 15325.2 1940.92  18
  -1   4   4 13768.9 1378.84  21
  -1   4   3-9.24573 224.661  21
   1   4  -3 184.942 202.259  20
   1   4  -2 3543.09 762.591  20
  -1   4   2 2911.79 689.558  21
  -1   4   1 502.659 288.060  21
   1   4  -1 734.262 384.130  20
   1   4   0 8736.97 1222.44  21
   1   4   1 163.707 154.550  21
   1  -4   2 43696.1 2767.44   2
   1   4   2 38447.0 2561.98  21
   1   4   3 8733.81 1207.22  21
   1  -4   3 8678.46 1237.66   2
   1  -4   3 9590.66 1331.91  19
   1  -4   4 15122.3 1649.40   2
   1   4   4 15195.6 1596.37  21
   1  -4   4 17828.8 1809.61  18
   1  -4   4 16312.7 1727.24  19
   1   4   5 5949.06 990.446  21
   1  -4   5 6607.02 1077.78   2
   1  -4   5 8116.61 1231.09  18
   1  -4   5 7424.71 1172.43  19
   1  -4   6 6975.83 1101.37  18
   1  -4   6 5384.02 942.356   2
   1   4   6 4145.04 793.622  21
   1  -4   6 6156.75 1020.35  19
   1  -4   7 3498.25 796.840   2
   1   4   7 2712.98 650.530  21
   1  -4   7 2705.17 638.301  19
   1  -4   8 46981.0 2332.30   2
  -2   0  16 9378.12 1167.52  22
  -2   0  15 823.826 398.498  22
  -2   0  14 30677.2 2239.66  16
  -2   0  13-306.399 278.135  16
  -2   0  12 27115.2 2250.97  16
   2   0 -12 25698.9 1894.07   7
  -2   0  11-481.725 348.167  16
   2   0 -11 295.125 254.613   7
  -2   0  10 111637. 4495.75  16
   2   0 -10 106841. 3688.94   7
  -2   0   9 195.826 253.757  16
  -2   0   8 21228.4 2020.85   3
  -2   0   8 22982.4 1912.44  16
  -2   0   7-62.9144 295.729  16
  -2   0   7-223.394 243.318  14
  -2   0   7-246.728 246.707   3
   2   0  -6 108801. 3197.04   1
  -2   0   6 123384. 4116.10   1
  -2   0   5-26.9430 171.067   1
   2   0  -5 63.8667 98.6899   1
  -2   0   4 180184. 4029.90   1
   2   0  -4 186332. 3622.65   1
   2   0  -3-83.2069 85.3555   1
  -2   0   3 5.50227 93.2593   1
  -2   0   2 410515. 4714.66   1
   2   0  -2 402009. 4688.64   1
  -2   0   1 168.815 108.905   1
   2   0   0 118457. 1670.03  23
  -2   0   0 123604. 2422.93   1
   2   0   1-36.8632 54.5260  23
  -2   0  -1-24.7476 28.4660  15
   2   0   2 40243.6 1153.25  23
   2   0   3 23.2103 67.7525  23
   2   0   4 1502.76 262.135  15
   2   0   4 1851.28 309.400  23
   2   0   5-110.575 94.1754  16
   2   0   5 143.859 111.018  15
   2   0   5 221.955 135.066  23
  -2   0  -5-63.0318 149.223  14
   2   0   6 23731.3 1582.33  16
   2   0   6 23089.5 1271.13  15
   2   0   7 7.60980 130.685  16
   2   0   8 115087. 4056.96  16
   2   0   8 109463. 3340.57   4
   2   0   9-172.406 335.114  16
   2   0   9 813.163 321.420   4
   2   0  10 142502. 4203.81   4
   2   0  10 213887. 6124.12  16
   2   0  11-252.882 354.303  16
   2   0  12 21357.3 2064.11  16
   2   0  12 22466.8 2105.06  22
   2   0  13 257.820 242.749   5
   2   0  13-250.565 291.914  16
   2   0  13-189.942 247.319  22
   2   0  14 203473. 6045.70  22
   2   0  14 190009. 5730.34   5
   2   0  15 219.484 260.258   5
   2   0  15 24.3562 208.638  22
  -2   1  15 61947.0 3139.84  22
  -2  -1  15 62161.2 3164.39  16
  -2  -1  14 15064.4 1749.20  16
  -2   1  14 13779.5 1552.59  22
  -2  -1  13 112.282 348.028  16
   2   1 -13 281.024 236.758   7
  -2   1  13 810.166 388.559  22
  -2  -1  12 1373.52 680.066  16
   2   1 -12 839.752 385.290   7
  -2   1  12 891.928 422.437  22
  -2  -1  11 6273.08 1313.80  16
   2   1 -11 7517.53 1067.48   7
  -2   1  11 7138.14 1108.16  22
  -2  -1  10 11622.2 2037.68  17
  -2   1  10 10840.9 1292.95  22
  -2  -1  10 8864.37 1547.06  16
   2   1 -10 9058.06 1143.69   7
   2   1  -9 39518.4 2186.39   8
  -2  -1   9 33896.9 2520.41  18
  -2  -1   9 36169.5 3482.36  17
  -2  -1   9 38055.5 3041.16   3
  -2   1   9 39038.2 2305.46  22
  -2  -1   9 37045.2 3088.20  16
   2   1  -9 36082.0 2174.25   7
   2   1  -8 2552.13 541.395   8
  -2  -1   8 2330.21 791.128  16
  -2   1   8 2977.29 603.483  22
  -2  -1   8 2824.61 900.966  17
   2   1  -8 2410.86 541.013   7
  -2  -1   8 2070.64 704.247   3
  -2  -1   7 153113. 6869.94  17
  -2  -1   7 157725. 6090.82  16
   2   1  -7 177691. 4452.43   7
   2  -1  -7 181326. 3927.31   9
   2   1  -7 188088. 4365.06  20
  -2   1   7 180669. 4366.61  22
  -2  -1   7 172991. 5922.30   3
   2   1  -7 172693. 4444.98   8
  -2  -1   6 87702.8 3949.19   3
   2   1  -6 88771.6 2944.32   8
   2   1  -6 91863.7 2961.65   7
   2   1  -6 95511.3 2941.03  20
   2  -1  -5 44504.3 1308.58   1
  -2   1   5 36273.1 1478.01  15
   2   1  -5 33868.9 1679.44   7
   2   1  -5 41550.9 1908.63   8
  -2  -1   4 267.434 137.382   1
   2   1  -4 191.486 163.329   1
   2  -1  -4 147.986 56.4743   1
   2   1  -3 240.987 210.952   1
  -2  -1   3 260.970 166.402   1
   2  -1  -3 181.845 60.2176  23
   2   1  -2 113969. 3128.69   1
  -2  -1   2 122102. 3096.59   1
  -2  -1   1 122232. 3052.64   1
   2   1  -1 116552. 3068.48   1
  -2   1   0 7151.04 463.937   1
   2  -1   0 7050.07 304.248  15
  -2   1  -1 4949.72 514.406   1
  -2  -1  -1 6417.02 673.171   1
  -2  -1  -1 5301.29 496.748  23
  -2   1  -2 88255.6 2662.09   1
  -2  -1  -2 91352.4 2244.44  15
  -2  -1  -2 91977.6 2745.62   1
  -2  -1  -2 97516.5 2261.50  23
  -2   1  -3 150785. 3957.28   1
  -2  -1  -3 156936. 3041.02  15
  -2   1  -3 145932. 3926.16  14
   2  -1   4 10821.2 1164.63  18
  -2   1  -4 10162.2 1115.02   1
  -2  -1  -4 10483.8 775.010  15
   2  -1   4 9728.30 1037.66  19
   2  -1   4 9925.12 1003.74   2
   2   1   4 9401.90 841.025   5
   2  -1   5 9587.21 1185.12  18
   2  -1   5 9357.70 985.515  16
   2   1   5 6453.69 689.893   4
   2  -1   5 7532.72 910.734   2
   2   1   5 8638.83 890.413  22
   2   1   5 7899.74 817.199   5
   2  -1   5 9471.66 1109.67  19
   2  -1   6 37942.9 2152.73  16
   2  -1   6 37217.2 2121.12   2
   2   1   6 37129.0 2012.33  22
   2  -1   6 39165.7 2336.38  19
   2   1   6 35676.6 1903.37   5
   2   1   7 3886.24 724.069  22
   2  -1   7 2790.23 659.729  16
   2  -1   7 3712.89 768.995   2
   2   1   7 2562.65 521.556   4
   2  -1   7 3768.82 705.526  11
   2   1   7 3121.17 690.073   5
   2   1   8 115601. 4171.81  22
   2  -1   8 113714. 4241.65  16
   2  -1   8 109735. 3886.03   2
   2   1   8 109635. 3854.69   5
   2  -1   9 3095.84 765.920  16
   2   1   9 3795.14 831.490  22
   2   1   9 3599.34 751.813   5
   2   1  10 24966.1 2011.80   5
   2   1  10 27145.5 2244.65  22
   2  -1  10 27230.1 2255.27  16
   2  -1  11 96190.7 4378.83  16
   2   1  11 91963.9 4002.59   5
   2   1  11 101647. 4511.03  22
   2  -1  12 156899. 5571.28  16
   2  -1  12 150452. 4664.88   4
   2   1  12 155146. 5252.54   5
   2  -1  13 549.826 426.210  16
   2   1  13 516.234 343.697  22
   2  -1  13 30.6560 164.944   4
   2   1  13-10.3635 187.521   5
   2  -1  14 1149.74 449.360  16
   2   1  14 942.953 340.112   5
   2   1  14 1366.61 532.909  22
   2  -1  14 1641.99 500.294  22
   2   1  15 11748.2 1299.07  22
   2  -1  15 8005.63 1000.62   5
  -2  -2  14 20837.0 1889.94  16
  -2   2  14 20152.4 1666.45  22
  -2  -2  13 1766.62 621.771  16
  -2   2  13 2109.91 569.587  22
  -2  -2  12 51064.1 3202.21  18
  -2   2  12 52285.7 2986.15  22
  -2  -2  12 48276.7 3451.21  16
   2   2 -12 51852.2 2964.80   7
  -2   2  11 77087.9 3680.86  22
  -2  -2  11 70001.5 4151.80  18
   2   2 -11 79382.9 3798.04   7
  -2  -2  11 75680.6 4554.94  16
  -2  -2  11 69566.2 3924.59  19
  -2  -2  10 2234.37 759.604  19
  -2  -2  10 3284.09 909.170  18
  -2  -2  10 3839.40 1086.06  16
   2   2 -10 3732.37 849.582   7
  -2  -2  10 2702.23 1221.53  17
  -2   2  10 3793.08 798.879  22
   2   2 -10 4635.32 803.271  20
  -2   2   9 107.419 175.206  22
  -2  -2   9 707.396 609.111  16
  -2  -2   9 267.570 695.009  17
   2   2  -9 158.503 224.398   7
  -2  -2   9 148.501 296.592   3
   2   2  -9-79.0196 280.368  20
  -2   2   8 1423.88 470.276  22
  -2  -2   8 1041.47 710.491  16
   2   2  -8 707.864 442.478   7
  -2  -2   8 745.354 625.341   3
   2   2  -8 1476.71 566.336  20
  -2  -2   8 1069.30 714.032  17
   2   2  -7 14241.0 1548.75   7
  -2   2   7 14296.9 1381.08  22
   2   2  -7 19742.2 1811.15  20
  -2  -2   7 18288.4 2234.79   3
  -2  -2   7 13957.6 2090.89  16
   2   2  -6 21662.5 1774.72   7
  -2   2   6 19485.3 1502.88  22
  -2  -2   6 17662.5 2190.05  16
  -2  -2   6 20691.5 2100.29   3
   2   2  -6 25905.2 1893.35  20
   2  -2  -5 11282.0 1028.03  12
   2   2  -5 8488.80 1074.81   7
  -2  -2   5 8973.78 1340.53   3
  -2   2   5 8320.77 944.083  22
   2   2  -5 8273.37 1084.67  20
   2   2  -4 48290.2 2459.08   7
   2  -2  -4 48916.3 2029.96   9
   2   2  -4 48786.0 2515.99  20
   2   2  -3 61.7749 187.318  20
  -2   2   3 503.069 220.901  22
   2   2  -3 211.227 257.817   7
   2  -2  -3 85.8776 118.266  10
   2   2  -3 370.349 289.344  21
   2   2  -2 9855.64 1023.42   7
   2   2  -2 9108.04 1063.03  20
   2   2  -2 9472.28 1008.75  21
   2  -2  -2 9449.95 854.674  13
  -2   2   1 170255. 4229.06   6
   2   2  -1 182279. 4499.91  21
   2   2  -1 174548. 4662.63  20
   2   2   0 11946.2 1126.71  21
   2  -2   0 10620.5 1123.89   2
   2   2   0 12254.9 1195.73  20
  -2   2   0 11051.4 1071.12   6
  -2   2   0 9993.58 930.471  20
   2  -2   1-1.76575 183.574  19
   2  -2   1 167.283 204.509   2
   2  -2   1-142.260 292.761  18
  -2   2  -1 214.291 159.356  20
  -2   2  -1 573.550 335.504   6
   2  -2   2-22.1296 319.124   2
   2  -2   2-149.644 304.296  18
  -2   2  -2 20.0768 138.310   6
  -2   2  -2 114.250 213.627  20
   2   2   2-8.77833 166.263  20
   2  -2   2-174.355 282.719  19
   2   2   2 167.619 223.489  22
   2  -2   3 6161.83 1022.49  18
  -2   2  -3 7453.67 996.717   6
   2  -2   3 6270.64 984.493   2
   2   2   3 6900.41 901.369  20
   2   2   3 7316.78 959.603  22
  -2   2  -3 5770.77 845.003  20
   2  -2   3 6717.28 1073.36  19
   2  -2   4 157487. 5508.88  18
   2   2   4 162788. 4748.10  22
   2  -2   4 141479. 4966.10   2
  -2   2  -4 130748. 4232.39  20
   2   2   4 157830. 4391.19  20
  -2   2  -4 153450. 4757.26   6
   2  -2   4 146799. 5239.21  19
   2   2   5 25623.0 1929.49  22
  -2   2  -5 23786.9 1904.78   6
  -2   2  -5 17462.3 1576.61  20
   2  -2   5 22115.3 1992.88   2
   2  -2   5 23331.1 2135.73  19
   2  -2   5 24905.9 2270.76  18
   2  -2   6 23923.9 2291.39  18
   2  -2   6 26727.7 1878.76  16
   2  -2   6 20491.6 1957.47   2
   2   2   6 20525.7 1653.18   5
   2  -2   6 22283.9 2146.38  19
   2   2   6 22815.3 1918.77  22
   2   2   7 163.588 204.506   5
   2  -2   7 400.063 603.117  18
   2   2   7-42.0305 183.113  22
   2  -2   7 301.893 248.577  16
   2  -2   7 81.3378 448.868   2
   2  -2   7 314.807 477.041  19
   2  -2   8 82518.0 3680.02  16
   2   2   8 67953.8 3233.48   5
   2  -2   8 74257.7 3797.60   2
   2  -2   8 80188.8 4214.86  19
   2   2   8 74738.9 3777.30  22
   2  -2   9 74182.2 3594.24  16
   2  -2   9 89352.8 4038.16   2
   2   2   9 91512.7 4313.01  22
   2  -2   9 63989.9 3124.17  11
  -2   2  -9 80463.5 3842.32   6
   2   2   9 72287.4 3403.47   5
   2   2  10 8598.64 1345.17  22
   2  -2  10 9024.40 1265.39  16
   2  -2  10 10154.3 1328.08   2
  -2   2 -10 7554.58 1173.83   6
   2   2  10 7102.82 1092.37   5
   2  -2  11 35107.9 2438.23  16
  -2   2 -11 38031.9 2535.81   6
   2   2  11 43387.1 2978.36  22
   2  -2  12 27500.2 2056.86  16
   2   2  12 29891.4 2400.13  22
  -2   2 -12 27870.1 2008.45   6
   2  -2  13 14787.2 1415.67  16
   2   2  13 15720.0 1659.63  22
  -2  -3  12 33956.1 2288.41  16
  -2  -3  12 36976.2 2399.19  18
  -2  -3  11 3926.10 853.089  19
  -2  -3  11 1777.42 526.651   2
  -2  -3  11 3781.94 934.560  18
  -2  -3  11 3013.22 751.402  16
   2   3 -11 5390.39 804.148  20
  -2  -3  10 1277.47 563.597  19
  -2  -3  10 1823.92 685.065  18
  -2  -3  10 2548.82 1049.39  17
  -2  -3  10 1435.36 599.014  16
   2   3 -10 2491.53 619.332  20
  -2  -3   9 34427.5 3123.62  18
  -2  -3   9 36229.4 3853.65  17
  -2  -3   9 34598.7 2928.79  16
   2   3  -9 45845.9 2712.94  20
  -2  -3   8 6946.08 1847.32  17
  -2  -3   8 9021.45 1642.15  16
   2   3  -8 11580.7 1431.91  20
  -2  -3   7 527.417 542.327  16
   2   3  -7 381.141 387.014  20
  -2  -3   6 37732.4 3329.29  16
  -2  -3   6 39089.9 4245.60  17
  -2  -3   5 519.064 543.250  16
  -2   3   5 721.455 314.464  21
   2   3  -5 1935.87 638.017  20
  -2  -3   4 2975.50 961.819  16
   2   3  -4 4445.16 983.454  20
   2   3  -3 691.024 432.261  21
   2   3  -3 116.422 297.964  20
   2  -3  -2 2909.77 595.516  10
   2   3  -2 3150.31 789.840  20
   2   3  -2 4015.63 827.827  21
   2  -3  -1 13186.2 1276.61  13
   2   3  -1 16699.4 1666.37  21
   2   3  -1 17658.3 1771.93  20
   2  -3   0 22709.4 1933.97   2
   2   3   0 27129.7 2128.49  20
   2   3   0 27155.9 2123.73  21
   2  -3   1 40987.5 2708.31   2
   2   3   1 42877.5 2677.25  21
   2   3   1 41775.5 2611.78  20
   2  -3   1 43190.0 2846.15  19
  -2   3  -2 19652.3 1721.88  20
   2   3   2 19128.3 1821.40  21
   2  -3   2 19694.2 1958.54   2
   2  -3   2 13757.7 1658.66  18
   2   3   2 19015.1 1748.01  20
   2  -3   2 18760.5 2002.77  19
   2  -3   3 44462.7 3072.08  18
   2   3   3 31956.6 2226.39  20
  -2   3  -3 40575.0 2664.11   6
   2  -3   3 38424.9 2816.93   2
   2   3   3 40430.5 2661.20  21
  -2   3  -3 41358.8 2568.65  20
   2  -3   3 40192.2 2912.12  19
   2  -3   4 14090.7 1824.66  18
   2  -3   4 12833.7 1678.97   2
  -2   3  -4 13746.5 1573.90   6
   2  -3   4 13129.6 1727.51  19
   2  -3   5 53653.6 3535.20  18
   2  -3   5 45118.3 3129.80   2
  -2   3  -5 45740.1 2864.63   6
   2  -3   5 48059.7 3272.69  19
   2  -3   6 113688. 4949.98   2
  -2   3  -6 106180. 4424.71   6
   2  -3   6 113539. 5139.00  19
   2  -3   7 2262.16 809.202  18
   2   3   7 2021.61 740.582  22
   2  -3   7 2032.32 756.322   2
  -2   3  -7 1161.21 506.253   6
   2  -3   7 1452.71 669.695  19
  -2   3  -8 1583.95 598.770   6
   2  -3   8 2099.69 725.984   2
   2   3   8 2061.20 656.162  22
   2  -3   8 2728.51 828.893  19
   2  -3   9 26766.2 2119.48   2
   2   3   9 23777.3 2171.04  22
  -2   3  -9 22160.7 1855.22   6
   2  -3   9 24536.5 1924.23  11
   2   3  10 17601.1 1780.57  22
   2  -3  10 17222.8 1602.29   2
   2  -3  10 13890.2 1331.02  13
  -2   3 -10 13913.3 1351.08   6
   2  -3  10 14736.0 1333.84  11
   2  -3  11 482.220 251.497  13
  -2  -4   8 6231.42 1067.30  18
  -2  -4   8 5983.69 956.432   2
  -2  -4   8 5373.79 1010.17  19
   2   4  -7 24852.6 1756.16  20
  -2  -4   7 17662.9 1882.87  18
  -2  -4   7 22049.7 2400.88  17
  -2  -4   7 16618.4 1757.95  19
  -2  -4   6 4266.06 987.238  18
  -2  -4   6 4704.72 1276.95  17
   2   4  -6 5870.43 909.735  20
   2   4  -5 37455.9 2356.79  20
  -2  -4   5 32489.4 3270.08  17
  -2  -4   4 9276.11 1807.04  17
   2   4  -4 11565.3 1342.21  20
  -2  -4   3 2355.55 940.562  17
   2   4  -3 3063.07 684.090  20
   2  -4  -3 3550.64 693.013  12
   2  -4  -2 430.997 288.251  12
   2   4  -2 64.0359 196.441  20
   2   4  -1 5016.75 911.443  20
   2   4   0 24125.3 2051.82  21
   2   4   0 23840.2 1876.90  20
   2  -4   0 24174.3 1819.77  11
   2   4   1 4582.20 897.186  21
   2  -4   1 4085.60 768.608  11
   2  -4   1 4303.85 748.425  10
   2  -4   2 65441.2 2917.93  13
   2  -4   2 64788.9 2984.16  10
   2  -4   3 53991.6 2756.61   2
   2  -4   3 54943.3 2693.04  13
   2  -4   4 25453.6 1910.64   2
   2  -4   4 26988.0 1874.65  13
   2   4   4 23457.8 1942.90  21
   2  -4   4 24581.2 1904.83  11
   2  -4   5 2004.64 508.302  13
   2  -4   5 1604.22 504.361  11
   2  -4   5 2608.49 603.273   2
   2   4   5 1877.72 538.669  21
   2  -4   6 2044.50 513.329  13
   2   4   6 1755.14 467.300  21
   2  -4   6 1870.93 520.722  11
   2  -4   6 1951.64 526.853   2
   2  -4   7 25350.9 1683.67   2
   2  -4   7 23112.2 1567.81  13
   2  -4   7 17463.7 1405.03  11
   2   4   7 19719.9 1610.04  21
   2  -4   7 18616.0 1425.46  10
  -3   0  15-183.695 205.148  22
   3   0 -14 15523.4 1448.88   7
   3   0 -13-33.3588 110.122   7
   3   0 -12 911.536 381.774   7
  -3   0  11 577.396 360.152  16
   3   0 -11 82.3922 280.133   7
  -3   0  10 275.320 293.163  16
  -3   0   9 140.768 277.712   3
  -3   0   9-117.847 369.909  16
   3   0  -8 19187.2 1533.60   8
  -3   0   8 19664.9 2020.91  16
  -3   0   8 22099.8 2158.29   3
  -3   0   7 506.533 415.158   3
   3   0  -7-77.1634 190.991   8
  -3   0   7 191.927 322.155  16
   3   0  -6 29714.8 1819.63   1
   3   0  -6 33503.3 1678.91   8
  -3   0   6 29159.6 2056.47   1
   3   0  -5-176.865 145.526   1
   3   0  -5-149.120 108.032   9
  -3   0   4 655270. 8747.12   1
   3   0  -4 626395. 8190.94   1
  -3   0   3-105.694 94.5463   1
   3   0  -3-4.28620 140.715   1
  -3   0   2 277843. 4671.62   1
  -3   0   1 18.3742 110.752   1
  -3   0   0 218805. 2375.72  15
  -3   0   0 266548. 4509.03   1
   3   0   1-13.1014 49.8542  23
  -3   0  -1 283.987 171.482   1
   3   0   2 110217. 2345.73  23
   3   0   3 142.961 171.338   4
   3   0   3 64.1892 69.8678  23
   3   0   4 557092. 7549.77   4
   3   0   4 523379. 7106.07  23
   3   0   5-62.8303 177.509  16
   3   0   5 88.9387 434.161   4
   3   0   6 49849.2 2502.93  16
   3   0   6 61276.4 2487.78   4
   3   0   7 121.364 186.421  16
   3   0   7 8.58509 193.767   4
   3   0   8 77204.8 3671.98  16
   3   0   8 86803.2 3375.64   4
   3   0   9-11.2941 254.113  16
   3   0   9 432.972 276.572  22
   3   0   9-122.579 302.215   4
   3   0  10 91718.5 3627.64   4
   3   0  10 84992.8 3818.72  22
   3   0  11 303.474 508.752   5
   3   0  11 276.591 233.041  22
   3   0  11 100.772 171.442   4
   3   0  12 63687.8 3305.76  22
   3   0  12 55234.2 3251.10   5
   3   0  13-219.024 264.203   5
   3   0  13 112.674 173.889  22
   3   0  14 13748.1 1432.46   5
  -3  -1  15 277.991 241.009  16
   3   1 -15-414.123 226.394   7
   3   1 -14 10517.7 1232.66   7
  -3  -1  14 10583.2 1427.95  16
  -3  -1  13 6711.00 1277.94  16
   3   1 -13 7074.59 1047.46   7
   3  -1 -13 7846.24 1051.21   7
  -3   1  13 7837.00 1129.76  22
  -3  -1  12 891.922 591.973  16
   3   1 -12 1383.75 542.631   7
  -3   1  12 1229.76 447.051  22
  -3  -1  11-54.9956 417.244  16
  -3   1  11-166.253 200.782  22
   3   1 -11 29.4235 244.481   7
   3   1 -10 30874.4 2127.43   8
  -3  -1  10 32340.9 3354.93  17
  -3  -1  10 23576.0 2610.57  16
   3   1 -10 27910.4 2089.81   7
  -3   1  10 29096.7 2006.82  22
  -3  -1  10 27457.4 2774.21   3
   3   1  -9 28312.8 2004.31   8
  -3  -1   9 29999.1 3246.84  17
  -3  -1   9 30126.5 2954.99  16
   3   1  -9 34755.5 2246.40   7
  -3  -1   9 35347.2 3070.20   3
   3   1  -8 30179.0 2058.32   8
  -3  -1   8 20834.7 2894.29  17
  -3  -1   8 26122.5 2766.31  16
   3   1  -8 28145.6 2011.50   7
  -3  -1   8 29856.8 2811.12   3
   3   1  -7 47370.3 2418.68   8
  -3  -1   7 40371.7 3192.61  16
   3   1  -7 44208.3 2328.12   7
  -3  -1   7 44070.8 3186.50   3
   3  -1  -7 47784.0 2165.52   9
   3   1  -6 9712.05 1053.73   8
   3  -1  -6 9805.11 938.865   9
   3   1  -6 9205.97 1004.25   7
   3   1  -6 9518.75 955.233  20
   3   1  -5 7713.22 906.529   8
   3   1  -5 7423.33 842.867   7
   3  -1  -5 7482.32 786.205  12
   3  -1  -5 7351.91 762.535   9
   3   1  -5 8134.68 892.683  20
   3   1  -4 137202. 3871.50   8
   3   1  -4 142110. 3772.49  20
   3   1  -4 134881. 3569.87   7
   3  -1  -4 130236. 3355.42   9
   3  -1  -3 47217.4 1841.71  10
   3   1  -3 51512.0 2174.93  20
   3  -1  -3 50052.0 1977.20   9
   3  -1  -2 56729.5 2146.85  12
   3   1  -2 54457.7 2213.59   8
  -3  -1   2 59152.0 2432.57   1
  -3  -1   1 429043. 5431.60  23
   3  -1  -1 411503. 6318.33  12
  -3   1   1 414844. 4406.04   1
  -3  -1   0 77770.2 2916.08   1
   3  -1   0 76472.1 2434.60  13
  -3   1   0 94063.0 2012.50   1
   3  -1   0 75545.3 2418.22  10
  -3  -1   0 91096.4 2224.23  23
   3   1   0 78065.8 2662.61  20
   3   1   1 219009. 4712.09  20
   3   1   1 203798. 4350.80   4
   3  -1   1 221210. 4403.31  13
   3  -1   1 220691. 4534.07  11
   3  -1   1 220939. 4397.56  10
   3   1   2 503.221 207.801   5
   3  -1   2 609.957 257.527  11
  -3  -1  -2 641.384 197.389  15
   3   1   2 251.121 160.578   4
   3  -1   2 414.944 211.942  13
   3  -1   2 454.698 242.983   2
   3   1   3 10162.6 971.762   4
   3  -1   3 12862.6 1125.80   2
  -3  -1  -3 9639.88 752.188  15
   3  -1   3 11229.4 990.481  13
   3  -1   3 11946.1 1069.50  11
   3   1   3 11298.4 1003.05   5
   3   1   4 29610.2 1679.50  22
   3  -1   4 26919.4 1552.81  16
   3  -1   4 30100.6 1816.16   2
   3   1   4 22886.7 1496.54   4
   3  -1   4 25964.1 1564.11  13
   3  -1   4 27681.4 1687.95  11
   3   1   4 27286.1 1643.92   5
   3  -1   5 274490. 5719.23  16
   3  -1   5 289245. 6220.07   2
   3   1   5 261760. 5509.22   4
   3  -1   5 268847. 5517.20  13
   3  -1   5 280272. 5779.47  11
   3   1   5 272845. 5805.28   5
   3  -1   6 12767.7 1264.76  16
   3   1   6 11839.9 1177.54   4
   3  -1   6 11418.8 1106.76  13
   3  -1   6 13533.7 1245.22  11
   3   1   6 13030.9 1272.71  22
   3   1   6 11887.2 1236.94   5
   3  -1   7 41035.4 2435.66  16
   3   1   7 35812.8 2117.72   4
   3  -1   7 39326.0 2089.85  13
   3  -1   7 39139.5 2166.98  11
   3   1   7 39994.5 2397.38   5
   3   1   7 40227.0 2380.39  22
   3  -1   8 36881.9 2508.57  16
   3   1   8 33257.5 2179.20   4
   3  -1   8 30639.9 2071.96  11
   3   1   8 41241.5 2732.72   5
   3   1   8 26322.0 2164.84  22
   3  -1   9 15996.4 1669.95  16
   3   1   9 12504.8 1331.42   4
   3   1   9 15457.7 1638.96  22
   3   1   9 16259.1 1660.07   5
   3  -1  10 86839.3 4046.51  16
   3   1  10 90724.6 4133.67  22
   3   1  10 83200.9 3919.23   5
   3  -1  11 16708.6 1804.49  16
   3  -1  11 17438.6 1633.11   4
   3   1  11 17851.0 1840.70  22
   3   1  11 18225.3 1850.83   5
   3   1  12 2267.34 679.202   5
   3  -1  12 1500.71 574.627  16
   3   1  12 1865.63 582.075  22
   3  -1  12 2311.14 609.351   4
   3   1  13 1627.97 534.751   5
   3   1  13 1554.98 558.865  22
   3  -1  13 2059.26 492.130   4
   3   1  14 20082.0 1659.45  22
   3   1  14 19588.9 1635.38   5
   3  -1  14 21342.5 1682.32   5
  -3  -2  14 788.946 474.156  16
   3   2 -13 4067.47 782.691   7
  -3  -2  13 3480.39 891.195  16
  -3  -2  12 552.729 461.559  16
   3   2 -12-270.982 257.904   7
  -3  -2  11 7347.53 1326.81  18
  -3  -2  11 8942.02 1939.26  17
   3   2 -11 7498.82 1205.49   7
  -3  -2  11 7770.28 1504.70  16
  -3  -2  10 20798.8 2951.52  17
  -3  -2  10 19205.7 2512.08  16
   3   2 -10 21604.9 2017.94   7
  -3  -2  10 22328.5 2536.47   3
  -3  -2   9 49597.4 4749.83  17
  -3  -2   9 50463.6 4128.51  16
   3   2  -9 59295.5 3294.49   7
   3   2  -9 52846.5 2826.05  20
  -3  -2   9 59872.2 4135.40   3
  -3  -2   8 11905.6 2421.57  17
  -3  -2   8 11439.7 2144.44  16
   3   2  -8 12330.7 1575.16   7
   3   2  -8 15683.2 1651.30  20
  -3  -2   8 11632.7 1991.52   3
   3   2  -7 4056.40 875.319   8
   3   2  -7 5103.57 904.012  20
  -3  -2   7 4019.47 1022.17   3
  -3  -2   7 3364.50 1003.24  16
   3   2  -7 3594.34 801.555   7
   3   2  -6 54793.9 3064.63   8
   3  -2  -6 56544.0 2502.48   9
   3   2  -6 50201.5 2807.89   7
   3  -2  -6 57757.0 2621.20  12
   3   2  -6 56549.6 2957.67  20
  -3  -2   6 52267.9 3659.26   3
   3   2  -5 61125.3 3144.91   8
   3   2  -5 59741.0 2933.75   7
   3   2  -5 63585.2 3103.57  20
   3   2  -4 14037.1 1485.84   8
   3   2  -4 13960.7 1351.69   7
   3  -2  -4 16259.0 1398.12  12
   3  -2  -4 15258.7 1209.96  10
   3   2  -4 13795.6 1428.73  20
   3  -2  -4 15877.1 1314.16   9
   3   2  -3 12637.8 1368.78   8
   3   2  -3 10405.5 1139.14   7
   3  -2  -3 12322.8 1056.13  13
   3  -2  -3 12605.1 1117.79  10
   3  -2  -3 13084.2 1244.78  12
   3   2  -3 13818.0 1294.10  21
   3   2  -3 11921.5 1332.45  20
   3   2  -2 58074.7 2914.38   8
   3   2  -2 59806.6 2615.36   7
   3   2  -2 57776.9 2907.45  20
   3  -2  -2 57216.1 2440.68  13
   3   2  -2 63837.5 2760.37  21
   3  -2  -2 60742.1 2513.01  11
   3  -2  -2 61120.8 2522.77  10
   3   2  -1 821.583 365.851   8
   3  -2  -1-64.6025 171.511  11
   3   2  -1 6.55796 171.395   7
   3  -2  -1 400.956 278.808  13
  -3   2   1 284.133 217.272   6
   3  -2  -1 173.265 286.597  10
   3   2  -1 87.9661 181.455  21
   3   2  -1-24.9261 293.051  20
   3   2   0 578.766 290.261   8
  -3   2   0 151.799 156.347   6
   3  -2   0 606.508 302.831  13
   3  -2   0 134.462 177.239   2
   3   2   0-206.148 320.294  20
   3   2   0 669.204 275.256  21
   3   2   1 40072.0 2367.14  20
   3  -2   1 39090.8 2232.47   2
  -3   2  -1 35396.5 2153.29   6
   3   2   1 35475.1 2064.58  21
   3  -2   1 43228.9 2333.04  19
   3  -2   2 209985. 5586.22   2
   3   2   2 196445. 5483.82  20
  -3   2  -2 198684. 5464.94   6
   3  -2   3 16379.5 1607.33   2
   3   2   3 15975.3 1513.29  22
  -3   2  -3 13492.7 1441.88   6
   3   2   3 14828.5 1461.93  20
   3  -2   3 17203.9 1685.48  19
   3   2   4 75712.9 3376.48  22
   3  -2   4 69070.9 3367.20   2
  -3   2  -4 66438.1 3308.61   6
   3   2   4 72473.4 3277.63  20
   3  -2   4 76795.3 3678.64  19
   3   2   5 31108.3 2223.06  22
   3  -2   5 32466.5 2397.20   2
   3  -2   5 26092.7 2054.37  11
   3  -2   5 32488.6 2523.91  19
   3  -2   6 28904.3 2278.60   2
   3   2   6 29363.7 2244.03  22
   3  -2   6 27092.0 2092.82  11
   3   2   6 24735.0 1952.60  20
   3  -2   7 33788.6 2517.48   2
   3   2   7 30293.3 2355.88  22
   3  -2   7 29875.2 2220.34  11
   3  -2   8 2676.58 684.048  13
   3   2   8 1907.57 684.770  22
   3  -2   8 2191.46 634.250  11
   3  -2   8 2722.74 749.546   2
   3  -2   9 4886.18 842.087  16
   3  -2   9 6842.13 1010.46  13
   3   2   9 5575.81 1079.66  22
   3  -2   9 6309.92 977.613  11
   3  -2  10 8974.21 1162.51  16
   3  -2  10 8307.33 1047.03  13
   3   2  10 10005.9 1427.71  22
  -3   2 -10 7370.11 1165.54   6
   3  -2  11 5018.20 849.429  16
   3   2  11 6991.02 1143.76  22
  -3   2 -11 6420.73 1042.96   6
   3   2  12 9227.58 1256.63  22
   3  -2  12 10748.8 1151.10   4
  -3   2 -12 8446.09 1093.40   6
  -3  -3  11 2926.35 818.645  18
  -3  -3  11 4549.70 1236.51  17
  -3  -3  11 3128.87 795.519  16
   3   3 -11 3410.66 594.943  20
  -3  -3  10 42477.4 3147.45  18
  -3  -3  10 52585.0 4368.26  17
  -3  -3  10 44467.6 3209.82  16
   3   3 -10 57803.6 2759.87  20
  -3  -3  10 36280.2 2761.81  19
  -3  -3   9 892.242 840.285  17
  -3  -3   9 1658.17 685.141  16
   3   3  -9 1063.31 472.913  20
  -3  -3   8 3095.17 1267.64  17
  -3  -3   8 4825.63 1261.03  16
   3   3  -8 5702.65 987.631  20
  -3  -3   7 869.571 516.555   3
  -3  -3   7 2094.14 982.126  17
  -3  -3   7 1205.93 591.475  16
   3   3  -7 2468.45 704.640  20
  -3  -3   6 48.2257 175.835   3
  -3  -3   6-426.462 660.392  16
   3   3  -6 717.239 407.177  20
  -3  -3   5 3663.60 907.961   3
  -3  -3   5 4315.64 1122.63  16
   3   3  -5 7308.81 1175.54  20
   3  -3  -5 6572.43 1054.98  12
   3  -3  -4 55002.3 2943.75  12
   3   3  -4 41407.4 2786.68  20
   3  -3  -3 1863.72 497.939   9
   3  -3  -3 2512.08 683.910  12
   3  -3  -3 1328.03 410.575  10
   3   3  -3 1689.82 684.100  20
   3  -3  -2 4877.28 800.127  13
   3   3  -2 5964.79 1099.56  20
   3   3  -2 6024.85 1038.91  21
   3  -3  -2 4569.56 795.555  11
   3  -3  -2 4510.68 794.811  10
   3  -3  -1 22059.1 1749.81  13
   3   3  -1 26689.1 2148.75  21
   3  -3  -1 21106.4 1794.02  11
   3  -3  -1 27074.1 1972.69  10
   3   3  -1 25630.9 2222.34  20
   3  -3   0 830.105 404.057  13
   3  -3   0 474.860 274.319  11
   3  -3   0 325.367 258.164  10
   3   3   0 614.893 393.124  21
   3   3   0 62.0678 279.218  20
   3  -3   1 2615.34 662.556  13
   3   3   1 3196.30 788.575  21
   3  -3   1 3026.74 691.414   2
   3   3   1 3274.52 841.069  20
   3  -3   2 4226.04 874.082  13
  -3   3  -2 3216.06 792.013   6
   3   3   2 4112.32 871.316  21
   3  -3   2 3562.28 769.401   2
   3   3   2 3266.67 853.590  20
   3  -3   2 3009.25 781.412  19
   3  -3   3 4513.80 940.296   2
   3  -3   3 5030.89 896.288  13
  -3   3  -3 4298.81 875.139   6
   3   3   3 3791.34 812.218  21
   3   3   3 2619.02 692.369  20
   3  -3   3 6253.70 1084.63  19
   3  -3   4 67439.2 3577.18   2
   3  -3   4 64414.7 3339.05  13
  -3   3  -4 57913.5 3256.59   6
   3  -3   4 61586.6 3389.58  11
   3   3   4 58969.1 3317.15  21
   3   3   4 54812.9 3061.35  20
   3  -3   5 1518.46 601.280  11
   3  -3   5 969.983 467.674  13
   3   3   5 1147.47 443.332  21
  -3   3  -5 653.525 369.068   6
   3  -3   5 1161.93 559.174   2
   3  -3   6 4172.02 974.176   2
  -3   3  -6 2378.99 685.653   6
   3  -3   6 2921.66 749.475  13
   3  -3   6 2909.31 777.269  11
   3  -3   7 9808.96 1318.86   2
   3  -3   7 8896.08 1195.80  13
  -3   3  -7 6974.34 1104.99   6
   3  -3   7 8542.14 1206.90  11
   3  -3   8 18857.7 1755.69   2
   3  -3   8 18303.7 1633.66  13
  -3   3  -8 13450.4 1468.57   6
   3  -3   8 15716.9 1533.03  11
   3  -3   9-50.9793 155.556  13
   3  -3   9 33.6055 225.938  11
  -3   3  -9 139.271 193.116   6
   3  -3   9 99.5475 160.599  10
   3  -3  10 6781.02 847.863  13
  -3   3 -10 5518.60 811.179   6
   3  -3  10 6699.79 853.025  11
   3  -3  10 7207.68 854.098  10
  -3  -4   7 10672.7 1434.88  18
   3   4  -7 14817.5 1289.46  20
  -3  -4   6-1116.17 611.091  17
   3   4  -6 145.816 175.460  20
  -3  -4   5 9891.93 1749.94  17
   3   4  -5 12440.8 1318.92  20
  -3  -4   4 3123.87 1077.23  17
   3   4  -4 3158.92 684.281  20
   3  -4  -3 19539.1 1677.15  12
   3   4  -3 17577.9 1616.87  20
   3  -4  -2 2244.62 588.368  12
   3   4  -2 1035.67 402.732  20
   3  -4  -1-606.489 325.365  12
   3   4  -1 227.420 217.242  20
   3  -4   0 874.957 417.663  12
   3  -4   0 580.893 285.812  11
   3  -4   0 1663.04 453.618  10
   3   4   0 1365.93 462.925  20
   3  -4   1 130.804 167.088  12
   3   4   1 92.2611 204.620  21
   3  -4   1 418.282 229.011  11
   3  -4   1 122.614 141.775  10
   3   4   1 814.490 355.426  20
   3  -4   2 12.5800 154.964  13
   3  -4   2 524.054 337.294  12
   3   4   2 249.915 221.683  21
   3  -4   2-70.2405 153.055  11
   3  -4   2 144.559 128.718  10
   3  -4   3 1038.12 363.496  13
   3  -4   3 717.660 344.528  12
   3  -4   3 588.898 299.421  11
   3  -4   3 500.199 272.295  10
   3   4   3 471.549 346.478  21
   3  -4   4 2382.35 545.296  10
   3  -4   4 2390.13 537.364  13
   3  -4   4 3174.94 676.948  12
   3   4   4 2221.77 583.798  21
   3  -4   4 2412.90 588.785  11
   3  -4   5 6849.26 878.813  13
   3  -4   5 5879.30 833.060  12
   3  -4   5 6558.58 892.733  11
   3   4   5 6586.83 929.115  21
   3  -4   5 7354.19 912.107  10
   4   0 -15-600.805 293.736   7
   4   0 -14 22492.1 1791.15   7
   4   0 -13 222.602 227.142   7
   4   0 -12 242989. 6673.38   7
   4   0 -11-159.729 335.902   7
  -4   0  10 128081. 5705.05   3
  -4   0   9 412.050 349.736   3
   4   0  -9-57.4812 159.643   8
   4   0  -8 149403. 4572.08   8
  -4   0   8 156013. 6080.05   3
  -4   0   7-28.1761 348.461   3
   4   0  -7-14.0508 199.244   8
   4   0  -6 205606. 5043.07   8
   4   0  -6 196957. 4785.50   9
   4   0  -5-97.0541 184.828   9
  -4   0   4 132425. 3943.72   1
   4   0  -4 134857. 3658.63   9
  -4   0   3 685.651 270.281   1
   4   0  -3 174.732 205.865   9
   4   0  -2 418783. 6324.84   9
  -4   0   2 384387. 6589.95   1
  -4   0   1 168.212 169.901   1
   4   0  -1 89.5228 126.164   4
   4   0  -1 1.93254 169.210   9
   4   0   0 56186.6 2122.31   4
  -4   0   0 57683.6 2467.31   1
   4   0   0 58253.4 2112.29   9
   4   0   1-119.744 144.883   4
   4   0   1-93.5886 119.281   9
   4   0   2 2342.88 459.951   5
   4   0   2 1877.17 437.235   4
   4   0   3 91.4584 193.928   5
   4   0   3 88.1983 153.866   4
   4   0   4 123303. 3772.63   4
   4   0   4 141925. 3959.67   5
   4   0   5 231.113 244.895   5
   4   0   5 146.436 196.437   4
   4   0   6 26170.2 1866.50   4
   4   0   6 28397.0 1976.47   5
   4   0   7-47.2791 283.173   5
   4   0   7 96.2983 233.660   4
   4   0   8 31820.0 2213.03   4
   4   0   8 36591.8 2502.03   5
   4   0   9 120.796 360.184   5
   4   0   9 64.8571 217.476   4
   4   0  10 79919.3 3642.96   4
   4   0  10 92235.9 4180.89   5
   4   0  11 199.463 236.775   5
   4   0  11-162.916 213.547   4
   4   0  12 1380.58 509.099   5
   4   0  12 720.454 413.136   4
   4   0  13 219.585 169.055   5
  -4  -1  14 25788.0 2076.79  16
   4   1 -14 28029.7 2005.56   7
   4  -1 -14 30617.8 1954.15   7
  -4  -1  13 2220.42 673.244  16
   4   1 -13 2155.13 605.803   7
   4  -1 -13 2373.88 589.413   7
  -4  -1  12 7542.54 1380.01  16
   4   1 -12 7338.78 1144.59   7
   4   1 -11 62541.4 3208.52   8
  -4  -1  11 68239.6 4371.93  16
   4   1 -11 82154.7 3817.86   7
  -4  -1  11 83680.9 4999.74   3
   4   1 -10 84254.5 3809.21   8
  -4  -1  10 101865. 5857.14  17
  -4  -1  10 88031.3 5174.68  16
   4   1 -10 103314. 4246.11   7
  -4  -1  10 104849. 5617.83   3
  -4  -1   9-643.713 509.208   3
  -4  -1   9 242.863 435.841  17
   4   1  -9 358.091 325.069   8
  -4  -1   9 318.405 536.523  16
   4   1  -9-31.1484 245.949   7
   4   1  -8 229834. 6174.25   8
  -4  -1   8 178094. 8150.25  17
  -4  -1   8 188650. 7826.65  16
   4   1  -8 220561. 5963.33   7
  -4  -1   8 209057. 7905.43   3
   4   1  -7 11919.1 1393.04   8
   4   1  -7 13599.0 1424.69   7
   4  -1  -7 13378.9 1324.93   9
   4   1  -6 100378. 3841.33   8
   4   1  -6 92424.2 3545.97   7
   4   1  -6 103096. 3590.90  20
   4  -1  -6 100209. 3469.96   9
   4   1  -5 12556.2 1310.56   8
   4   1  -5 11863.6 1181.50   7
   4   1  -5 11229.3 1178.88  20
   4  -1  -5 11278.7 1109.20   9
   4   1  -4 89234.7 3442.01   8
   4   1  -4 85585.5 3046.61   7
   4  -1  -4 86748.4 3055.64   9
   4   1  -4 85639.2 3238.71  20
   4   1  -3 81268.2 3176.41   8
   4   1  -3 82919.6 2851.25   7
   4  -1  -3 84710.0 3071.90  12
   4   1  -3 84598.3 3186.74  20
   4  -1  -3 82386.3 2964.73   9
   4   1  -2 14212.2 1279.08   8
   4   1  -2 10164.0 954.634   7
   4  -1  -2 14325.3 1247.31  12
   4  -1  -2 13581.2 1154.24  10
   4   1  -2 14551.6 1305.66  20
   4  -1  -2 13660.2 1187.61   9
   4   1  -1 85454.9 3100.21   8
   4  -1  -1 85684.6 2912.89  11
   4  -1  -1 84207.8 2955.29  10
   4   1  -1 86215.2 3203.25  20
   4   1   0 150285. 4131.99   8
   4  -1   0 152811. 3472.67   4
   4  -1   0 156289. 4067.46  13
   4  -1   0 157818. 4126.62  11
   4  -1   0 153700. 4027.26  10
   4   1   0 154906. 4418.05  20
   4   1   1 3461.60 587.205   8
   4  -1   1 4251.75 610.678   4
   4  -1   1 3305.74 605.654  13
   4  -1   1 4575.66 744.129  12
   4  -1   1 3478.97 633.207  11
   4  -1   1 3241.35 594.857  10
   4   1   1 3315.92 654.300  20
   4   1   2 92076.9 3311.07   4
   4  -1   2 96599.2 3293.79  13
   4  -1   2 105523. 3479.44  12
   4  -1   2 96507.2 3387.35  11
   4  -1   2 96004.1 3223.73  10
   4   1   2 94707.6 3332.27   5
   4   1   2 94261.0 3580.22  20
   4   1   3 20238.1 1579.68   4
   4  -1   3 22860.8 1623.92  13
   4  -1   3 26632.8 1719.07  12
   4  -1   3 24440.8 1738.32  11
   4  -1   3 23288.4 1598.01  10
   4   1   3 21929.3 1623.48   5
   4   1   4 11422.7 1239.53   4
   4  -1   4 13499.0 1266.73  13
   4  -1   4 13475.7 1335.58  11
   4  -1   4 13152.4 1226.19  10
   4   1   4 12465.3 1279.72   5
   4   1   5 85315.5 3522.20   4
   4  -1   5 88971.2 3386.28  13
   4  -1   5 92624.9 3579.54  11
   4  -1   5 93029.2 3289.33  10
   4   1   5 88597.3 3587.19   5
   4   1   6 1109.04 495.325   5
   4   1   6 869.318 377.004   4
   4  -1   6 1137.82 450.628  13
   4  -1   6 752.781 357.719  11
   4  -1   6 1221.07 451.829  10
   4   1   7 23276.7 1919.25   4
   4   1   7 27121.1 2136.12   5
   4   1   8 4957.87 994.269   5
   4   1   8 3986.47 906.009   4
   4  -1   8 3739.13 977.120   4
   4   1   9 12251.2 1420.29   4
   4  -1   9 14692.2 1552.62   4
   4   1   9 11330.4 1423.05  20
   4   1   9 13540.8 1606.26   5
   4   1  10-135.011 394.298   5
   4  -1  10-133.874 230.742   5
   4   1  10-63.5185 300.471   4
   4  -1  10-162.131 297.525   4
   4  -1  11 31042.5 2292.07   5
   4  -1  11 32469.0 2229.07   4
   4   1  11 32257.9 2447.28   5
   4   1  12 1974.35 633.177   5
   4  -1  12 1270.58 459.519   5
   4  -1  12 1828.65 515.262   4
   4   1  13 4014.97 792.900   5
   4  -1  13 4565.00 767.409   5
   4  -1  13 3221.81 592.792   4
  -4  -2  13 563.698 359.812  16
   4   2 -13-207.693 213.911   7
  -4  -2  12 21805.0 2305.41  16
   4   2 -12 24097.8 2004.63   7
  -4  -2  11 3673.85 1137.10  17
  -4  -2  11 2699.08 964.401  16
   4   2 -11 2815.68 699.861   7
  -4  -2  10-122.778 385.522   3
  -4  -2  10 92.2967 500.913  17
  -4  -2  10 477.141 533.886  16
   4   2 -10-189.145 361.230   7
  -4  -2   9 77827.9 6036.43  17
  -4  -2   9 86490.6 5451.50  16
   4   2  -9 99830.4 4341.15   7
   4   2  -9 77816.8 3451.98  20
  -4  -2   9 92151.8 5324.23   3
   4   2  -8 8101.09 1252.99   8
  -4  -2   8 6335.01 1401.48   3
  -4  -2   8 3653.47 1155.09  17
  -4  -2   8 3497.56 1009.47  16
   4   2  -8 4736.51 915.991   7
   4   2  -8 7565.84 1113.36  20
   4  -2  -8 7135.68 944.831   9
  -4  -2   7 1348.66 770.635   3
   4   2  -7 1501.78 818.524   8
   4   2  -7 1169.90 569.606   7
   4   2  -7 2217.25 713.705  20
   4  -2  -7 1660.18 541.167   9
   4   2  -6 54935.7 3249.25   8
   4   2  -6 48061.3 2835.20   7
   4   2  -6 54971.6 3044.84  20
   4  -2  -6 55999.1 2749.62   9
   4   2  -5 24095.4 2126.38   8
   4   2  -5 22769.3 1887.86   7
   4  -2  -5 28647.8 2035.44  12
   4   2  -5 24208.9 2024.91  20
   4  -2  -5 26404.1 1870.50   9
   4   2  -4 4631.61 939.090   8
   4   2  -4 4343.29 800.493   7
   4  -2  -4 6122.09 993.707  12
   4   2  -4 5052.41 983.049  20
   4  -2  -4 5505.15 861.741   9
   4   2  -3 152650. 5195.06   8
   4   2  -3 159768. 4694.00   7
   4   2  -3 160426. 5339.69  20
   4  -2  -3 157780. 4329.93  11
   4  -2  -3 157467. 4569.40  10
   4  -2  -3 158920. 4805.86   9
   4   2  -2 123768. 4519.82   8
   4  -2  -2 119850. 3886.78  13
   4  -2  -2 118151. 3873.68  11
   4  -2  -2 122580. 4036.21  10
   4   2  -2 120889. 4610.61  20
   4   2  -1 7566.78 1096.75   8
   4  -2  -1 7826.84 1041.54  13
   4  -2  -1 8756.28 1159.63  12
  -4   2   1 5697.25 822.798   6
   4  -2  -1 8066.05 1026.35  11
   4   2  -1 4891.34 779.012  21
   4  -2  -1 8967.28 1098.81  10
   4   2  -1 8094.00 1215.63  20
   4   2   0 72222.9 3280.78   8
   4  -2   0 71858.7 3136.44  13
   4  -2   0 80639.0 3469.90  12
   4  -2   0 71968.0 3201.98  11
  -4   2   0 66212.7 2979.98   6
   4  -2   0 69271.6 3112.83  10
   4   2   0 69737.5 3488.11  20
   4  -2   1 16605.2 1559.83  13
   4  -2   1 17668.8 1632.36  12
   4  -2   1 16419.7 1558.86  11
  -4   2  -1 16149.2 1520.29   6
   4   2   1 11969.5 1239.36  21
   4  -2   1 18616.7 1628.27  10
   4   2   1 16911.5 1720.96  20
   4  -2   2 97978.5 3881.33  13
   4  -2   2 105145. 4005.69  12
   4  -2   2 97093.1 3914.81  11
  -4   2  -2 87976.5 3743.18   6
   4  -2   2 98386.4 3867.39  10
   4   2   2 93219.8 4070.77  20
   4  -2   3 583.895 353.687  13
   4  -2   3 898.172 341.772  12
   4  -2   3 1107.83 511.618  11
   4  -2   3 773.866 473.901  10
  -4   2  -3 727.739 385.573   6
   4   2   3 904.680 487.218  20
   4  -2   4 1838.63 560.847  13
   4  -2   4 1658.57 575.192  12
   4  -2   4 2586.75 705.496  11
   4  -2   4 1703.00 585.623  10
  -4   2  -4 1731.53 614.945   6
   4   2   4 1279.47 532.901  20
   4   2   5 478.317 335.614  22
   4  -2   5 94.8547 254.232  13
   4  -2   5 562.935 316.994  12
   4  -2   5 711.751 442.251  11
   4  -2   5 609.062 377.161  10
  -4   2  -5 1123.24 578.056   6
   4   2   5 492.306 328.828  20
   4  -2   6 2031.21 605.187  13
   4  -2   6 2031.48 562.124  12
   4   2   6 1333.14 490.334  22
   4  -2   6 2293.55 658.415  11
   4  -2   6 2252.47 646.348  10
   4   2   6 1862.16 587.589  20
   4  -2   7 37592.5 2455.23  13
   4   2   7 33590.3 2513.12  22
   4  -2   7 39361.8 2619.52  11
   4  -2   7 40767.5 2503.43  10
   4   2   7 30419.8 2322.76  20
   4  -2   8 22945.8 1940.94  13
   4  -2   8 18721.5 1778.46  11
  -4   2  -8 16847.9 1883.58   6
   4  -2   8 22646.0 1860.20  10
   4  -2   9-238.256 228.948  13
   4  -2   9 197.018 220.497  11
   4   2   9-396.725 291.719  22
  -4   2  -9 117.800 357.498   6
   4  -2  10 22171.8 1785.26   4
   4   2  10 24340.1 2009.46  22
  -4   2 -10 18525.6 1758.11   6
   4  -2  11 9218.81 1094.51   4
  -4   2 -11 8895.44 1141.35   6
   4  -2  12 2170.05 516.297   4
  -4   2 -12 2323.45 537.498   6
  -4  -3  11 3130.89 918.369  17
  -4  -3  11 2548.96 697.044  16
  -4  -3  10 3961.66 838.974  19
  -4  -3  10 5708.73 1028.88  18
  -4  -3  10 6415.45 1486.56  17
  -4  -3  10 5392.96 1094.49  16
   4   3 -10 6551.25 875.074  20
  -4  -3   9 481.907 717.455  17
  -4  -3   9 128.866 265.759  16
   4   3  -9 107.346 158.777  20
  -4  -3   8 7643.67 1887.63  17
  -4  -3   8 11717.1 1875.38  16
   4   3  -8 14105.9 1487.27  20
  -4  -3   8 10930.3 1624.19   3
  -4  -3   7-410.407 345.274   3
  -4  -3   7-706.608 1099.28  17
  -4  -3   7 313.315 467.392  16
   4   3  -7-332.961 362.359  20
  -4  -3   6 2485.79 785.578   3
  -4  -3   6 2032.31 807.223  16
  -4  -3   5 1113.04 555.438   3
   4  -3  -5 1652.18 520.062  12
   4   3  -5 1433.38 677.260  20
   4   3  -4 106966. 4620.36  20
   4  -3  -4 107404. 3931.57   9
   4  -3  -3 20822.5 2023.72  12
   4   3  -3 16214.8 1812.93  20
   4  -3  -3 16279.8 1590.05   9
   4  -3  -2 51870.5 3158.35  12
   4  -3  -2 43194.4 2550.12  10
   4   3  -2 42047.4 2929.82  20
   4  -3  -2 43354.2 2658.52   9
   4  -3  -1 6559.16 1027.71  13
   4  -3  -1 7154.56 1241.78  12
   4  -3  -1 8266.56 1145.65  11
   4   3  -1 6826.13 1100.71  21
   4  -3  -1 5706.72 967.388  10
   4   3  -1 7788.28 1298.94  20
   4  -3   0 23481.7 1935.42  13
   4  -3   0 25863.9 2190.39  12
   4  -3   0 24780.5 2015.75  11
   4   3   0 22273.4 1969.39  21
   4  -3   0 25006.8 1991.28  10
   4   3   0 23476.4 2177.30  20
   4  -3   1 54559.4 2994.53  13
   4  -3   1 59732.5 3358.27  12
   4  -3   1 60102.2 3195.21  11
   4   3   1 53475.7 3052.88  21
   4  -3   1 58532.8 3127.80  10
   4   3   1 55197.4 3298.18  20
   4  -3   2 2562.80 686.927  13
  -4   3  -2 1786.16 583.365   6
   4  -3   2 2005.60 579.558  12
   4  -3   2 1698.42 576.498  11
   4   3   2 1715.49 552.083  21
   4  -3   2 2165.99 654.838  10
   4   3   2 1225.17 507.630  20
   4  -3   3 152.822 251.153  13
   4  -3   3 81.1933 269.457  12
   4  -3   3 126.678 354.846  11
   4   3   3 295.829 289.859  21
  -4   3  -3 199.355 243.369   6
   4  -3   3-34.7124 298.348  10
   4   3   3 207.695 185.727  20
   4  -3   4 2399.55 685.415  13
   4  -3   4 2788.52 721.537  12
   4  -3   4 3056.14 779.161  11
   4   3   4 1079.14 425.625  21
  -4   3  -4 1876.60 571.566   6
   4  -3   4 2996.59 716.907  10
   4   3   4 2039.94 632.828  20
   4  -3   5 28211.7 2182.21  13
   4  -3   5 29616.2 2169.80  12
  -4   3  -5 24803.3 2069.34   6
   4  -3   5 28311.6 2217.74  11
   4   3   5 24156.2 2033.36  21
   4  -3   5 30428.8 2230.00  10
   4  -3   6 36584.6 2412.36  13
  -4   3  -6 32554.1 2341.14   6
   4  -3   6 38614.5 2523.79  11
   4   3   6 33225.6 2345.76  21
   4  -3   6 38344.0 2416.60  10
   4  -3   7 2114.06 576.987  13
   4  -3   7 2633.65 643.307  11
   4   3   7 1998.39 569.908  21
  -4   3  -7 2032.70 585.681   6
   4  -3   7 2358.26 563.102  10
   4  -3   8 3479.46 740.001  13
   4  -3   8 2644.21 664.595  11
   4   3   8 1339.28 438.094  21
  -4   3  -8 1552.84 522.907   6
   4  -3   8 3091.68 621.653  10
   4  -3   9 643.582 305.708  13
   4  -3   9 532.426 245.138   4
  -4   3  -9 114.252 158.638   6
   4   4  -5 245.421 192.144  20
  -4  -4   4-995.799 616.006  17
   4   4  -4 641.582 317.921  20
   4  -4  -3 25018.3 1699.35  12
   4   4  -3 21343.5 1682.79  20
   4  -4  -2 794.371 384.546  12
   4   4  -2 856.938 333.589  20
   4  -4  -1 17466.3 1555.59  12
   4   4  -1 13751.7 1357.56  20
   4  -4   0 24135.6 1591.52  10
   4   4   0 25574.3 1812.15  20
   4  -4   1 186.183 272.396  12
   4  -4   1-179.744 181.730  11
   4  -4   1-348.087 229.318  10
   4   4   1 39.4172 136.185  20
   4  -4   1-614.174 293.409   9
   4  -4   2 66.8862 145.621  12
   4  -4   2 439.825 250.048  11
   4  -4   2 476.893 253.917  10
   4  -4   3 20759.7 1595.02  12
   5   0 -14 60910.4 2869.43   7
   5   0 -13-48.2557 219.203   7
   5   0 -12 24109.3 2079.03   7
   5   0 -11 313.004 285.642   7
   5   0 -10 270821. 6959.78   8
  -5   0  10 245026. 8126.40   3
  -5   0   9-241.686 329.613   3
   5   0  -9 156.050 371.663   8
   5   0  -8 16115.0 1715.01   8
  -5   0   8 15965.6 2066.05   3
  -5   0   7-184.225 279.749   3
   5   0  -7 264.383 341.234   8
   5   0  -6 81722.9 3548.45   8
   5   0  -5 187.530 277.611   8
   5   0  -5 296.407 281.878   9
   5   0  -4 13621.3 1273.75   9
   5   0  -3 328.640 225.821  20
   5   0  -3 116.346 213.459   9
   5   0  -2 64866.8 2821.59  20
   5   0  -2 64204.3 2633.97   9
   5   0  -1 180.010 213.876   4
   5   0  -1 81.2183 145.141   9
   5   0   0 61810.0 2630.17   4
   5   0   0 63531.0 2514.44   9
   5   0   1 26.9747 131.186   4
   5   0   1-212.057 169.609   9
   5   0   2 1482.84 385.409   5
   5   0   2 1469.14 426.638   4
   5   0   3 41.2462 224.018   5
   5   0   3 33.2878 185.871   4
   5   0   4 16465.2 1543.68   4
   5   0   4 12941.4 1295.14   5
   5   0   5 81.0746 199.183   5
   5   0   5-233.027 291.069   4
   5   0   6 172.929 295.668   5
   5   0   6 41.4165 266.308   4
   5   0   7-425.907 337.058   5
   5   0   7-32.5674 313.322   4
   5   0   8 18352.6 1840.33   4
   5   0   8 16460.9 1737.74   5
   5   0   9-665.248 386.931   5
   5   0   9-637.986 362.801   4
   5   0  10 49110.4 2915.64   4
   5   0  10 53082.6 3041.40   5
   5   0  11-275.896 255.901   5
   5   0  11 103.584 183.103   4
   5   0  12-193.970 221.185   5
   5   0  12 440.320 236.770   4
   5   1 -14 7276.51 968.372   7
   5  -1 -14 8107.00 988.261   7
   5   1 -13 32546.8 2230.46   7
   5  -1 -13 32267.3 2194.53   7
  -5  -1  12 11332.1 1539.00  16
   5   1 -12 14377.5 1561.66   7
   5   1 -11 53584.9 3047.12   8
  -5  -1  11 57297.4 3857.61  16
   5   1 -11 69636.0 3535.65   7
  -5  -1  11 66572.4 4440.34   3
   5   1 -10 59070.3 3302.45   8
  -5  -1  10 51152.1 3850.59  16
   5   1 -10 60232.7 3301.87   7
  -5  -1  10 57187.1 4226.05   3
   5   1  -9 6890.96 1168.19   8
  -5  -1   9 7197.75 1513.37   3
   5  -1  -9 6159.94 983.261   8
  -5  -1   9 4437.03 1266.46  16
   5   1  -9 6356.36 1130.02   7
   5   1  -8 25737.2 2188.68   8
   5   1  -8 25974.2 2121.87   7
  -5  -1   8 25122.4 2790.72   3
   5   1  -7 10508.3 1417.87   8
   5   1  -7 9425.07 1257.52   7
   5  -1  -7 9895.19 1255.08   9
   5   1  -6 92747.6 4095.00   8
   5   1  -6 87540.4 3648.43   7
   5  -1  -6 93122.7 3718.46   9
   5   1  -5 54156.5 3080.92   8
   5   1  -5 50772.9 2724.58   7
   5  -1  -5 51535.2 2703.90   9
   5   1  -4 6645.47 1066.52   8
   5   1  -4 7492.43 967.777   7
   5   1  -4 6486.07 975.163  20
   5  -1  -4 6970.56 995.389   9
   5   1  -3 10562.2 1302.54   8
   5   1  -3 11199.3 1155.21   7
   5   1  -3 10096.9 1236.91  20
   5  -1  -3 10377.1 1176.37   9
   5   1  -2 2616.92 670.572   8
   5   1  -2 2581.18 650.443  20
   5  -1  -2 2902.50 671.334   9
   5   1  -1 32656.8 2172.85   8
   5  -1  -1 33190.6 2146.73  12
   5   1  -1 30874.2 2164.78  20
   5  -1  -1 33677.5 2123.94   9
   5   1   0 34939.5 2201.85   8
   5  -1   0 33967.3 1824.81   4
   5  -1   0 37285.4 2259.28  12
   5   1   0 32294.2 2274.27  20
   5  -1   0 33906.4 2117.63   9
   5   1   1 623.394 325.012   8
   5  -1   1 505.171 410.921  12
   5  -1   1-424.085 237.529   4
   5  -1   1 593.301 382.803  10
   5   1   1 522.267 399.487  20
   5  -1   2 939.798 412.801  12
   5  -1   2 1074.49 335.009   4
   5  -1   2 1593.82 529.307  10
   5   1   2 1302.76 548.374  20
   5   1   3 15718.8 1588.71   4
   5  -1   3 16245.6 1461.74   4
   5  -1   3 13783.1 1322.78  12
   5  -1   3 17524.1 1556.75  10
   5   1   3 16847.7 1746.62  20
   5   1   4 5829.37 1017.60   4
   5  -1   4 6357.39 968.743   4
   5  -1   4 6741.31 988.028  10
   5   1   4 5357.18 984.519   5
   5   1   4 5814.77 1066.72  20
   5   1   5 938.719 409.831   5
   5   1   5 394.098 328.781   4
   5  -1   5 409.041 304.943   4
   5  -1   5 684.862 338.334  10
   5   1   5 62.1820 224.333  20
   5   1   6 10963.1 1414.36   4
   5  -1   6 11664.5 1376.86   4
   5   1   6 12318.8 1592.03  20
   5   1   6 11814.6 1503.03   5
   5   1   7-2.41980 299.283   5
   5  -1   7 566.585 409.285   5
   5   1   7-56.7604 267.325   4
   5  -1   7 87.7056 279.884   4
   5   1   7 674.265 471.395  20
   5   1   8 28351.2 2325.94   4
   5  -1   8 34496.7 2409.33   4
   5   1   8 37682.4 2707.62  20
   5   1   8 32233.7 2526.26   5
   5  -1   9 3881.93 760.913   5
   5  -1   9 5446.92 965.981   4
   5   1   9 5831.31 1094.30   5
   5   1   9 5337.97 1020.41  20
   5   1  10 4322.14 956.228   5
   5  -1  10 5106.09 843.131   5
   5  -1  10 4175.91 817.505   4
   5  -1  11 7539.15 1020.81   4
   5   1  11 7585.24 1161.70   5
   5  -1  11 9343.44 1105.50   5
   5  -1  12 407.715 253.020   4
  -5  -2  12 7287.41 1200.18  16
   5   2 -12 8326.27 1091.95   7
  -5  -2  11 2233.90 876.509  17
  -5  -2  11 1843.05 794.392  16
   5   2 -11 2413.37 636.822   7
  -5  -2  11 2094.86 786.955   3
  -5  -2  10 5026.14 1237.34   3
  -5  -2  10 5372.01 1489.97  17
   5   2 -10 5799.94 1008.67   7
  -5  -2  10 4306.49 1220.19  16
  -5  -2   9 452.362 323.780   3
  -5  -2   9-65.9639 411.487  17
  -5  -2   9 1731.10 900.839  16
   5   2  -9 1088.13 491.223   7
   5   2  -8 103599. 4642.18   8
  -5  -2   8 81078.7 6154.55  17
  -5  -2   8 83374.3 5537.66  16
   5   2  -8 101899. 4332.50   7
   5   2  -8 74837.6 3447.54  20
   5  -2  -8 90406.3 3720.50   9
  -5  -2   8 92029.6 5487.42   3
   5   2  -7 70605.6 3882.59   8
   5   2  -7 74926.1 3665.04   7
   5   2  -7 71515.8 3480.76  20
   5  -2  -7 73143.9 3403.61   9
  -5  -2   7 62073.0 4555.70   3
   5   2  -6 309.601 370.619   8
   5   2  -6-116.103 159.285   7
   5   2  -6-131.948 406.216  20
   5  -2  -6 34.6044 257.233   9
   5   2  -5 15633.2 1797.59   8
   5   2  -5 17120.5 1784.36  20
   5  -2  -5 17616.1 1675.49   9
   5   2  -4 38015.0 2765.57   8
   5  -2  -4 46303.1 2814.89  12
   5   2  -4 45166.1 2919.79  20
   5  -2  -4 42195.1 2606.96   9
   5   2  -3 665.983 393.380   8
   5  -2  -3 469.351 421.106  12
   5   2  -3 465.795 447.669  20
   5  -2  -3 288.895 351.025   9
   5  -2  -2 1834.03 627.620   9
   5   2  -2 1591.27 603.972   8
   5  -2  -2 1739.30 598.190  12
   5   2  -2 1705.28 628.519  20
   5   2  -1 32197.7 2452.05   8
   5  -2  -1 43110.0 2861.53  12
   5  -2  -1 35605.9 2447.77  10
   5   2  -1 36063.0 2654.26  20
   5  -2  -1 36939.2 2507.75   9
   5   2   0 7327.37 1109.61   8
   5  -2   0 7630.48 1149.27  13
   5  -2   0 9108.16 1379.58  12
   5  -2   0 6905.56 1091.80  11
  -5   2   0 4877.81 825.912   6
   5  -2   0 8547.24 1225.02  10
   5   2   0 7030.57 1186.97  20
   5  -2   1 14646.1 1579.47  13
   5  -2   1 20454.1 2002.62  12
   5  -2   1 14661.1 1618.53  11
  -5   2  -1 13749.1 1431.18   6
   5  -2   1 15809.8 1635.00  10
   5   2   1 13591.2 1702.35  20
   5  -2   2 15106.3 1358.55   4
   5  -2   2 16740.0 1717.03  13
   5  -2   2 21590.8 2037.25  12
   5  -2   2 18933.4 1848.97  11
  -5   2  -2 12034.6 1418.99   6
   5  -2   2 17521.6 1710.84  10
   5   2   2 16342.7 1844.84  20
   5  -2   3 19067.8 1620.06   4
   5  -2   3 23626.9 2048.21  13
   5  -2   3 26801.5 2221.78  11
  -5   2  -3 22343.8 1991.21   6
   5  -2   3 25864.7 2113.06  10
   5   2   3 22858.6 2202.39  20
   5  -2   4 15178.7 1491.51   4
   5  -2   4 15145.5 1635.44  13
   5  -2   4 12609.6 1478.66  12
   5  -2   4 13979.9 1627.65  11
  -5   2  -4 12709.2 1537.31   6
   5  -2   4 15396.1 1632.60  10
   5   2   4 13565.6 1705.49  20
   5  -2   5 5726.26 940.302   4
   5  -2   5 6328.47 1052.82  13
   5  -2   5 4201.19 832.570  12
   5  -2   5 6813.03 1149.65  11
  -5   2  -5 5729.09 1046.40   6
   5  -2   5 6598.71 1063.03  10
   5   2   5 5546.71 1084.23  20
   5  -2   6 1830.58 594.088  13
   5  -2   6 1895.16 609.312  11
   5  -2   6 2864.91 693.913   4
   5  -2   6 999.345 464.780  10
  -5   2  -6 1877.67 614.768   6
   5   2   6 947.701 518.575  20
   5  -2   7 24168.5 1928.24   4
   5  -2   7 25101.5 1968.11  13
   5  -2   7 24795.1 1870.03  10
  -5   2  -7 21210.4 1967.70   6
   5   2   7 23278.6 2066.39  20
   5  -2   8 3099.08 748.307   4
  -5   2  -8 2778.43 747.816   6
   5  -2   9 5594.14 878.620   4
  -5   2  -9 5201.15 899.844   6
   5  -2  10 2959.48 605.418   4
  -5   2 -10 2220.83 576.703   6
  -5  -3   9 6887.67 1487.46  17
  -5  -3   9 6030.06 1203.88  16
  -5  -3   8 16220.3 2491.29  17
  -5  -3   8 13986.5 1958.78  16
   5   3  -8 19293.6 1590.76  20
  -5  -3   8 17835.9 1896.49   3
  -5  -3   7 1152.71 543.207   3
  -5  -3   7 456.133 537.138  17
  -5  -3   7 1110.34 634.946  16
   5   3  -7 1449.59 490.094  20
  -5  -3   6 1202.48 536.580   3
  -5  -3   6 2160.05 842.485  16
   5   3  -6 1587.54 562.765  20
   5   3  -5 23104.2 2041.34  20
   5  -3  -5 25236.3 1858.50   9
  -5  -3   5 21072.2 2330.58   3
   5  -3  -4 28580.7 2163.82  12
   5   3  -4 24720.4 2170.57  20
   5  -3  -4 18188.8 1620.61   9
  -5  -3   4 16408.9 2080.09   3
   5  -3  -3 12788.2 1508.09  12
   5   3  -3 12293.3 1550.84  20
   5  -3  -3 10899.0 1316.98   9
   5  -3  -2 70078.9 3595.11  12
   5   3  -2 58572.3 3430.87  20
   5  -3  -2 62205.2 3212.87   9
   5  -3  -1 43076.7 2898.83  12
   5  -3  -1 34188.3 2346.02  10
   5   3  -1 34478.4 2633.37  20
   5  -3  -1 34955.7 2442.64   9
   5  -3   0 38083.3 2774.74  12
   5  -3   0 30418.0 2206.83  11
   5  -3   0 30898.8 2249.36  10
   5   3   0 29818.4 2448.14  20
   5  -3   0 28593.8 2209.13   9
   5  -3   1 14797.0 1565.66  13
   5  -3   1 16639.4 1677.29  11
   5  -3   1 14467.0 1551.85  10
   5   3   1 14671.9 1728.00  20
   5  -3   2 21752.6 1901.73  13
   5  -3   2 23129.2 1984.23  11
   5  -3   2 23638.1 1967.61  10
   5   3   2 18779.6 1947.83  20
   5  -3   3 1262.24 485.241  13
   5  -3   3 1277.74 518.226  12
   5  -3   3 1677.34 541.671  11
   5  -3   3 1416.09 550.876  10
   5   3   3 1723.12 574.647  20
   5  -3   4 731.173 342.670  13
   5  -3   4 414.611 340.132  12
   5  -3   4 186.813 208.583  11
  -5   3  -4 433.961 278.544   6
   5  -3   4 536.364 326.761  10
   5   3   4 548.644 343.620  20
   5  -3   5 757.962 388.832  13
   5  -3   5 876.479 444.004  12
   5  -3   5 996.659 425.090  11
  -5   3  -5 1000.59 386.856   6
   5  -3   5 1119.06 444.423  10
   5  -3   6 293.890 272.333  13
   5  -3   6 160.845 260.396   4
  -5   3  -6 326.564 262.905   6
   5  -3   6 135.181 188.954  10
  -5   3  -7 2341.65 553.578   6
   5  -3   7 3346.79 611.560  10
   6   0 -13 192.855 154.096   7
   6   0 -12 1247.45 429.913   7
   6   0 -11-302.198 222.507   8
   6   0 -11-232.743 291.549   7
   6   0 -10 34358.0 2474.26   8
   6   0 -10 41237.1 2750.73   7
   6   0  -9-76.4796 345.650   8
   6   0  -9 16.4686 212.882   7
   6   0  -8 20693.3 2024.68   8
  -6   0   8 12798.1 1874.25   3
  -6   0   7 93.8078 267.231   3
   6   0  -7-147.583 383.464   8
   6   0  -6-26.1827 258.891   8
   6   0  -5 29.7492 247.221   8
   6   0  -5-78.3930 247.514   9
   6   0  -4 122841. 4723.73   8
   6   0  -4 113462. 4184.87   9
   6   0  -3-156.711 377.433   8
   6   0  -3 91.7703 295.604   9
   6   0  -2 5521.99 861.891   9
   6   0  -2 4982.41 857.438  20
   6   0  -1-24.9742 198.379  20
   6   0  -1 297.065 329.320   9
   6   0   0 200967. 5500.05   4
   6   0   0 145970. 4395.61   9
   6   0   1 37.6270 283.811   4
   6   0   2 185949. 5640.05   4
   6   0   3-2.18725 316.236   4
   6   0   4 146472. 5169.08   4
   6   0   4 101664. 4013.18   5
   6   0   5-303.905 275.520   5
   6   0   5 160.488 301.472   4
   6   0   6 258563. 7275.97   4
   6   0   6 271835. 6930.95   5
   6   0   7 922.578 413.888   5
   6   0   7-204.441 239.478   4
   6   0   8 13137.7 1591.46   4
   6   0   8 9486.47 1250.26   5
   6   0   9 372.979 335.832   5
   6   0   9-187.869 293.767   4
   6   0  10 23896.3 1890.52   4
   6   0  10 28586.0 2003.36   5
   6   1 -13-426.080 241.609   7
   6  -1 -13 45.1876 169.390   7
   6   1 -12 208.095 205.419   7
   6  -1 -12 676.520 396.791   7
   6   1 -11 9047.12 1206.68   8
   6   1 -11 8131.72 1162.14   7
  -6  -1  11 6554.29 1313.29   3
   6   1 -10 12054.8 1484.54   8
   6  -1 -10 15143.7 1567.83   8
   6   1 -10 12394.6 1498.43   7
  -6  -1  10 11867.9 1849.88   3
   6   1  -9 28143.6 2350.81   8
   6  -1  -9 20973.6 1915.28   8
  -6  -1   9 18535.3 2369.34  16
   6   1  -9 27567.4 2190.09   7
  -6  -1   9 20151.3 2539.20   3
   6   1  -8 6974.97 1219.74   8
   6  -1  -8 5812.97 1065.90   8
  -6  -1   8 5250.29 1430.31   3
  -6  -1   8 4743.50 1369.86  16
   6   1  -8 5243.39 977.048   7
   6   1  -7 3687.70 889.333   8
   6   1  -7 3839.01 808.233   7
   6  -1  -7 3734.79 823.209   9
   6   1  -6 639.974 500.269   8
   6   1  -6 921.782 453.559   7
   6  -1  -6 1015.42 472.159   9
   6   1  -5 48830.8 3156.84   8
   6   1  -5 53664.3 2831.75   7
   6  -1  -5 48465.8 2889.85   9
   6   1  -4 41350.6 2872.50   8
   6  -1  -4 39231.8 2543.14   9
   6   1  -3 16646.3 1812.89   8
   6   1  -3 14212.6 1587.11  20
   6  -1  -3 13573.5 1481.74   9
   6   1  -2 3704.40 923.833   8
   6  -1  -2 4843.47 899.528   9
   6   1  -2 3454.55 820.928  20
   6   1  -1 10494.1 1392.05   8
   6   1  -1 8564.58 1308.14  20
   6  -1  -1 10532.6 1319.46   9
   6   1   0 231947. 6914.90  20
   6  -1   0 233652. 6218.80   9
   6  -1   1 101065. 3736.42   4
   6   1   1 106449. 4667.85  20
   6  -1   1 103922. 4067.93   9
   6  -1   2 7334.78 1025.68   4
   6   1   2 11314.1 1557.57  20
   6  -1   2 10388.6 1283.76   9
   6  -1   3 123422. 4415.64   4
   6   1   3 126762. 5251.13  20
   6  -1   4 37594.9 2445.78   4
   6   1   4 39550.8 2943.51  20
   6  -1   4 33497.0 2198.20   9
   6  -1   5 9429.33 1281.88   4
   6   1   5 9608.01 1469.16  20
   6  -1   6 36252.9 2472.60   4
   6   1   6 41177.6 2986.48  20
   6  -1   7 21136.8 1895.37   4
   6   1   7 22678.6 2170.54  20
   6  -1   8 51821.2 2887.07   4
   6   1   8 54662.3 3217.94  20
   6  -1   9 25345.9 1966.97   4
   6   1   9 25813.7 2064.20  20
   6  -1  10 67354.5 3018.41   4
  -6  -2  11 438.392 258.516  16
   6   2 -11 131.189 175.546   7
  -6  -2  10 6226.63 1285.16  16
   6   2 -10 7997.92 1088.28   7
  -6  -2  10 7816.44 1379.14   3
  -6  -2   9 1004.33 645.173   3
  -6  -2   9 645.685 562.774  16
   6   2  -9 417.807 334.053   7
  -6  -2   8 1497.10 971.080  17
  -6  -2   8 4034.36 1101.32   3
   6   2  -8 3604.30 862.835   8
  -6  -2   8 2111.51 913.579  16
   6   2  -8 3965.75 817.726   7
   6   2  -7 8197.38 1342.29   8
  -6  -2   7 7589.60 1554.37   3
   6   2  -7 8686.73 1163.00   7
  -6  -2   7 4793.22 1297.43  16
   6   2  -7 9028.19 1204.03  20
   6  -2  -7 9888.12 1245.88   9
   6   2  -6 18400.4 1987.96   8
   6   2  -6 13013.2 1509.65  20
   6  -2  -6 18394.2 1754.68   9
   6   2  -5 21454.3 2162.83   8
   6   2  -5 21611.2 2022.31  20
   6  -2  -5 23236.7 1988.73   9
   6   2  -4 1598.56 643.631   8
   6   2  -4 1633.42 599.242  20
   6  -2  -4 2039.44 610.708   9
   6   2  -3 28663.3 2502.98   8
   6   2  -3 31322.6 2528.26  20
   6  -2  -3 32342.0 2400.94   9
   6   2  -2 137811. 5275.18   8
   6   2  -2 133289. 5404.43  20
   6  -2  -2 141245. 5109.29   9
   6   2  -1 10077.5 1404.87   8
   6   2  -1 10292.4 1512.17  20
   6  -2  -1 10922.1 1450.75   9
   6  -2   0 70397.7 3576.66  12
   6   2   0 60308.8 3657.93  20
   6  -2   0 59469.1 3343.88   9
   6  -2   1 40241.9 2699.01  12
   6   2   1 37976.4 2893.20  20
   6  -2   1 39073.6 2664.57   9
   6  -2   2 56352.2 3109.18  12
   6   2   2 48868.4 3300.68  20
   6  -2   2 48170.7 2960.59   9
   6  -2   3 11701.1 1245.67   4
  -6   2  -3 7867.64 1103.56   6
   6   2   3 12970.5 1687.37  20
   6  -2   3 12264.4 1442.95   9
   6  -2   4 729.004 440.920   9
   6  -2   4 154.926 196.622   4
  -6   2  -4 663.000 342.539   6
   6   2   4 500.079 344.337  20
   6  -2   5 540.581 289.556   9
   6  -2   5 845.636 349.676   4
  -6   2  -5 640.865 382.166   6
   6   2   5 995.161 473.223  20
   6  -2   6-79.4979 189.606   4
  -6   2  -6 2.02487 161.234   6
   6   2   6 147.898 217.404  20
   6  -2   7 522.176 355.747   4
  -6   2  -7 543.468 310.598   6
   6   2   7 689.120 378.607  20
   6  -2   8 46510.5 2342.42   4
  -6   2  -8 38300.6 2243.96   6
  -6  -3   7-414.957 728.312  17
  -6  -3   7 525.634 382.511  16
   6   3  -6 64920.2 2960.05  20
  -6  -3   6 57719.1 3488.00   3
  -6  -3   5 18757.3 2344.11  16
   6   3  -5 23723.4 1876.15  20
   6  -3  -5 22272.3 1643.22   9
  -6  -3   5 20381.8 2156.09   3
   6   3  -4 14736.1 1544.97  20
   6  -3  -4 12381.5 1287.07   9
  -6  -3   4 11386.4 1630.16   3
   6   3  -3 6132.88 1023.59  20
   6  -3  -3 5602.49 883.040   9
   6   3  -2 11104.9 1427.40  20
   6  -3  -2 11840.0 1293.96   9
   6   3  -1 24296.1 2110.73  20
   6  -3  -1 25335.9 1949.89   9
   6  -3   0 713.662 388.193  12
   6   3   0 511.692 345.049  20
   6  -3   0 596.864 334.248   9
   6  -3   1 3203.21 723.653  12
   6   3   1 2497.49 707.296  20
   6  -3   1 3764.11 784.692   9
   6  -3   2 3731.06 737.807  12
   6   3   2 3292.97 793.644  20
   6  -3   2 3192.72 684.448   9
   6   3   3 79.5671 203.545  20
   6  -3   3 547.619 304.449   9
   6   3   4 39634.4 2383.88  20
   6  -3   4 46354.8 2400.69   9
   7   0 -11 108.102 180.973   8
   7   0 -11 65.4199 203.121   7
   7   0 -10 6175.40 988.891   8
   7   0 -10 4805.02 876.818   7
   7   0  -9-591.749 379.711   8
   7   0  -9 98.6388 162.343   7
   7   0  -8 31518.6 2519.18   8
   7   0  -8 28156.1 2211.32   7
   7   0  -7-299.999 235.560   8
   7   0  -7-85.0825 208.475   7
   7   0  -6 4579.30 1029.04   8
   7   0  -6 5087.96 974.900   7
   7   0  -5-1110.94 510.593   8
   7   0  -4 3063.38 830.160   8
   7   0  -3 143.134 306.834   8
   7   0  -3-725.575 376.744   9
   7   0  -2 6157.85 963.516   9
   7   0  -2 4612.16 901.736  20
   7   0  -1-2.37730 297.861   8
   7   0  -1-180.572 243.892  20
   7   0  -1-224.421 224.980   9
   7   0   0 189804. 5924.49   8
   7   0   0 186559. 6129.30  20
   7   0   1 183.184 208.467   8
   7   0   1-136.902 353.823  20
   7   0   2 141688. 5542.21  20
   7   0   3 261.945 199.330   4
   7   0   4 109558. 4586.27   4
   7   0   5-780.191 426.707   4
   7   0   6 233.453 253.048   4
   7   0   7 15.1142 216.922   4
   7   0   7-614.341 381.198  20
   7   0   8 941.097 414.928  20
   7   1 -11 4280.94 758.710   7
   7  -1 -11 3439.25 699.733   7
  -7  -1  10-137.388 397.857   3
   7   1 -10 333.455 335.050   8
   7  -1 -10-98.9203 193.334   8
   7   1 -10-69.2813 172.924   7
  -7  -1   9-290.408 344.021   3
   7   1  -9 1051.31 462.264   8
   7  -1  -9 713.885 402.028   8
   7   1  -9 1155.79 448.616   7
   7   1  -8 10012.4 1436.52   8
   7  -1  -8 10613.8 1394.84   8
   7   1  -8 9969.31 1247.63   7
  -7  -1   8 8337.63 1681.25   3
   7   1  -7 22331.3 2116.56   8
   7  -1  -7 22819.0 2074.33   8
   7   1  -7 20350.4 1766.75   7
  -7  -1   7 17917.8 2378.28   3
   7   1  -6 8945.72 1397.50   8
   7  -1  -6 10014.6 1399.41   8
   7  -1  -6 9028.66 1268.73   9
   7   1  -5 24347.6 2270.08   8
   7  -1  -5 23405.8 2010.46   9
   7   1  -4 5274.91 1057.97   8
   7  -1  -4 5499.79 1019.31   9
   7   1  -4 3698.09 789.322  20
   7   1  -3 402.127 365.156   8
   7   1  -3 855.758 438.941  20
   7  -1  -3 373.624 352.785   9
   7   1  -2 87101.2 4204.53   8
   7   1  -2 83784.4 4109.02  20
   7  -1  -2 84094.3 3804.90   9
   7   1  -1 2122.03 690.006   8
   7   1  -1 1178.42 531.402  20
   7  -1  -1 1848.66 561.050   9
   7   1   0 3448.38 928.115  20
   7  -1   0 1773.93 570.574   9
   7   1   1 80760.9 4208.16  20
   7  -1   1 72316.9 3364.68   9
   7  -1   2 49849.4 2793.56   4
   7  -1   2 54891.8 2842.47   9
   7  -1   3 3049.82 697.230   4
   7   1   3 4331.40 1017.22  20
   7  -1   4 44691.2 2697.21   4
   7   1   4 49964.5 3290.27  20
   7  -1   5 2259.50 631.323   4
   7   1   5 2142.49 687.582  20
   7  -1   6 56.1064 163.620   4
   7   1   6 172.012 285.574  20
   7  -1   7 32905.3 2171.14   4
   7   1   7 33939.2 2432.13  20
   7  -1   8 21513.4 1665.31   4
  -7  -2   9-32.2786 187.162   3
  -7  -2   8 12606.8 1783.88  16
  -7  -2   8 11774.7 1724.34   3
   7   2  -7 24889.3 2095.94   8
   7  -2  -7 23695.8 1878.28   8
  -7  -2   7 19839.1 2297.45   3
   7   2  -6 31727.8 2409.40   8
   7  -2  -6 26701.6 1994.33   9
   7   2  -5 33696.7 2512.10   8
   7   2  -5 29054.8 2167.39  20
   7  -2  -5 30835.2 2209.92   9
   7   2  -4 37893.7 2689.27   8
   7   2  -4 37160.0 2575.30  20
   7  -2  -4 34742.3 2409.66   9
   7   2  -3 3181.05 798.990   8
   7   2  -3 3413.57 885.172  20
   7  -2  -3 2994.28 707.833   9
   7   2  -2 3123.85 785.625   8
   7   2  -2 2727.67 760.626  20
   7  -2  -2 2955.51 736.196   9
   7   2  -1 15647.0 1807.46  20
   7  -2  -1 14364.3 1521.43   9
   7   2   0 5959.23 1132.48  20
   7  -2   0 5000.10 947.811   9
   7   2   1 16919.2 1893.12  20
   7  -2   1 19204.6 1737.63   9
   7   2   2 4352.74 928.487  20
   7  -2   2 4309.78 849.798   9
   7  -2   3 4921.89 832.881   9
   7   2   3 4718.38 989.661  20
   7   2   4 684.944 433.909  20
   7  -2   4 786.935 346.872   9
   7   2   5 6368.11 1057.77  20
   8   0  -9-782.144 359.931   8
   8   0  -8 2863.74 687.633   8
   8   0  -7-2.29291 300.575   8
   8   0  -6 51211.9 3155.32   8
   8   0  -5 188.657 225.616   8
   8   0  -4 6382.04 1133.65   8
   8   0  -3 63.1085 313.590   8
   8   0  -2 15361.4 1720.46   8
   8   0  -1 35.1333 266.952   8
   8   0   0 5117.98 973.804   8
   8   0   0 6138.79 1045.16  20
   8   0   1-259.581 236.417  20
   8   0   2 374.332 309.743  20
   8   0   3 28.4001 199.384  20
   8   0   4 12909.6 1527.57  20
   8   0   5-542.241 325.683  20
   8   1  -8 4532.68 853.344   8
   8  -1  -8 8884.56 1156.15   8
   8   1  -7 9589.91 1263.34   8
   8  -1  -7 10244.2 1289.49   8
  -8  -1   7 8960.19 1440.17   3
   8   1  -6-22.4313 191.682   8
   8  -1  -6 261.593 227.540   8
   8  -1  -5 4415.03 877.421   8
   8   1  -5 4421.73 897.903   8
   8   1  -4 1213.70 474.334   8
   8  -1  -4 1376.17 553.904   8
   8  -1  -4 1391.43 471.063   9
   8   1  -3-375.840 298.196   8
   8  -1  -3 9.04005 253.076   8
   8  -1  -3 221.855 268.722   9
   8   1  -2 529.562 371.683   8
   8  -1  -2-109.070 208.015   8
   8   1  -2 2.25429 160.538  20
   8  -1  -2 179.727 224.595   9
   8  -1  -1 30098.3 2245.90   8
   8   1  -1 30083.8 2354.38  20
   8  -1  -1 27035.1 1976.12   9
   8  -1   0 1057.14 445.882   8
   8   1   0 1775.21 600.326  20
   8  -1   0 882.719 369.595   9
   8   1   1 367.278 322.426  20
   8   1   2 2139.92 660.496  20
   8  -1   2 1353.39 466.703  20
   8   1   3 2830.01 759.947  20
   8  -1   3 2238.40 588.168  20
   8   1   4 2072.72 607.413  20
   8  -1   4 3213.58 677.531  20
   8   1   5 310.105 264.776  20
   8  -2  -4-80.3961 170.350   8
   8  -2  -4 14.2212 135.782   9
   8  -2  -3 2006.81 507.595   9
   8   2  -2 1233.04 445.005  20
   8  -2  -2 727.371 325.765   9
   8   2  -1 2416.01 613.308  20
   8  -2  -1 2319.59 537.822   9
   8   2   0 7043.02 1045.96  20
   8  -2   0 6711.09 880.043   9
   0   0   0    0.00    0.00   0
TITL 1046 in P2(1)/c
REM P2(1)/c (#14 in standard setting)
CELL 1.54184   7.864223   4.067546  14.515503  90.0000  96.8963  90.0000
ZERR    1.00   0.000778   0.000320   0.001290   0.0000   0.0081   0.0000
LATT  1
SYMM -x, y+1/2,-z+1/2
SFAC C H N O
UNIT 10.00 10.00 10.00 10.00
TREF
HKLF 4
END
;
_shelx_hkl_checksum              69985
_olex2_submission_special_instructions 'No special instructions were received'
loop_
_space_group_symop_operation_xyz
'x, y, z'
'-x, y+1/2, -z+1/2'
'-x, -y, -z'
'x, -y-1/2, z-1/2'
loop_
_atom_site_label
_atom_site_type_symbol
_atom_site_fract_x
_atom_site_fract_y
_atom_site_fract_z
_atom_site_U_iso_or_equiv
_atom_site_adp_type
_atom_site_occupancy
_atom_site_site_symmetry_order
_atom_site_calc_flag
_atom_site_refinement_flags_posn
O2 O 0.7675(3) 0.0844(7) 0.79698(17) 0.0188(7) Uani 1 1 d .
O1 O 0.4357(3) -0.0174(7) 0.82722(17) 0.0163(7) Uani 1 1 d .
H1 H 0.3947 -0.1391 0.7853 0.024 Uiso 1 1 calc GR
O3 O 0.8612(3) -0.2676(7) 0.91054(17) 0.0156(7) Uani 1 1 d .
C3 C 0.7396(5) -0.1041(9) 0.8576(2) 0.0129(8) Uani 1 1 d .
C1 C 0.5569(4) -0.1012(9) 0.9853(2) 0.0119(8) Uani 1 1 d .
H1A H 0.6378 -0.1962 1.0293 0.014 Uiso 1 1 calc R
C2 C 0.5629(4) -0.1866(9) 0.8847(2) 0.0120(8) Uani 1 1 d .
H2 H 0.5433 -0.4233 0.8766 0.014 Uiso 1 1 calc R
C4 C 1.0347(5) -0.2163(11) 0.8883(3) 0.0208(10) Uani 1 1 d .
H4A H 1.0446 -0.3021 0.8276 0.031 Uiso 1 1 calc GR
H4B H 1.1141 -0.3277 0.9332 0.031 Uiso 1 1 calc GR
H4C H 1.0599 0.0147 0.8895 0.031 Uiso 1 1 calc GR
loop_
_atom_site_aniso_label
_atom_site_aniso_U_11
_atom_site_aniso_U_22
_atom_site_aniso_U_33
_atom_site_aniso_U_23
_atom_site_aniso_U_13
_atom_site_aniso_U_12
O2 0.0141(14) 0.0285(16) 0.0146(14) 0.0077(12) 0.0045(11) 0.0001(11)
O1 0.0110(14) 0.0251(15) 0.0115(13) -0.0016(11) -0.0035(10) 0.0011(11)
O3 0.0076(13) 0.0254(15) 0.0141(13) 0.0044(11) 0.0025(10) 0.0034(11)
C3 0.0153(19) 0.0156(19) 0.0076(17) -0.0053(15) 0.0008(15) 0.0014(15)
C1 0.0066(17) 0.0173(19) 0.0118(18) 0.0018(15) 0.0007(13) -0.0029(14)
C2 0.0103(18) 0.0148(19) 0.0108(18) 0.0011(14) 0.0008(14) -0.0013(14)
C4 0.0073(18) 0.034(2) 0.021(2) 0.0019(18) 0.0031(15) 0.0033(17)
loop_
_atom_type_symbol
_atom_type_description
_atom_type_scat_dispersion_real
_atom_type_scat_dispersion_imag
_atom_type_scat_source
C C 0.0181 0.0091 'International Tables Vol C Tables 4.2.6.8 and 6.1.1.4'
H H 0.0000 0.0000 'International Tables Vol C Tables 4.2.6.8 and 6.1.1.4'
O O 0.0492 0.0322 'International Tables Vol C Tables 4.2.6.8 and 6.1.1.4'
loop_
_geom_angle_atom_site_label_1
_geom_angle_atom_site_label_2
_geom_angle_atom_site_label_3
_geom_angle
_geom_angle_site_symmetry_1
C2 O1 H1 109.5 .
C3 O3 C4 115.3(3) .
O2 C3 O3 123.9(3) .
O2 C3 C2 125.3(3) .
O3 C3 C2 110.7(3) .
C1 C1 H1A 118.1 3_657
C1 C1 C2 123.8(4) 3_657
C2 C1 H1A 118.1 .
O1 C2 C3 110.2(3) .
O1 C2 C1 111.1(3) .
O1 C2 H2 108.7 .
C3 C2 H2 108.7 .
C1 C2 C3 109.6(3) .
C1 C2 H2 108.7 .
O3 C4 H4A 109.5 .
O3 C4 H4B 109.5 .
O3 C4 H4C 109.5 .
H4A C4 H4B 109.5 .
H4A C4 H4C 109.5 .
H4B C4 H4C 109.5 .
loop_
_geom_bond_atom_site_label_1
_geom_bond_atom_site_label_2
_geom_bond_distance
_geom_bond_site_symmetry_2
O2 C3 1.206(5) .
O1 H1 0.8200 .
O1 C2 1.404(4) .
O3 C3 1.331(4) .
O3 C4 1.454(4) .
C3 C2 1.526(5) .
C1 C1 1.323(7) 3_657
C1 H1A 0.9300 .
C1 C2 1.508(5) .
C2 H2 0.9800 .
C4 H4A 0.9600 .
C4 H4B 0.9600 .
C4 H4C 0.9600 .
loop_
_geom_torsion_atom_site_label_1
_geom_torsion_atom_site_label_2
_geom_torsion_atom_site_label_3
_geom_torsion_atom_site_label_4
_geom_torsion
_geom_torsion_site_symmetry_1
O2 C3 C2 O1 1.5(5) .
O2 C3 C2 C1 -121.0(4) .
O3 C3 C2 O1 -178.9(3) .
O3 C3 C2 C1 58.6(4) .
C1 C1 C2 O1 1.5(6) 3_657
C1 C1 C2 C3 123.5(5) 3_657
C4 O3 C3 O2 -2.6(5) .
C4 O3 C3 C2 177.8(3) .
