#------------------------------------------------------------------------------
#$Date: 2017-04-04 06:55:34 +0300 (Tue, 04 Apr 2017) $
#$Revision: 194734 $
#$URL: file:///home/coder/svn-repositories/cod/cif/7/22/79/7227986.cif $
#------------------------------------------------------------------------------
#
# This file is available in the Crystallography Open Database (COD),
# http://www.crystallography.net/
#
# All data on this site have been placed in the public domain by the
# contributors.
#
data_7227986
loop_
_publ_author_name
'Hummel, Michael'
'Markiewicz, Marta'
'Stolte, Stefan'
'Noisternig, Michael Franz'
'Braun, Doris Elfriede'
'Gelbrich, Thomas'
'Griesser, Ulrich J.'
'Partl, Gabriel Julian'
'Naier, Benjamin Florian'
'Wurst, Klaus'
'Kr\"uger, Biljana'
'Kopacka, Holger'
'Laus, Gerhard'
'Huppertz, Hubert'
'Schottenberger, Herwig'
_publ_section_title
;
 Phase-out-compliant fluorosurfactants: Unique methimazolium derivatives
 including room temperature ionic liquids
;
_journal_name_full               'Green Chem.'
_journal_paper_doi               10.1039/C7GC00571G
_journal_year                    2017
_chemical_formula_moiety         'C12 H10 F13 N2 S 1+, Cl 1-'
_chemical_formula_sum            'C12 H10 Cl F13 N2 S'
_chemical_formula_weight         496.73
_space_group_crystal_system      triclinic
_space_group_IT_number           2
_space_group_name_Hall           '-P 1'
_space_group_name_H-M_alt        'P -1'
_symmetry_space_group_name_Hall  '-P 1'
_symmetry_space_group_name_H-M   'P -1'
_atom_sites_solution_hydrogens   mixed
_atom_sites_solution_primary     direct
_atom_sites_solution_secondary   difmap
_audit_creation_method           SHELXL-2014/6
_audit_update_record
;
2016-01-25 deposited with the CCDC.
2017-04-03 downloaded from the CCDC.
;
_cell_angle_alpha                75.231(5)
_cell_angle_beta                 83.709(5)
_cell_angle_gamma                76.855(5)
_cell_formula_units_Z            2
_cell_length_a                   6.3654(4)
_cell_length_b                   9.2363(5)
_cell_length_c                   16.0361(12)
_cell_measurement_reflns_used    3049
_cell_measurement_temperature    173(2)
_cell_measurement_theta_max      26.2210
_cell_measurement_theta_min      3.8980
_cell_measurement_wavelength     0.71073
_cell_volume                     886.44(10)
_computing_cell_refinement
;
CrysAlisPro, Agilent Technologies,
Version 1.171.37.31 (release 14-01-2014 CrysAlis171 .NET)
(compiled Jan 14 2014,18:38:05)
;
_computing_data_collection
;
CrysAlisPro, Agilent Technologies,
Version 1.171.37.31 (release 14-01-2014 CrysAlis171 .NET)
(compiled Jan 14 2014,18:38:05)
;
_computing_data_reduction
;
CrysAlisPro, Agilent Technologies,
Version 1.171.37.31 (release 14-01-2014 CrysAlis171 .NET)
(compiled Jan 14 2014,18:38:05)
;
_computing_structure_refinement  'SHELXL-2014/6 (Sheldrick, 2014)'
_computing_structure_solution    'SHELXL-2014/7 (Sheldrick, 2014)'
_diffrn_ambient_temperature      173(2)
_diffrn_detector                 'CCD plate'
_diffrn_detector_area_resol_mean 10.3575
_diffrn_detector_type            Ruby
_diffrn_measured_fraction_theta_full 0.998
_diffrn_measured_fraction_theta_max 0.998
_diffrn_measurement_device       'four-circle diffractometer'
_diffrn_measurement_device_type  'Xcalibur, Ruby, Gemini ultra'
_diffrn_measurement_method       '\w scans'
_diffrn_radiation_monochromator  graphite
_diffrn_radiation_probe          x-ray
_diffrn_radiation_type           MoK\a
_diffrn_radiation_wavelength     0.71073
_diffrn_reflns_av_R_equivalents  0.0465
_diffrn_reflns_av_unetI/netI     0.0381
_diffrn_reflns_Laue_measured_fraction_full 0.998
_diffrn_reflns_Laue_measured_fraction_max 0.998
_diffrn_reflns_limit_h_max       7
_diffrn_reflns_limit_h_min       -7
_diffrn_reflns_limit_k_max       11
_diffrn_reflns_limit_k_min       -11
_diffrn_reflns_limit_l_max       19
_diffrn_reflns_limit_l_min       -19
_diffrn_reflns_number            13865
_diffrn_reflns_point_group_measured_fraction_full 0.998
_diffrn_reflns_point_group_measured_fraction_max 0.998
_diffrn_reflns_theta_full        25.242
_diffrn_reflns_theta_max         25.350
_diffrn_reflns_theta_min         2.937
_exptl_absorpt_coefficient_mu    0.465
_exptl_absorpt_correction_T_max  1.00000
_exptl_absorpt_correction_T_min  0.88894
_exptl_absorpt_correction_type   multi-scan
_exptl_absorpt_process_details
;
CrysAlisPro, Agilent Technologies,
Version 1.171.37.31 (release 14-01-2014 CrysAlis171 .NET)
(compiled Jan 14 2014,18:38:05)
Empirical absorption correction using spherical harmonics,
 implemented in SCALE3 ABSPACK scaling algorithm.
;
_exptl_crystal_colour            colourless
_exptl_crystal_density_diffrn    1.861
_exptl_crystal_description       'platy fragment'
_exptl_crystal_F_000             492
_exptl_crystal_size_max          0.400
_exptl_crystal_size_mid          0.100
_exptl_crystal_size_min          0.060
_refine_diff_density_max         0.428
_refine_diff_density_min         -0.296
_refine_diff_density_rms         0.061
_refine_ls_extinction_method     none
_refine_ls_goodness_of_fit_ref   1.029
_refine_ls_hydrogen_treatment    refU
_refine_ls_matrix_type           full
_refine_ls_number_parameters     276
_refine_ls_number_reflns         3236
_refine_ls_number_restraints     1
_refine_ls_restrained_S_all      1.028
_refine_ls_R_factor_all          0.0621
_refine_ls_R_factor_gt           0.0440
_refine_ls_shift/su_max          0.000
_refine_ls_shift/su_mean         0.000
_refine_ls_structure_factor_coef Fsqd
_refine_ls_weighting_details
'w=1/[\s^2^(Fo^2^)+(0.0498P)^2^+0.6803P] where P=(Fo^2^+2Fc^2^)/3'
_refine_ls_weighting_scheme      calc
_refine_ls_wR_factor_gt          0.1032
_refine_ls_wR_factor_ref         0.1140
_reflns_Friedel_coverage         0.000
_reflns_number_gt                2536
_reflns_number_total             3236
_reflns_threshold_expression     'I > 2\s(I)'
_cod_data_source_file            c7gc00571g2.cif
_cod_data_source_block           shelx
_cod_database_code               7227986
_shelx_space_group_comment
;
The symmetry employed for this shelxl refinement is uniquely defined
by the following loop, which should always be used as a source of
symmetry information in preference to the above space-group names.
They are only intended as comments.
;
_shelx_estimated_absorpt_t_min   0.836
_shelx_estimated_absorpt_t_max   0.973
_shelxl_version_number           2014/6
_shelx_res_file
;
TITL gp176_1 in P -1
CELL  0.71073   6.3654   9.2363  16.0361   75.231   83.709   76.855
ZERR     2.00   0.0004   0.0005   0.0012    0.005    0.005    0.005
LATT   1
SFAC  C    H   N   F    S    CL
UNIT  24   20  4  26   2    2
SHEL 999 .83
FMAP   2
PLAN   25
OMIT -5   1   0
ACTA
BOND
HTAB
SIZE .4 .1 .06
TEMP -100
DFIX .86 .01 N1 H1
EQIV $4 x+1, y, z
HTAB N1 Cl1_$4
L.S.  10
WGHT    0.049800    0.680300
FVAR       2.85396
C1    1    0.081613    0.598938    0.249428    11.00000    0.02667    0.02166 =
         0.03414   -0.01016    0.00122   -0.00594
AFIX  23
H1A   2   -0.056346    0.606884    0.223784    11.00000    0.03532
H1B   2    0.084944    0.525191    0.306426    11.00000    0.02892
AFIX   0
C2    1    0.098323    0.753112    0.260026    11.00000    0.02620    0.02774 =
         0.03732   -0.01064   -0.00131   -0.00624
C3    1   -0.255710    1.066162    0.381678    11.00000    0.03127    0.02855 =
         0.03434   -0.01068    0.00024   -0.00367
C4    1   -0.084154    0.825618    0.317786    11.00000    0.02735    0.02715 =
         0.03187   -0.00852   -0.00191   -0.00356
C5    1    0.482828    0.307691    0.120156    11.00000    0.02523    0.01994 =
         0.03058   -0.00678   -0.00166   -0.00411
C6    1    0.271765    0.543572    0.190425    11.00000    0.03297    0.02014 =
         0.03765   -0.01162    0.00486   -0.00856
AFIX  23
H6A   2    0.409837    0.530123    0.217328    11.00000    0.04049
H6B   2    0.272805    0.619331    0.134271    11.00000    0.05104
AFIX   0
C7    1   -0.417381    1.313273    0.437625    11.00000    0.05648    0.03306 =
         0.04763   -0.01618    0.00094    0.00320
C8    1    0.737611    0.159779    0.056940    11.00000    0.02695    0.03580 =
         0.03834   -0.01596    0.00070    0.00116
AFIX  43
H8    2    0.815336    0.074566    0.035725    11.00000    0.04559
AFIX   0
C9    1   -0.079372    0.990486    0.322967    11.00000    0.03467    0.02659 =
         0.03185   -0.00892   -0.00428   -0.00323
C10   1    0.798484    0.292328    0.047337    11.00000    0.02605    0.04433 =
         0.03580   -0.01202    0.00181   -0.00736
AFIX  43
H10   2    0.928497    0.318197    0.018810    11.00000    0.04364
AFIX   0
C11   1   -0.248280    1.233887    0.378970    11.00000    0.04363    0.03045 =
         0.03879   -0.01250   -0.00208   -0.00147
C12   1    0.409889    0.052849    0.126286    11.00000    0.03927    0.02246 =
         0.04747   -0.01314    0.00128   -0.00983
AFIX 137
H12A  2    0.360583    0.039568    0.187318    11.00000    0.03349
H12B  2    0.495968   -0.044441    0.116600    11.00000    0.04172
H12C  2    0.284471    0.085534    0.090492    11.00000    0.05185
AFIX   0
N1    3    0.637986    0.385027    0.086436    11.00000    0.02552    0.02415 =
         0.03666   -0.00836    0.00087   -0.00783
H1    2    0.643580    0.477103    0.086306    11.00000    0.04406
N2    3    0.542040    0.168964    0.103101    11.00000    0.02738    0.01994 =
         0.03377   -0.01100   -0.00168   -0.00177
F1    4    0.096263    0.853015    0.181520    11.00000    0.06949    0.02496 =
         0.04255   -0.01115    0.01876   -0.01549
F2    4    0.288004    0.746091    0.293014    11.00000    0.02684    0.05858 =
         0.08451   -0.04970   -0.00489   -0.00275
F3    4    0.112585    0.988212    0.350384    11.00000    0.03117    0.05371 =
         0.10738   -0.05167   -0.00671   -0.00481
F4    4   -0.449200    1.065844    0.356593    11.00000    0.02866    0.05426 =
         0.09805   -0.04236   -0.00013   -0.00300
F5    4   -0.092978    1.080623    0.243426    11.00000    0.10584    0.02613 =
         0.03657   -0.00693    0.01618    0.00140
F6    4   -0.273830    0.829532    0.287399    11.00000    0.02621    0.05495 =
         0.09046   -0.04686   -0.00363   -0.00461
F7    4   -0.272511    1.319845    0.298251    11.00000    0.09585    0.02952 =
         0.04186   -0.00744    0.01310    0.00052
F8    4   -0.236406    0.984978    0.462971    11.00000    0.08680    0.03347 =
         0.03472   -0.00859    0.01268   -0.00581
F9    4   -0.074003    0.735464    0.398013    11.00000    0.07752    0.02835 =
         0.03921   -0.00649    0.01669   -0.00667
F10   4   -0.054215    1.237947    0.402174    11.00000    0.04631    0.04801 =
         0.10655   -0.04368   -0.00275   -0.00922
F11   4   -0.400338    1.244084    0.518793    11.00000    0.11045    0.05553 =
         0.03763   -0.01920    0.00189    0.01394
F12   4   -0.614379    1.319275    0.416929    11.00000    0.05137    0.08029 =
         0.09218   -0.04616   -0.00185    0.01841
F13   4   -0.392848    1.455457    0.425558    11.00000    0.10780    0.03324 =
         0.08927   -0.03308    0.02650   -0.00646
S1    5    0.239693    0.362830    0.174653    11.00000    0.02930    0.02884 =
         0.06190   -0.02544    0.01365   -0.01090
CL1   6   -0.277552    0.696050    0.080964    11.00000    0.02823    0.02648 =
         0.04333   -0.01131    0.00234   -0.00764

HKLF    4

REM  gp176_1 in P -1
REM R1 =  0.0440 for    2536 Fo > 4sig(Fo)  and  0.0621 for all    3236 data
REM    276 parameters refined using      1 restraints

END

WGHT      0.0494      0.6764

REM Instructions for potential hydrogen bonds
HTAB C1 Cl1
EQIV $5 -x+1, -y+1, -z
HTAB C10 Cl1_$5
EQIV $6 x+1, y-1, z
HTAB C12 Cl1_$6
EQIV $7 -x, -y+1, -z
HTAB C12 Cl1_$7
HTAB N1 Cl1_$4

REM Highest difference peak  0.428,  deepest hole -0.296,  1-sigma level  0.061
Q1    1  -0.2283  1.0456  0.2596  11.00000  0.05    0.43
Q2    1   0.2350  0.6719  0.3461  11.00000  0.05    0.42
Q3    1   0.0590  0.9373  0.4020  11.00000  0.05    0.37
Q4    1   0.2096  0.8127  0.2178  11.00000  0.05    0.36
Q5    1  -0.0796  0.9001  0.3215  11.00000  0.05    0.31
Q6    1  -0.2314  1.1391  0.3815  11.00000  0.05    0.25
Q7    1  -0.2626  1.2964  0.5026  11.00000  0.05    0.24
Q8    1   0.0288  1.0434  0.2938  11.00000  0.05    0.23
Q9    1  -0.4121  0.9961  0.4377  11.00000  0.05    0.23
Q10   1  -0.4080  1.2740  0.3035  11.00000  0.05    0.22
Q11   1  -0.5891  1.2451  0.4780  11.00000  0.05    0.22
Q12   1  -0.3057  0.6646  0.1780  11.00000  0.05    0.22
Q13   1   0.0657  0.6647  0.2620  11.00000  0.05    0.21
Q14   1   0.7271  0.2604  0.0242  11.00000  0.05    0.21
Q15   1   0.5625  0.3450  0.1168  11.00000  0.05    0.20
Q16   1   0.8846  0.4239  0.0042  11.00000  0.05    0.20
Q17   1  -0.3584  1.2791  0.3994  11.00000  0.05    0.19
Q18   1   0.2318  0.4221  0.1234  11.00000  0.05    0.19
Q19   1  -0.3903  1.1055  0.2987  11.00000  0.05    0.19
Q20   1  -0.4565  0.6493  0.1448  11.00000  0.05    0.19
Q21   1  -0.4141  0.6460  0.0648  11.00000  0.05    0.19
Q22   1   0.8133  0.2188  0.0829  11.00000  0.05    0.19
Q23   1  -0.0783  1.1062  0.2257  11.00000  0.05    0.19
Q24   1   1.0558  0.2314 -0.0317  11.00000  0.05    0.18
Q25   1   0.2597  0.4685  0.1836  11.00000  0.05    0.18
;
_shelx_res_checksum              82645
_shelx_hkl_file
;
   0   0   3 1002.75 83.8613   3
   0   0  -3 810.503 74.6451  10
   0   0   4 24833.5 416.892   3
   0   0  -4 23688.6 408.848  10
   0   0   5 3589.97 188.740   3
   0   0  -5 3505.41 183.194  10
   0   0   6 13287.8 376.609   3
   0   0  -6 13075.2 371.575  10
   0   0   7 100.515 61.8248   3
   0   0   7 31.3062 39.2891  10
   0   0  -7 59.9288 52.1648  10
   0   0   8 5888.90 279.148  10
   0   0   8 6082.56 306.022   3
   0   0  -8 6115.02 296.853  10
   0   0   9 5142.08 294.076   3
   0   0  -9 5232.41 289.141  10
   0   0 -10 3024.49 239.701  10
   0   0  10 2682.00 229.974   3
   0   0 -11 2319.11 228.492   3
   0   0 -11 2215.50 215.976  10
   0   0  11 2330.66 217.767  10
   0   0 -12 1507.13 187.546  10
   0   0 -12 1660.09 198.340   3
   0   0 -12 1538.76 213.345   7
   0   0  12 1465.29 189.375  10
   0   0  12 1258.66 203.810   1
   0   0  13 424.090 126.702   1
   0   0 -13 438.082 122.215  10
   0   0  13 560.320 121.471  10
   0   0  14 2454.08 255.074  10
   0   0 -14 2254.55 245.663  10
   0   0  14 1984.77 253.087   1
   0   0 -14 2677.61 281.774   5
   0   0 -15 76.0048 74.0063   5
   0   0  15 105.122 101.648   1
   0   0 -15 147.503 88.0649  10
   0   0 -16 491.640 143.098   5
   0   0 -16 525.065 151.999  10
   0   0  16 481.383 138.370   1
   0   0 -17 242.798 116.853   5
   0   0  17 154.320 84.8396   1
   0   0 -17 501.196 146.461  10
   0   0 -18 220.100 128.435   5
   0   0 -18 198.116 88.1245  10
   0   0  18 525.812 173.527   1
   0   0 -19 264.236 123.068  10
   0   0 -19 201.222 132.744   5
   0   0 -20 147.371 108.860  10
   0   1 -19 312.826 151.184   5
   0   1 -19 382.108 155.288  10
   0  -1  18 168.301 124.854   1
   0   1 -18-34.2080 71.6696  10
   0   1 -18 110.476 109.314   5
   0  -1  17 107.448 109.520   1
   0   1 -17 66.7968 101.088  10
   0   1 -17 169.855 123.865   5
   0  -1  16 1004.15 219.362   1
   0   1 -16 1173.72 205.027  10
   0   1 -16 1532.12 231.336   5
   0   1 -15 342.131 128.531   5
   0   1 -15 339.254 117.036  10
   0  -1  14 178.138 109.022   3
   0   1 -14 268.803 112.833  10
   0   1 -13 382.871 110.018  10
   0  -1  13 498.581 125.934  10
   0  -1  13 291.247 116.757   3
   0   1 -12 27.8393 56.6878  10
   0  -1  12-6.34841 55.3758  10
   0   1 -12 108.820 88.1269   7
   0   1 -12 294.052 94.4603   3
   0  -1  12 88.7801 77.4711   3
   0   1 -11 103.811 77.0290  10
   0   1 -11 111.188 76.2500   7
   0  -1  11 165.771 90.5746  10
   0  -1  11 171.582 75.3612   3
   0   1 -11 187.790 65.5416   3
   0  -1  10 303.977 94.9258  10
   0   1 -10 133.372 78.8277  10
   0  -1  10 229.970 39.3592   9
   0  -1  10 142.261 70.1292   3
   0   1 -10 304.621 99.3141   7
   0  -1   9 2150.57 207.620   3
   0  -1   9 2187.70 112.174   9
   0   1  -9 2616.38 226.906  10
   0  -1   9 2749.05 226.702  10
   0   1  -8 13888.7 487.803  10
   0  -1   8 13837.3 466.982   3
   0  -1   8 13313.8 270.326   9
   0  -1   7 6681.83 314.342   3
   0   1  -7 6640.13 317.639  10
   0  -1   7 6705.47 188.424   9
   0  -1   6 14303.8 209.645   2
   0   1  -6 17764.8 478.109  10
   0  -1   6 17231.4 459.084   3
   0  -1   6 17102.8 291.566   9
   0  -1   5 9576.72 211.481   9
   0  -1   5 9049.42 170.347   2
   0  -1   5 10079.8 319.557   3
   0   1  -5 9554.42 338.546  10
   0  -1   4 10689.4 186.827   2
   0  -1   4 11308.6 313.845   3
   0  -1   4 10492.9 214.425   9
   0   1  -4 10505.0 324.281  10
   0  -1   3 86313.7 533.703   2
   0   1  -3 88693.6 831.751  10
   0  -1   3 95249.5 789.800   3
   0   1  -2 1206.29 77.1448   9
   0  -1   2 1572.24 93.9453   3
   0  -1   2 1439.52 71.7963   2
   0   1  -2 1521.86 103.117  10
   0  -1   1 8874.11 155.381   4
   0  -1  -2 2456.97 102.937   5
   0   1   3 5904.06 190.905   1
   0  -1  -3 5079.10 114.415  10
   0  -1  -4 4810.46 127.827   2
   0  -1  -4 4884.19 148.418  10
   0   1   4 4995.31 206.469   1
   0   1   4 5073.87 142.270  10
   0  -1  -5 121.331 26.5548   2
   0  -1  -5 146.985 46.1104  10
   0   1   5 157.726 34.2662  10
   0   1   5 230.477 72.2234   1
   0   1   6 590.413 95.5964   1
   0   1   6 608.870 73.9066  10
   0  -1  -6 430.373 41.2807   2
   0  -1  -6 558.208 74.0736  10
   0  -1  -7 1102.28 115.860  10
   0  -1  -7 798.374 48.9183   2
   0   1   7 1366.90 114.194  10
   0   1   7 1328.96 146.805   1
   0  -1  -8 1751.11 149.092  10
   0   1   8 2050.17 147.484  10
   0   1   8 1874.26 182.132   1
   0  -1  -9 391.528 85.5654  10
   0   1   9 524.424 114.651   1
   0   1   9 410.919 73.8115  10
   0  -1 -10 17665.4 516.164  10
   0   1  10 17296.1 584.372   1
   0   1  10 18262.3 499.145  10
   0  -1 -11 257.496 95.3433   3
   0   1  11 296.113 107.656   1
   0  -1 -11 185.160 81.5328  10
   0  -1 -12 5782.54 333.765  10
   0   1  12 5447.45 375.081   1
   0  -1 -12 6171.80 373.792   3
   0  -1 -12 6135.60 382.070   5
   0   1  12 6164.19 329.823  10
   0   1  13 1998.47 214.054  10
   0  -1 -13 1878.08 230.605   7
   0   1  13 1606.05 220.908   1
   0  -1 -13 1883.91 231.672   5
   0  -1 -13 1915.95 202.957  10
   0  -1 -13 2103.57 233.800   3
   0   1  14 1068.84 186.001   1
   0  -1 -14 1383.36 185.000  10
   0   1  14 1196.96 166.454  10
   0  -1 -14 1339.89 211.323   5
   0   1  15 3315.78 332.364   1
   0  -1 -15 3462.59 333.614   5
   0   1  15 2968.23 276.004  10
   0  -1 -15 3590.27 302.958  10
   0  -1 -16 2228.84 274.171   5
   0  -1 -16 1860.31 241.760  10
   0   1  16 2094.80 283.501   1
   0  -1 -17 627.612 145.562  10
   0  -1 -17 538.202 146.959   5
   0   1  17 291.468 132.844   1
   0   1  18 34.4278 84.5609   1
   0  -1 -18 36.9721 80.4761   5
   0  -1 -18 2.65766 68.7972  10
   0   1  19-77.5402 87.9544   1
   0  -1 -19 114.732 100.271   5
   0  -1 -19-91.8655 78.8450  10
   0  -1 -20-135.853 83.1346  10
   0  -1 -21 209.091 127.916  10
   0   2 -19 0.21300 83.7137   5
   0   2 -18 72.8749 96.2803   5
   0   2 -18-224.066 121.008  10
   0   2 -17 192.133 114.884  10
   0   2 -17 262.202 105.813   5
   0   2 -16 510.950 139.997   5
   0   2 -16 542.000 173.483  10
   0  -2  16 592.756 172.722   3
   0  -2  15 69.7803 89.6619   3
   0   2 -15 55.7681 66.3707  10
   0   2 -15-68.8134 79.8144   5
   0   2 -14 71.1661 79.0700  10
   0  -2  14 18.2767 77.7555   3
   0   2 -13 141.267 84.0000  10
   0  -2  13 131.872 80.2024   3
   0  -2  12 957.897 174.188   3
   0   2 -12 1257.17 201.006  10
   0   2 -12 1176.47 195.088   7
   0   2 -11-3.00668 59.3150  10
   0   2 -11-2.05251 62.0570   7
   0   2 -11 24.2735 60.2895   3
   0  -2  11 160.953 81.2461   3
   0  -2  11-8.00466 61.1254  10
   0   2 -10 5739.02 351.611   3
   0  -2  10 5962.62 369.440  10
   0   2 -10 5413.33 366.766  10
   0  -2  10 3832.56 126.305   2
   0  -2  10 5462.25 353.334   3
   0   2 -10 6178.45 367.502   7
   0  -2   9 28269.9 738.455   3
   0   2  -9 29127.9 781.620  10
   0   2  -9 29581.8 760.662   7
   0  -2   9 25568.4 373.216   2
   0  -2   9 29128.7 777.282  10
   0   2  -8 2912.21 244.013  10
   0   2  -8 2810.55 226.497   7
   0  -2   8 2565.96 215.164   3
   0  -2   8 2878.44 131.024   2
   0  -2   8 2749.97 151.606   9
   0   2  -7 31165.8 683.852   7
   0  -2   7 31589.3 443.203   2
   0  -2   7 31774.2 700.255   3
   0   2  -7 31354.1 743.492  10
   0  -2   7 30193.2 495.647   9
   0  -2   6 26692.7 458.853   9
   0  -2   6 26541.4 610.380   3
   0   2  -6 27103.2 650.292  10
   0  -2   6 27788.9 422.811   2
   0   2  -6 27711.8 600.253   7
   0   2  -5 11825.1 405.105  10
   0  -2   5 11138.3 294.314   9
   0  -2   5 11678.7 372.204   3
   0  -2   5 11715.5 278.020   2
   0   2  -5 10880.1 347.338   7
   0   2  -4 9295.89 276.021   4
   0   2  -4 9397.64 339.598  10
   0  -2   4 10244.5 325.283   3
   0   2  -4 9816.66 294.774   7
   0  -2   4 10235.9 261.516   2
   0  -2   4 9523.73 267.942   9
   0   2  -3 334.818 59.5660   9
   0  -2   3 320.813 55.0315   2
   0   2  -3 312.776 53.9684   4
   0   2  -3 380.283 62.3475   7
   0  -2   3 331.096 65.5282   3
   0   2  -3 301.398 68.6721  10
   0   2  -3 382.867 70.8379  11
   0  -2   3 293.559 57.8782   9
   0  -2   2 700.611 88.0985   3
   0  -2   2 682.380 74.8492   2
   0   2  -2 717.377 86.6691  11
   0   2  -2 760.729 66.4870   7
   0   2  -2 719.693 88.2766  10
   0  -2   2 610.249 68.2512   4
   0   2  -2 490.330 70.9288   9
   0   2  -1 8702.06 158.461   6
   0   2  -1 8975.77 157.414   7
   0   2  -1 8181.74 242.016  10
   0  -2   1 8661.29 203.337   4
   0  -2   1 9114.56 250.963   3
   0   2  -1 8761.96 258.480  11
   0   2  -1 9051.92 253.936   9
   0   2   0 40936.4 536.889  11
   0   2   0 44623.5 549.792   9
   0   2   0 42266.1 452.658  10
   0  -2   0 39453.7 460.349  10
   0  -2   0 42546.4 500.652   3
   0   2   1 1697.35 100.688   1
   0  -2  -1 1525.28 77.5865   8
   0   2   1 1768.07 78.2646  10
   0  -2  -1 1749.74 80.6467  10
   0   2   1 1542.49 103.042  11
   0  -2  -2 8554.13 206.839   5
   0   2   2 8626.08 224.608   1
   0  -2  -2 8804.33 205.587   8
   0   2   3 5045.03 196.228   1
   0  -2  -3 4926.58 183.056   5
   0   2   4 14663.1 354.595   1
   0  -2  -4 13351.0 338.481   5
   0  -2  -5 1295.21 124.804   5
   0  -2  -5 998.557 60.5084  10
   0  -2  -5 1172.18 93.6272   2
   0   2   5 1193.98 59.9750  10
   0   2   5 1167.33 112.923   1
   0  -2  -6 430.400 59.7248   2
   0   2   6 474.220 49.9540  10
   0  -2  -6 430.530 52.3875  10
   0   2   6 528.930 94.7784   1
   0  -2  -6 437.952 78.4880   5
   0  -2  -7 12803.5 412.829   5
   0   2   7 12929.0 420.540   1
   0  -2  -7 12138.0 282.921  10
   0   2   7 12854.9 281.561  10
   0  -2  -7 12505.3 282.505   2
   0  -2  -8 19691.6 349.015   2
   0   2   8 19904.5 552.160   1
   0  -2  -8 19243.8 542.995   5
   0  -2  -8 19011.7 398.482  10
   0   2   8 19038.1 384.693  10
   0   2   9 909.388 141.297   1
   0  -2  -9 964.812 106.523  10
   0   2   9 1108.00 104.546  10
   0  -2  -9 1103.91 81.9099   2
   0  -2  -9 1022.55 140.340   5
   0  -2 -10 16027.1 434.504  10
   0   2  10 16087.5 560.389   1
   0  -2 -10 17644.9 561.544   3
   0   2  10 16452.6 423.544  10
   0  -2 -10 16963.3 573.226   5
   0  -2 -10 14959.4 284.375   2
   0  -2 -11 1301.62 138.958  10
   0   2  11 1242.42 127.169  10
   0  -2 -11 835.019 61.9368   2
   0   2  11 1191.35 179.026   1
   0  -2 -11 1455.50 174.577   3
   0  -2 -11 1122.49 167.570   5
   0  -2 -12 218.293 24.0184   2
   0  -2 -12 601.041 125.376   3
   0  -2 -12 525.705 123.637   5
   0  -2 -12 508.490 95.6866  10
   0   2  12 718.350 148.092   1
   0  -2 -13 35.9581 44.4121  10
   0  -2 -13 88.1344 97.1781   5
   0  -2 -13 91.7520 77.8966   3
   0   2  13 51.3035 76.5456   1
   0   2  14 161.365 70.9189  10
   0  -2 -14 190.276 100.864   5
   0   2  14 179.246 91.2908   1
   0  -2 -14 141.326 70.6447  10
   0  -2 -15 63.4515 65.0832  10
   0   2  15 44.2982 50.6499  10
   0   2  15 14.4863 10.6630   9
   0  -2 -15 43.8320 74.7607   5
   0   2  15-130.910 99.3499   1
   0  -2 -16 541.313 149.380   5
   0  -2 -16 430.158 108.374  10
   0   2  16 410.879 103.221  10
   0   2  16 540.156 143.892   1
   0   2  17 116.859 122.865   1
   0  -2 -17 140.802 77.3607  10
   0   2  17 91.5514 65.8977  10
   0  -2 -17 97.7892 91.0515   5
   0  -2 -18 49.8462 104.464   5
   0   2  18 156.117 97.8899   1
   0  -2 -18 66.1986 59.6086  10
   0   2  19 339.436 139.650   1
   0  -2 -19 357.022 118.008  10
   0  -2 -19 96.8287 104.184   5
   0  -2 -20 122.424 84.9534  10
   0   3 -18 127.196 101.598   5
   0   3 -18 43.8382 122.347   4
   0   3 -17-51.6351 78.5104   5
   0   3 -17-50.4736 62.8891   4
   0   3 -17 82.3853 109.537  10
   0   3 -16 147.186 76.7411   4
   0   3 -16-35.0289 88.9689  10
   0  -3  16 150.633 109.828   3
   0   3 -15 337.608 147.559  10
   0   3 -15 679.492 154.671   5
   0   3 -15 365.275 129.434   4
   0  -3  15 368.069 132.790   3
   0   3 -14 309.565 128.677  10
   0  -3  14 163.967 108.354   3
   0   3 -14 172.866 104.592   4
   0   3 -13 3053.96 325.846  10
   0  -3  13 2550.62 295.732   3
   0   3 -13 3127.29 284.684   4
   0   3 -12 139.787 87.3021   4
   0   3 -12 89.3132 85.1685  10
   0  -3  12 143.448 90.3618   3
   0  -3  12 34.4996 23.1734   2
   0  -3  11-77.4973 75.9168   3
   0  -3  11-1.95369 21.8433   2
   0   3 -11 13.6421 54.7557   4
   0   3 -11 0.56045 68.7638  10
   0   3 -11 152.943 77.9397   7
   0  -3  10 2885.45 286.038  10
   0   3 -10 3020.27 263.669   7
   0   3 -10 3204.13 279.450   3
   0  -3  10 2842.70 270.690   3
   0  -3  10 3062.51 163.806   2
   0   3 -10 2924.94 244.411   4
   0   3 -10 3094.48 287.948  10
   0   3  -9-13.7302 65.3904  10
   0  -3   9 67.8851 54.1728   3
   0  -3   9 189.980 73.3736  10
   0   3  -9 162.535 81.6872   7
   0  -3   9 125.886 46.8095   2
   0   3  -9 60.8176 59.4929   3
   0   3  -9 41.8637 56.4378   4
   0  -3   8 858.199 96.6714   2
   0   3  -8 881.966 135.117   7
   0   3  -8 760.540 146.632  10
   0   3  -8 996.302 149.395   3
   0  -3   8 861.768 150.836   3
   0   3  -7 2618.83 237.587  11
   0   3  -7 2465.16 207.466   7
   0  -3   7 2882.59 170.025   2
   0  -3   7 2631.80 224.120   3
   0   3  -7 2657.70 238.235  10
   0   3  -6 737.735 127.346  10
   0   3  -6 770.404 102.480   4
   0   3  -6 828.203 115.662   7
   0  -3   6 730.644 91.6574   2
   0  -3   6 865.371 124.244   3
   0   3  -6 776.881 127.775  11
   0  -3   5 53.3524 52.0006   3
   0   3  -5 58.9114 40.2602   7
   0   3  -5 6.03803 66.0033  10
   0   3  -5 120.961 65.8663  11
   0   3  -5 67.5837 40.4484   4
   0  -3   5 50.5065 33.1039   2
   0   3  -4 361.520 82.6374  11
   0   3  -4 436.483 84.6351   9
   0   3  -4 442.245 71.1466   7
   0   3  -4 422.135 62.9529   4
   0  -3   4 346.821 68.0386   2
   0   3  -4 396.505 85.3203  10
   0  -3   4 412.569 79.3145   3
   0   3  -3 1634.73 139.141   9
   0  -3   3 1834.40 153.702   3
   0   3  -3 1764.01 151.657  11
   0  -3   3 1679.44 133.533   2
   0   3  -3 1727.74 156.532  10
   0   3  -3 1750.89 113.279   7
   0   3  -2 3227.72 194.784  10
   0  -3   2 3179.08 153.747   4
   0   3  -2 3473.73 134.390   7
   0   3  -2 3283.38 193.298   9
   0  -3   2 3234.75 199.995  10
   0  -3   2 3566.72 201.702   3
   0   3  -2 3421.31 127.085   6
   0  -3   2 3401.52 188.437   2
   0   3  -2 3658.47 207.080  11
   0   3  -1 10182.8 333.556  11
   0   3  -1 10230.9 329.043   9
   0  -3   1 9682.19 307.536  10
   0   3  -1 9306.48 176.178   7
   0   3  -1 9662.05 299.662  10
   0  -3   1 10381.5 312.570   3
   0   3   0 41002.8 446.627   8
   0  -3   0 41469.6 397.576   6
   0   3   0 40332.8 550.204  10
   0  -3   0 41509.5 601.137   1
   0  -3   0 42952.4 607.078   3
   0  -3   0 41205.8 565.948  10
   0   3   0 43268.6 665.249   9
   0   3   0 41739.3 653.833  11
   0   3   1 21220.4 458.539  11
   0   3   1 21928.0 334.194   8
   0   3   1 21395.7 363.518  10
   0  -3  -1 23163.9 370.511  10
   0  -3  -1 20843.3 426.201   1
   0   3   1 22582.6 473.984   9
   0   3   1 21529.5 420.628   1
   0  -3  -1 21601.0 335.110   8
   0  -3  -2 3054.71 117.145  10
   0   3   2 3392.40 117.999  10
   0   3   2 3063.53 167.088   1
   0   3   2 3134.13 143.924   8
   0  -3  -2 3255.41 142.124   8
   0   3   2 3354.37 141.948   5
   0  -3  -2 3092.20 166.708   1
   0  -3  -3 786.879 85.1975   8
   0  -3  -3 731.754 44.6229  10
   0   3   3 777.105 92.3780   1
   0   3   3 723.150 77.7331   5
   0  -3  -4 19755.2 425.910   5
   0  -3  -4 20633.8 423.930   8
   0   3   4 21110.2 458.598   1
   0   3   5 4486.08 228.290   1
   0  -3  -5 4625.81 215.117   2
   0  -3  -5 4530.20 227.668   5
   0   3   6 967.622 118.407   1
   0  -3  -6 1004.15 101.910   2
   0  -3  -6 1206.54 132.334   5
   0  -3  -7 83.3233 25.0830  10
   0   3   7 173.659 70.8663   1
   0  -3  -7 130.630 46.6224   2
   0  -3  -7 165.919 68.7496   5
   0  -3  -8 55.4223 51.4504   5
   0   3   8 1.43575 17.1577  10
   0  -3  -8-15.1251 33.9010   2
   0  -3  -8 4.65764 21.4077  10
   0   3   8 66.9654 59.1357   1
   0  -3  -9 512.644 106.727   5
   0  -3  -9 429.984 62.6065  10
   0   3   9 495.592 104.354   1
   0   3   9 479.339 58.6477  10
   0  -3  -9 487.188 73.6281   2
   0  -3 -10 720.063 131.080   3
   0   3  10 670.071 130.754   1
   0  -3 -10 639.173 79.3125  10
   0   3  10 510.026 68.2808  10
   0  -3 -10 662.458 122.000   5
   0  -3 -10 612.399 79.9433   2
   0   3  11 1535.51 192.599   1
   0  -3 -11 1555.06 191.336   5
   0  -3 -11 1607.26 121.498   2
   0  -3 -11 1593.08 132.785  10
   0  -3 -11 1750.10 192.974   3
   0   3  11 1678.90 128.972  10
   0   3  12 1714.86 146.458  10
   0  -3 -12 1653.08 146.621  10
   0  -3 -12 1712.69 206.352   3
   0   3  12 1723.71 221.270   1
   0  -3 -12 1735.24 210.437   5
   0  -3 -12 1776.71 124.008   2
   0  -3 -13 95.9022 77.5987   3
   0   3  13 82.5397 74.7364   1
   0   3  13 6.46571 36.4455  10
   0  -3 -13-0.54269 18.7028   2
   0  -3 -13-48.6547 60.1280   5
   0  -3 -13 40.6255 49.6241  10
   0   3  14 61.8373 63.9427   1
   0  -3 -14 176.689 72.2237  10
   0  -3 -14 235.017 93.3743   5
   0  -3 -14 138.255 30.6363   2
   0   3  15 484.646 64.0823   9
   0  -3 -15 870.111 136.642  10
   0   3  15 606.292 156.823   1
   0   3  15 920.987 128.781  10
   0  -3 -15 1023.27 182.808   5
   0  -3 -16 60.5055 82.8542   5
   0   3  16 25.0864 53.3434  10
   0  -3 -16 106.212 74.3940  10
   0   3  16-0.29082 17.3986   9
   0   3  16-13.5688 80.1727   1
   0   3  17 93.0451 61.4389  10
   0  -3 -17-145.961 96.0118   5
   0   3  17 26.4370 74.1698   1
   0  -3 -17 69.4407 51.8745  10
   0   3  18 291.504 136.421   1
   0  -3 -18 404.291 116.482  10
   0  -3 -18 415.405 160.178   5
   0  -3 -19 1058.70 232.314   5
   0   3  19 503.258 169.876   1
   0   4 -18 92.3440 95.4185   5
   0   4 -17-76.8849 70.4594   5
   0   4 -17 99.0807 81.3870   4
   0   4 -16 1248.44 214.466   4
   0   4 -16 921.876 180.620   5
   0   4 -16 1128.34 229.292  10
   0   4 -15 157.793 89.0120   4
   0   4 -15 51.3069 79.2430  11
   0  -4  15-52.0069 92.2426   3
   0   4 -15 100.737 68.9176   5
   0   4 -15 111.923 98.2078  10
   0   4 -14 53.9882 92.5383  10
   0   4 -14 16.1258 71.3263   4
   0  -4  14 32.5826 94.7967   3
   0   4 -14 93.0798 100.084  11
   0  -4  13-44.9572 65.2943   3
   0   4 -13 27.2547 57.3221   4
   0   4 -13 27.5457 87.7776  11
   0  -4  12 283.520 59.1195   2
   0   4 -12 316.066 97.3808   4
   0   4 -12 308.294 125.158  10
   0  -4  12 321.137 132.490   3
   0   4 -12 563.666 171.451  11
   0   4 -11-4.64275 48.7859   4
   0  -4  11 71.1263 42.1027   2
   0   4 -11 96.5538 89.3838  10
   0   4 -11-27.9365 57.0984   7
   0   4 -11 13.4534 65.1722  11
   0  -4  11-116.433 85.3696   3
   0   4 -10 1192.71 208.207  11
   0   4 -10 1458.58 192.033   7
   0   4 -10 1301.30 205.456  10
   0   4 -10 1346.28 173.877   4
   0  -4  10 1081.45 181.218   3
   0  -4  10 1434.97 137.388   2
   0   4  -9 1229.05 151.099   4
   0  -4   9 1448.74 144.452   2
   0   4  -9 1568.73 202.050   3
   0  -4   9 1456.06 195.542   3
   0   4  -9 1484.52 181.800   7
   0   4  -9 1472.92 219.303  11
   0   4  -9 1577.33 216.474  10
   0   4  -8 6619.29 391.865   3
   0   4  -8 6036.45 345.197   7
   0  -4   8 6745.70 414.259  10
   0  -4   8 6645.57 301.041   2
   0   4  -8 6416.45 408.849  11
   0   4  -8 6113.08 397.549  10
   0  -4   8 5891.35 367.139   3
   0   4  -8 6177.45 317.179   4
   0   4  -7 996.350 138.681   7
   0  -4   7 1212.50 135.812   2
   0   4  -7 1131.98 175.433  11
   0  -4   7 1298.39 183.164  10
   0   4  -7 1440.68 173.081   3
   0  -4   7 1333.29 175.453   3
   0   4  -7 1059.92 167.198  10
   0  -4   6 1105.38 149.647   3
   0  -4   6 1255.75 167.778  10
   0   4  -6 1186.36 152.114   3
   0   4  -6 1240.39 169.833  11
   0  -4   6 1177.56 133.837   2
   0   4  -6 1286.60 172.073  10
   0   4  -6 1072.03 132.884   7
   0  -4   5 2862.45 203.263   2
   0  -4   5 2869.82 224.838   3
   0   4  -5 2613.79 178.550   7
   0   4  -5 2944.66 239.263  11
   0   4  -5 2909.18 228.537   3
   0   4  -5 2811.55 205.252   9
   0  -4   5 3176.75 252.377  10
   0   4  -5 3045.26 241.242  10
   0   4  -4 1920.47 187.939  11
   0  -4   4 1814.88 170.245   3
   0  -4   4 2227.29 203.837  10
   0   4  -4 1556.01 166.642  10
   0   4  -4 1739.12 162.275   9
   0   4  -4 1855.47 136.402   7
   0  -4   4 1760.64 161.326   2
   0  -4   3 2903.50 220.238  10
   0   4  -3 2413.56 202.617  11
   0  -4   3 2421.46 188.802   2
   0   4  -3 2622.81 203.657  10
   0   4  -3 2656.24 132.578   6
   0   4  -3 2746.83 142.859   7
   0   4  -3 2534.32 191.908   9
   0  -4   3 2716.67 206.344   3
   0  -4   3 2519.18 162.731   4
   0  -4   2 2020.39 170.095   2
   0  -4   2 1881.28 162.564   3
   0  -4   2 1829.90 135.167   4
   0  -4   2 2020.50 173.211  10
   0   4  -2 1964.00 104.143   7
   0   4  -2 1974.96 172.973   9
   0   4  -2 1859.91 160.045  10
   0   4  -2 2148.24 183.848  11
   0   4  -1 1607.55 158.588   9
   0   4  -1 1695.72 138.169  10
   0   4  -1 1677.02 153.965  11
   0   4  -1 1686.66 108.377   8
   0   4  -1 1677.82 76.2889   7
   0  -4   1 1624.70 145.635   1
   0  -4   1 1678.54 150.146   3
   0  -4   1 1728.38 161.775   2
   0  -4   1 1711.67 148.453  10
   0  -4   0 7746.38 305.625   3
   0  -4   0 7711.40 298.302   1
   0  -4   0 7963.34 297.498  10
   0   4   0 7795.80 224.602   8
   0   4   0 7424.53 323.785  11
   0   4   0 7698.81 323.576   9
   0   4   0 7480.33 278.259  10
   0  -4   0 7810.95 196.306   6
   0   4   1 126207. 900.368   8
   0   4   1 125695. 1004.01  10
   0  -4  -1 124459. 1179.36   1
   0   4   1 125144. 1308.84  11
   0  -4  -1 123454. 1057.65  10
   0  -4  -1 126423. 1205.04   3
   0   4   1 124043. 1306.71   9
   0   4   2 22642.7 411.757   8
   0  -4  -2 23010.3 414.295   8
   0   4   2 24011.7 405.567   5
   0  -4  -2 22892.2 509.777   1
   0   4   2 24723.7 394.024  10
   0   4   2 23489.0 512.453   1
   0   4   2 23991.0 564.451   9
   0  -4  -2 24136.9 402.866  10
   0   4   3 63068.1 921.865   9
   0  -4  -3 62993.7 871.337   1
   0  -4  -3 65340.7 557.246  10
   0   4   3 64229.8 862.485   1
   0   4   3 66712.4 554.534  10
   0  -4  -3 62833.7 725.425   8
   0   4   3 64497.7 719.349   5
   0   4   4 493.691 88.3000   1
   0   4   4 523.205 76.2477   5
   0  -4  -4 440.244 34.8945  10
   0  -4  -4 488.872 83.8866   1
   0  -4  -4 395.102 71.2073   8
   0  -4  -5 572.950 89.7099   8
   0  -4  -5 559.136 91.5479   1
   0  -4  -5 488.446 86.4282   2
   0   4   5 536.498 90.9996   1
   0  -4  -6 130.189 51.6294   2
   0  -4  -6 53.6812 49.9451   8
   0  -4  -6 111.971 56.1124   1
   0   4   6 138.060 61.0824   1
   0  -4  -6 62.0189 58.6727   5
   0  -4  -7 2634.59 206.426   5
   0   4   7 2944.94 216.467   1
   0  -4  -7 2655.76 194.179   2
   0  -4  -7 2856.47 221.757   1
   0  -4  -8 657.909 120.844   5
   0   4   8 668.909 118.407   1
   0  -4  -8 658.220 99.4875   2
   0  -4  -8 734.484 124.887   1
   0  -4  -9 1501.57 187.081   1
   0  -4  -9 1454.14 145.367   2
   0  -4  -9 1506.40 173.228   5
   0   4   9 1282.67 161.668   1
   0   4  10 225.513 90.1249   1
   0  -4 -10 106.062 66.2478   1
   0  -4 -10 269.609 96.2075   5
   0  -4 -10 136.080 55.7967   2
   0  -4 -11 5637.88 365.547   5
   0   4  11 5549.08 357.636   1
   0  -4 -11 5456.87 372.416   1
   0  -4 -11 5472.00 269.562   2
   0  -4 -12 3925.44 321.571   5
   0   4  12 3796.69 320.457   1
   0  -4 -12 3990.07 227.836   2
   0  -4 -12 4102.88 309.852   3
   0  -4 -13 776.208 100.626   2
   0  -4 -13 762.485 151.641   5
   0   4  13 819.847 164.746   1
   0  -4 -14 835.275 164.172   5
   0   4  14 715.108 97.1406   9
   0  -4 -14 930.612 107.531   2
   0   4  14 706.243 163.576   1
   0  -4 -15 7612.52 281.214   2
   0   4  15 6682.73 287.581   9
   0   4  15 8713.35 526.236   1
   0  -4 -15 9664.21 559.521   5
   0   4  16 267.789 132.371   1
   0  -4 -16 306.947 120.764   5
   0   4  16 258.727 59.8130   9
   0  -4 -17 783.163 187.603   5
   0   4  17 805.854 192.227   1
   0  -4 -18 355.605 157.473   5
   0   4  18 303.734 147.185   1
   0  -4 -19 248.615 147.492   5
   0   4  19-102.981 109.013   1
   0   5 -16-7.19697 50.5136   5
   0   5 -16 112.800 89.9358   4
   0   5 -15 77.3544 60.0835   5
   0   5 -15 118.286 113.298   4
   0   5 -14 171.072 122.530  10
   0   5 -14 38.5466 93.3491  11
   0   5 -14 187.653 89.6681   4
   0  -5  14 148.294 99.2500   3
   0   5 -13 283.498 98.5145   4
   0  -5  13 176.330 102.517   3
   0   5 -13 481.024 180.779  11
   0   5 -13 561.222 173.001  10
   0   5 -12 94.6315 90.7784  10
   0  -5  12 107.147 78.1865   3
   0   5 -12 81.5001 63.6056   4
   0   5 -12 4.70469 94.5451  11
   0   5 -11-96.1645 85.9705  11
   0   5 -11 91.0916 75.1822   4
   0   5 -11 115.321 110.561  10
   0  -5  11 16.2224 35.9521   2
   0   5 -11 23.3502 64.6953   7
   0  -5  11 86.0357 83.6061   3
   0   5 -10 66.0914 57.0566   4
   0  -5  10 165.297 66.3137   2
   0   5 -10 190.244 104.397  11
   0  -5  10 53.9973 61.3573   3
   0   5 -10 118.063 88.5903  10
   0   5 -10 133.797 76.0127   7
   0  -5   9 689.990 150.338   3
   0   5  -9 576.075 146.620  11
   0  -5   9 540.342 103.982   2
   0   5  -9 743.471 139.792   7
   0   5  -9 723.865 128.579   4
   0   5  -9 889.232 186.419  10
   0   5  -8 73.0463 73.4381  11
   0   5  -8-150.025 94.2067  10
   0  -5   8-11.8930 43.3442   2
   0   5  -8 91.8793 62.8715   7
   0  -5   8-25.0794 79.3390   3
   0   5  -7 867.398 123.587   7
   0   5  -7 941.590 156.157   3
   0  -5   7 747.517 149.896  10
   0   5  -7 795.673 151.703  10
   0  -5   7 891.045 131.880   2
   0  -5   7 899.558 155.025   3
   0   5  -7 729.849 151.209  11
   0   5  -6 8515.59 351.689   7
   0  -5   6 8378.91 388.100   2
   0   5  -6 7772.24 440.067  10
   0   5  -6 9259.68 448.287   3
   0  -5   6 9363.07 476.914  10
   0  -5   6 8523.98 430.070   3
   0   5  -6 8707.41 463.502  11
   0  -5   5 643.218 132.840  10
   0   5  -5 398.510 101.722   9
   0   5  -5 453.889 69.0514   6
   0   5  -5 466.692 113.270  10
   0   5  -5 414.870 77.5573   7
   0  -5   5 439.854 101.854   3
   0   5  -5 648.410 127.554   3
   0   5  -5 488.729 117.867  11
   0  -5   5 526.956 107.887   2
   0  -5   4 233.836 81.2787  10
   0   5  -4 405.731 101.976   9
   0  -5   4 357.752 89.8148   2
   0  -5   4 311.007 88.3757   3
   0   5  -4 321.131 52.7889   6
   0   5  -4 370.755 99.4494  11
   0   5  -4 284.008 57.5637   7
   0   5  -4 246.716 82.5956  10
   0   5  -4 440.733 96.3537   3
   0   5  -3 150.654 67.2453   3
   0  -5   3 159.908 74.8822   2
   0  -5   3 110.350 50.8133   3
   0   5  -3 144.479 72.8593   9
   0  -5   3 171.491 51.6073   4
   0   5  -3 188.785 72.9276  10
   0   5  -3 167.311 38.5585   7
   0  -5   3 115.087 52.4591  10
   0   5  -3 157.509 73.3473  11
   0  -5   3 113.169 75.0839  11
   0  -5   2 4743.13 281.677   3
   0   5  -2 4278.38 290.273  11
   0  -5   2 4317.82 283.040   2
   0  -5   2 4647.02 281.267  10
   0  -5   2 4641.27 275.483   1
   0   5  -2 4396.15 152.124   7
   0   5  -2 4511.60 284.747   9
   0   5  -2 4121.90 256.403  10
   0   5  -2 4423.10 203.283   8
   0  -5   2 4530.01 225.641   4
   0   5  -1 3232.71 243.662   9
   0   5  -1 3307.31 247.233  11
   0  -5   1 3313.44 222.013  10
   0  -5   1 3377.01 245.754   2
   0   5  -1 2965.90 104.401   7
   0   5  -1 3491.54 170.528   8
   0  -5   1 3604.50 238.696   1
   0   5  -1 3527.57 224.843  10
   0  -5   1 3196.68 227.983   3
   0   5   0 898.726 104.041  10
   0  -5   0 634.986 108.961   2
   0  -5   0 761.227 116.564   3
   0  -5   0 705.614 107.961   1
   0  -5   0 706.971 106.667  10
   0  -5   0 748.926 70.7871   6
   0   5   0 527.137 102.499  11
   0   5   0 738.992 118.063   9
   0   5   0 662.602 74.4601   8
   0   5   1 565.472 111.224   9
   0  -5  -1 335.329 37.1111  10
   0  -5  -1 522.700 98.8300   3
   0  -5  -1 421.565 83.6371   1
   0   5   1 503.823 76.8957  10
   0   5   1 498.221 100.353  11
   0   5   1 487.177 65.0216   8
   0  -5  -1 476.997 60.4192   6
   0  -5  -2 498.782 88.8018   1
   0   5   2 565.405 70.9272   5
   0   5   2 437.673 93.8351   9
   0  -5  -2 531.760 92.1942   3
   0  -5  -2 455.740 71.4756   8
   0   5   2 493.359 67.9943  10
   0   5   2 511.903 93.0195   1
   0  -5  -2 490.140 67.4335  10
   0   5   2 498.608 70.3092   8
   0  -5  -3 830.364 82.4669  10
   0   5   3 778.730 84.2674   5
   0   5   3 608.488 98.1610   1
   0  -5  -3 570.024 82.8878   8
   0   5   3 696.738 71.9316  10
   0  -5  -3 703.301 109.953   1
   0   5   3 714.536 116.984   9
   0  -5  -4 330.171 81.2219   1
   0   5   4 270.745 71.2709   1
   0  -5  -4 348.729 41.8113  10
   0   5   4 318.237 63.9717   5
   0  -5  -4 312.156 64.3165   8
   0   5   4 357.864 99.2641   9
   0  -5  -5 155.062 52.7017   8
   0  -5  -5 169.466 62.5296   1
   0   5   5 258.114 84.8294   9
   0   5   5 276.529 83.6306   1
   0  -5  -5 87.2912 10.8354  10
   0  -5  -5 181.149 69.8914  11
   0   5   6 1510.66 169.990   9
   0  -5  -6 1879.89 166.665   8
   0   5   6 1929.43 179.535   1
   0  -5  -6 2004.39 185.235   1
   0  -5  -7 4195.03 280.231   1
   0   5   7 4011.25 267.059   1
   0  -5  -7 3851.20 239.317   8
   0   5   8 63.7295 64.3977   1
   0  -5  -8 85.2363 71.9466   5
   0  -5  -8 147.998 66.4325   2
   0  -5  -8 115.529 75.6790   8
   0  -5  -8 153.601 67.2431   1
   0   5   9 212.286 94.1336   1
   0  -5  -9 119.569 64.7481   2
   0  -5  -9 236.553 85.8851   5
   0  -5  -9 280.417 113.640   1
   0  -5  -9 175.737 88.8093   8
   0  -5 -10 4617.73 284.346   2
   0   5  10 4552.18 325.357   1
   0  -5 -10 5266.07 331.079   5
   0  -5 -10 5006.47 351.497   1
   0  -5 -11 1673.22 218.160   1
   0  -5 -11 1700.33 207.022   5
   0   5  11 1664.48 208.405   1
   0  -5 -11 1496.76 161.977   2
   0  -5 -12-34.4107 67.8523   5
   0   5  12 51.1835 50.0700   9
   0   5  12 91.2226 76.5763   1
   0  -5 -12 87.0654 54.8394   2
   0  -5 -13 733.290 157.132   5
   0   5  13 674.974 115.545   9
   0   5  13 862.058 169.362   1
   0  -5 -14 2639.94 282.271   5
   0   5  14 2211.63 273.945   1
   0   5  14 2218.18 196.576   9
   0  -5 -15 94.2607 111.715   5
   0   5  15 113.135 48.4512   9
   0   5  15 30.4303 81.6620   1
   0   5  16 713.985 108.427   9
   0  -5 -16 844.114 172.552   5
   0   5  16 999.355 192.091   1
   0   5  17 229.852 126.211   1
   0   5  17 114.274 44.5515   9
   0  -5 -17 86.8476 112.402   5
   0  -5 -18 457.645 159.586   5
   0   5  18 320.713 143.347   1
   0   6 -13 210.070 125.631  10
   0   6 -13 471.507 166.283  11
   0  -6  13 317.673 139.684   3
   0  -6  12 214.660 114.041   3
   0   6 -12 113.096 114.680  11
   0   6 -12 92.0866 80.0767  10
   0   6 -11 154.127 102.733  11
   0   6 -11 125.602 112.518  10
   0  -6  11 120.458 89.8729   3
   0  -6  10 1380.98 176.114   2
   0  -6  10 1718.12 247.421   3
   0   6 -10 1123.26 177.909   7
   0   6 -10 1461.02 245.289  10
   0   6 -10 1202.19 223.640  11
   0  -6   9 220.756 116.104   3
   0   6  -9 284.425 82.4432   7
   0  -6   9 237.170 85.9021   2
   0   6  -9 404.699 130.666  10
   0   6  -9 327.144 122.098  11
   0  -6   8 7737.04 471.654   3
   0  -6   8 7917.13 418.882   2
   0   6  -8 7896.98 516.651  11
   0   6  -8 8078.03 395.240   7
   0   6  -8 8371.02 513.350  10
   0   6  -7 32.0582 52.3380   7
   0   6  -7 0.72742 63.9850  10
   0   6  -7 74.1968 74.8498  11
   0  -6   7 29.5925 43.2158   2
   0   6  -7 13.9996 38.1375   6
   0  -6   7 61.0744 76.5169   3
   0   6  -6 7361.88 292.661   6
   0   6  -6 7874.58 480.332  11
   0  -6   6 7767.09 412.283   2
   0  -6   6 6748.35 411.746   3
   0   6  -6 7588.10 454.860  10
   0   6  -6 8046.21 341.313   7
   0   6  -5 8368.96 446.741   3
   0   6  -5 7848.35 440.449  10
   0   6  -5 8000.27 308.424   7
   0  -6   5 7877.57 454.658  10
   0   6  -5 7867.86 466.631  11
   0  -6   5 8132.84 419.580   2
   0   6  -5 7604.63 413.411   9
   0  -6   5 7739.85 423.726   3
   0   6  -5 8150.96 281.121   6
   0  -6   4 1021.81 168.057  10
   0  -6   4 947.004 159.315   3
   0   6  -4 1041.98 162.675  10
   0   6  -4 935.320 151.863   9
   0   6  -4 839.073 149.139  11
   0   6  -4 999.132 98.8721   7
   0   6  -4 952.511 151.381   3
   0  -6   4 1003.17 146.026   2
   0   6  -3 110.505 43.7897   8
   0   6  -3 165.428 79.7502  11
   0   6  -3 10.8902 52.6548   9
   0   6  -3 146.248 82.3080  10
   0  -6   3 112.262 70.4494   3
   0   6  -3 165.194 73.5783   3
   0  -6   3 69.3506 42.8063   2
   0  -6   3 88.1152 39.8059   4
   0  -6   3 307.772 105.383  10
   0  -6   3 179.406 82.2443  11
   0   6  -3 153.680 37.1787   7
   0  -6   3 199.206 75.5326   1
   0   6  -2 6755.34 181.659   7
   0  -6   2 7469.46 382.219  10
   0   6  -2 7560.93 420.502  11
   0   6  -2 7755.36 375.033  10
   0   6  -2 7238.69 400.358   9
   0  -6   2 7864.69 390.546   1
   0  -6   2 7160.53 308.772   4
   0  -6   2 7058.74 372.548   3
   0  -6   2 7463.68 424.824  11
   0   6  -2 7522.49 280.076   8
   0  -6   2 7133.48 400.121   2
   0  -6   1 11457.5 461.933   1
   0   6  -1 11354.3 513.499  11
   0  -6   1 11747.6 468.925   3
   0   6  -1 10924.3 488.699   9
   0  -6   1 11012.6 379.966   4
   0   6  -1 11294.7 331.149   8
   0   6  -1 11149.3 430.251  10
   0  -6   1 11043.5 493.933   2
   0  -6   1 11688.5 512.570  11
   0  -6   1 10795.0 441.169  10
   0   6   0 1252.77 141.647  10
   0  -6   0 1376.03 180.655  11
   0  -6   0 1271.43 170.888   2
   0   6   0 1323.13 170.099  11
   0   6   0 1132.18 174.306   9
   0  -6   0 1400.92 161.009   3
   0  -6   0 1287.59 138.759  10
   0  -6   0 1231.42 154.850   1
   0   6   0 1280.42 110.878   8
   0   6   1 18.5957 37.3630  10
   0  -6  -1 15.3449 50.6533   3
   0  -6  -1-20.7327 54.9459   1
   0  -6  -1-76.6799 65.2831  10
   0  -6  -1 30.7737 50.9297  11
   0   6   1 108.936 69.6608  11
   0   6   1-17.4565 34.2498   8
   0  -6  -1-0.34546 28.8852   6
   0  -6  -1 60.5856 56.1631   2
   0   6   1 33.3620 27.3022   5
   0   6   1-65.6958 70.5030   9
   0   6   2 7903.32 284.488   8
   0  -6  -2 7691.61 371.080   3
   0  -6  -2 7902.66 299.737  10
   0   6   2 7546.09 400.229   9
   0  -6  -2 8590.02 425.852  11
   0   6   2 7591.49 291.731  10
   0  -6  -2 8169.79 376.258   1
   0   6   2 7955.84 261.249   5
   0   6   3 1765.37 131.471   5
   0   6   3 1783.39 127.348  10
   0   6   3 1544.89 187.740   9
   0  -6  -3 1917.98 205.832  11
   0  -6  -3 1944.44 193.189   1
   0  -6  -3 1560.04 162.344   3
   0   6   3 1810.11 175.256   1
   0  -6  -3 1793.28 133.506  10
   0  -6  -3 1633.36 141.279   8
   0  -6  -4 165.870 29.2928   7
   0   6   4 211.458 70.1825   1
   0   6   4 237.963 58.5464   5
   0  -6  -4 190.369 62.1255   8
   0  -6  -4 253.291 86.6601   2
   0  -6  -4 161.402 23.6230  10
   0  -6  -4 234.656 89.6499  11
   0  -6  -4 91.8887 51.2583   1
   0   6   4 119.662 74.1276   9
   0  -6  -5 61.7146 46.5401  11
   0  -6  -5 44.6528 49.8231   1
   0  -6  -5 113.204 52.0701   8
   0   6   5 104.948 81.7649   9
   0  -6  -5-5.78867 27.6652  10
   0   6   5 10.7520 59.4401   1
   0  -6  -5-7.52801 48.1694   2
   0   6   6 164.294 84.1133   9
   0  -6  -6 282.735 88.7137   1
   0  -6  -6 307.652 89.7844   2
   0   6   6 340.004 93.3107   1
   0  -6  -6 199.289 59.5418   8
   0  -6  -6 274.108 85.3453  11
   0  -6  -7 752.202 130.363   1
   0  -6  -7 624.323 121.912   2
   0  -6  -7 774.251 143.648  11
   0  -6  -7 737.949 115.379   8
   0   6   7 678.682 128.917   1
   0   6   7 806.683 146.876   9
   0  -6  -8 16176.5 606.063   1
   0   6   8 15348.4 570.623   1
   0  -6  -8 14924.9 511.618   8
   0  -6  -8 15611.9 575.705   2
   0   6   8 14286.6 543.944   9
   0  -6  -9 8813.92 464.992   1
   0   6   9 7808.18 402.302   9
   0   6   9 7932.81 424.078   1
   0  -6  -9 8136.76 401.788   8
   0  -6  -9 8279.35 419.722   2
   0  -6 -10 13096.5 584.608   1
   0   6  10 12334.3 545.120   1
   0   6  10 11677.3 493.428   9
   0  -6 -10 12195.9 510.039   2
   0  -6 -10 11851.9 502.559   8
   0  -6 -11 1454.22 194.742   8
   0  -6 -11 1305.48 183.403   5
   0   6  11 1375.83 199.334   1
   0  -6 -11 1576.37 189.317   2
   0   6  11 1272.09 173.601   9
   0  -6 -12 121.409 90.4128   5
   0   6  12 80.9890 60.0824   9
   0  -6 -12 61.8809 58.3014   8
   0   6  12 66.9438 76.8809   1
   0  -6 -12 135.032 70.4034   7
   0  -6 -12 70.4851 46.8389   2
   0  -6 -13 2751.49 263.772   7
   0   6  13 2710.61 241.261   9
   0   6  13 2896.79 292.625   1
   0  -6 -13 2717.46 243.932   2
   0  -6 -13 2763.70 280.544   8
   0  -6 -13 2752.01 282.213   5
   0  -6 -14 592.768 148.354   8
   0  -6 -14 580.420 146.723   5
   0  -6 -14 471.363 102.670   2
   0   6  14 595.808 111.247   9
   0   6  14 588.114 139.267   1
   0  -6 -15 205.085 97.6752   5
   0   6  15 265.143 116.414   1
   0  -6 -15 152.010 70.4912   2
   0   6  15 242.403 80.4132   9
   0  -6 -15 86.5093 79.7755   8
   0  -6 -16 465.982 130.157   5
   0   6  16 454.435 142.797   1
   0   6  16 395.617 101.651   9
   0  -6 -17 14.9148 74.4534   5
   0   6  17 80.8972 59.6866   9
   0   6  17-2.74083 80.1551   1
   0  -6 -18-211.909 124.697   5
   0   6  18 56.9242 69.9514   1
   0  -7  12-14.2911 79.1737   3
   0   7 -11-10.4565 105.562  10
   0   7 -11 157.075 112.539  11
   0  -7  11 95.7560 72.2631   3
   0   7 -10 729.730 194.048  11
   0  -7  10 729.344 170.102   3
   0   7 -10 968.565 224.678  10
   0   7  -9 1079.73 207.773  10
   0   7  -9 1055.15 217.640  11
   0  -7   9 947.214 191.260   3
   0   7  -8 81.3531 92.8765  11
   0  -7   8-56.7694 80.6607   3
   0   7  -8-32.0278 33.7240   7
   0  -7   8 62.5862 65.5629   2
   0   7  -8 12.6668 97.9121  10
   0   7  -7 906.818 121.151   7
   0   7  -7 1133.32 207.477  10
   0   7  -7 1075.93 191.875  11
   0  -7   7 736.090 146.835   2
   0  -7   7 721.311 157.987   3
   0   7  -6 2023.84 166.146   7
   0  -7   6 1923.60 242.664   3
   0  -7   6 2179.70 242.669   2
   0   7  -6 1735.81 237.211  10
   0   7  -6 2174.36 276.862  11
   0   7  -5 288.754 62.3838   7
   0   7  -5 322.822 104.119  10
   0  -7   5 247.922 94.1355   3
   0   7  -5 139.435 82.5868  11
   0  -7   5 347.687 109.915   2
   0  -7   4 139.270 62.5280   2
   0  -7   4 247.532 96.9898   3
   0  -7   4 167.301 86.9653   1
   0   7  -4 297.446 98.4378  11
   0  -7   4 93.5878 62.6444  10
   0   7  -4 99.3330 45.6703   8
   0   7  -4 253.745 110.720  10
   0   7  -4 189.749 43.8916   7
   0   7  -4 294.361 105.249   9
   0  -7   3 219.500 85.6232   1
   0  -7   3 163.901 88.7253   3
   0  -7   3 179.435 82.3907   2
   0   7  -3 249.138 60.4048   8
   0   7  -3 161.731 35.7334   7
   0   7  -3 184.945 100.559   9
   0   7  -3 177.775 86.4315  11
   0  -7   3 322.574 82.4215   4
   0   7  -3 148.983 79.4555  10
   0  -7   3 218.459 93.7736  10
   0   7  -2 2.38043 52.5255  10
   0  -7   2 23.7070 50.0830  10
   0  -7   2-21.0526 77.4220   3
   0  -7   2 6.94702 39.4429   4
   0   7  -2 50.2850 75.6464  11
   0   7  -2 208.278 102.548   9
   0   7  -2 11.1732 34.0442   8
   0  -7   2 71.2784 62.9308   2
   0  -7   2 207.704 89.7651   1
   0  -7   1 108.116 77.8603   2
   0  -7   1 41.4788 53.1744  10
   0   7  -1 163.538 89.5247  11
   0  -7   1 205.370 79.2608   3
   0   7  -1 177.996 77.7156  10
   0   7  -1 231.681 60.7771   8
   0  -7   1 207.894 64.4198   4
   0   7  -1 76.9465 55.4582   9
   0  -7   1 178.362 91.8810  11
   0  -7   1 119.227 72.3648   1
   0  -7   0 1081.28 145.171  10
   0   7   0 1219.08 148.400  10
   0  -7   0 1059.63 169.404   2
   0   7   0 1014.71 86.2792   5
   0   7   0 908.461 155.891   9
   0   7   0 945.764 101.371   8
   0  -7   0 990.345 154.429   3
   0   7   0 947.205 166.662  11
   0  -7   0 985.589 164.722  11
   0  -7   0 1110.23 167.066   1
   0  -7  -1 4.60416 63.4199  11
   0   7   1-21.0656 26.1890   5
   0  -7  -1-75.8246 60.0404   3
   0  -7  -1 29.1276 50.7991  10
   0   7   1 34.2121 46.1451  10
   0   7   1 125.734 74.3982  11
   0   7   1 8.45865 60.1524   9
   0  -7  -1-24.1413 68.4659   1
   0  -7  -1 136.047 74.6857   2
   0   7   1 5.69901 33.8068   8
   0  -7  -2 5952.76 353.416   1
   0   7   2 5637.59 376.310   9
   0   7   2 5732.97 277.907  10
   0  -7  -2 5338.72 370.880   2
   0  -7  -2 5810.27 344.781   3
   0  -7  -2 5763.82 291.220  10
   0  -7  -2 6171.81 401.984  11
   0   7   2 5745.71 230.556   5
   0  -7  -2 5559.43 225.064   6
   0  -7  -3 216.051 79.7169   3
   0  -7  -3 249.370 76.9752   1
   0  -7  -3 299.837 90.7093   2
   0  -7  -3 178.392 45.1105  10
   0   7   3 316.101 101.468   9
   0   7   3 304.076 72.6865  10
   0   7   3 386.063 69.8724   5
   0  -7  -3 354.585 113.233  11
   0   7   4 646.855 136.498   9
   0  -7  -4 733.023 142.171   2
   0  -7  -4 742.394 126.263   1
   0  -7  -4 695.262 135.803  11
   0  -7  -4 772.578 85.8049  10
   0  -7  -4 692.356 108.910   8
   0   7   4 851.366 138.235   1
   0  -7  -4 918.768 143.473   3
   0  -7  -5 5838.10 156.712   7
   0  -7  -5 6388.17 164.934   7
   0   7   5 7352.03 432.918   9
   0  -7  -5 7899.70 239.984  10
   0   7   5 8221.40 418.098   1
   0  -7  -5 7997.47 417.811   1
   0  -7  -5 7205.61 426.978   2
   0  -7  -5 8560.12 461.976  11
   0  -7  -5 7481.15 335.151   8
   0   7   6 395.348 100.892   1
   0  -7  -6 350.729 99.8793   2
   0  -7  -6 368.840 60.3918   7
   0  -7  -6 378.382 93.4101   1
   0  -7  -6 357.666 108.286  11
   0  -7  -6 334.164 85.3078   8
   0   7   6 329.918 111.041   9
   0   7   7 342.286 112.418   9
   0  -7  -7 475.773 104.293   8
   0  -7  -7 390.259 111.357   2
   0   7   7 406.207 113.031   1
   0  -7  -7 242.466 82.5078  11
   0  -7  -7 378.544 64.9635   7
   0  -7  -7 404.816 112.093   1
   0  -7  -8 10764.2 452.006   8
   0  -7  -8 10684.7 517.748   2
   0  -7  -8 11651.0 543.494   1
   0   7   8 10763.6 503.759   1
   0  -7  -8 9943.12 351.513   7
   0   7   8 9806.40 495.469   9
   0   7   9-21.8651 55.9683   1
   0  -7  -9 10.6696 70.7886   8
   0  -7  -9 124.880 61.3796   7
   0  -7  -9-16.0500 51.7214   2
   0  -7  -9 7.52211 58.7173   1
   0   7   9-100.295 79.8108   9
   0  -7 -10 1523.48 200.990   2
   0  -7 -10 1511.49 163.400   7
   0   7  10 1739.78 213.284   9
   0   7  10 1658.10 214.839   1
   0  -7 -10 1857.94 211.038   8
   0   7  11 391.327 110.255   1
   0   7  11 347.670 109.607   9
   0  -7 -11 530.551 127.106   8
   0  -7 -11 460.548 100.793   7
   0  -7 -11 488.089 124.571   2
   0   7  12 149.168 84.2960   1
   0  -7 -12-3.63236 61.6059   8
   0   7  12 72.3134 72.6230   9
   0  -7 -12 47.7325 50.3988   2
   0  -7 -12 166.866 71.2006   7
   0  -7 -13 378.663 126.663   8
   0   7  13 424.969 105.455   9
   0  -7 -13 569.221 134.399   2
   0   7  13 465.525 134.664   1
   0  -7 -13 243.653 86.7239   7
   0  -7 -14 2157.58 266.774   8
   0   7  14 1912.76 261.899   1
   0  -7 -14 2086.27 231.128   2
   0   7  14 1975.40 219.354   9
   0  -7 -15 1167.18 207.716   8
   0   7  15 1228.49 228.746   1
   0   7  15 926.242 152.178   9
   0   7  16 802.374 178.776   1
   0   7  16 550.837 122.340   9
   0  -7 -16 679.531 187.578   8
   0   7  17-47.6096 58.6767   9
   0   7  17 8.36331 74.5067   1
   0  -7 -17 155.934 105.880   8
   0  -7 -18-15.0968 88.6308   8
   0  -8  10-47.6175 75.5954   3
   0   8  -9 107.990 92.1465  10
   0   8  -9-28.6524 82.2988  11
   0  -8   9 82.6287 99.4809   3
   0   8  -8-57.0767 77.2168  10
   0  -8   8 115.563 87.0455   3
   0   8  -8 4.90320 104.278  11
   0  -8   7-106.464 69.8782   3
   0   8  -7 11.3170 85.7713  10
   0   8  -7 47.5155 77.9922  11
   0  -8   6 903.564 173.873   3
   0   8  -6 1089.55 213.583  11
   0   8  -6 675.489 168.958  10
   0   8  -5 953.474 188.608  11
   0  -8   5 724.978 155.734   3
   0   8  -5 710.066 157.653  10
   0   8  -4 1533.18 214.711  10
   0  -8   4 1232.79 195.440   3
   0   8  -4 758.585 73.7597   7
   0   8  -4 1271.36 208.174   9
   0   8  -4 1371.01 227.768  11
   0   8  -3 74.3818 45.1899   8
   0  -8   3 280.375 87.2307   4
   0   8  -3 401.266 125.717  11
   0   8  -3 225.554 100.211   9
   0   8  -3 244.278 100.169  10
   0  -8   3 257.162 102.895   3
   0   8  -2 292.389 125.679   9
   0  -8   2 409.764 124.247  10
   0   8  -2 265.610 105.967  11
   0  -8   2 255.187 67.5175   4
   0   8  -2 239.262 83.3730  10
   0  -8   2 330.781 114.721   3
   0   8  -2 289.735 63.6123   8
   0  -8   1 8143.98 378.719   4
   0   8  -1 8689.98 520.038  11
   0  -8   1 8335.54 463.906   3
   0   8  -1 8334.40 433.121  10
   0   8  -1 8411.65 313.257   8
   0  -8   1 8395.65 449.585  10
   0   8  -1 8005.32 492.284   9
   0   8  -1 8055.57 236.675   5
   0   8   0 317.595 91.3177  10
   0   8   0 215.143 103.972   9
   0   8   0 253.878 43.2168   5
   0  -8   0 250.339 104.586   3
   0  -8   0 248.407 89.3083  10
   0   8   0 243.498 105.008  11
   0   8   0 196.993 53.1894   8
   0  -8   0 124.860 70.3694   1
   0   8   1 1130.02 182.920  11
   0  -8  -1 1126.61 170.134   3
   0   8   1 1235.11 154.775  10
   0  -8  -1 1442.58 175.664  10
   0  -8  -1 1121.94 174.228   1
   0   8   1 1137.58 96.8122   5
   0   8   1 1198.55 121.859   8
   0   8   1 990.472 169.862   9
   0  -8  -2 2916.99 275.962   1
   0   8   2 2872.61 212.608  10
   0   8   2 3051.72 173.622   5
   0  -8  -2 3173.62 238.483  10
   0  -8  -2 2951.22 169.084   6
   0   8   2 3057.34 302.515   9
   0  -8  -2 2811.73 260.287   3
   0  -8  -3 912.403 117.373  10
   0  -8  -3 878.472 141.521   3
   0  -8  -3 808.471 141.342   1
   0   8   3 810.535 169.253   9
   0  -8  -3 849.521 99.3070   6
   0  -8  -4 90.4169 62.9796   1
   0  -8  -4 200.229 61.3004  10
   0   8   4 78.9509 71.7446   9
   0  -8  -4 78.6994 61.4997   3
   0  -8  -5 1785.37 176.883   8
   0  -8  -5 1742.28 210.444   1
   0  -8  -5 1899.69 217.693   3
   0   8   5 1766.34 233.759   9
   0   8   5 1778.99 219.194   1
   0  -8  -5 1898.79 134.572  10
   0  -8  -6 4573.59 277.917   8
   0   8   6 4575.55 372.561   9
   0   8   6 5042.93 354.491   1
   0   8   7-58.9056 68.3554   9
   0  -8  -7 56.7571 51.4391   8
   0  -8  -7 54.1351 32.8669   7
   0   8   7-15.1321 59.4007   1
   0   8   8 889.330 158.904   1
   0  -8  -8 747.524 129.650   8
   0   8   8 666.067 145.743   9
   0  -8  -8 734.544 89.0259   7
   0   8   9 4108.19 350.542   9
   0  -8  -9 4664.52 326.686   8
   0   8   9 4679.69 361.937   1
   0  -8  -9 4304.52 237.289   7
   0   8  10 796.211 162.960   9
   0  -8 -10 812.404 118.397   7
   0   8  10 1037.39 187.464   1
   0  -8 -10 802.904 140.641   8
   0  -8 -11-26.0236 68.4203   8
   0   8  11-137.489 73.9331   1
   0  -8 -11 27.7159 63.1852   7
   0   8  11 13.8559 77.9730   9
   0   8  12 165.397 94.5842   1
   0  -8 -12 161.495 91.9962   8
   0  -8 -12 201.985 82.4916   7
   0   8  12 294.728 98.2162   9
   0   8  13 1330.08 207.594   9
   0  -8 -13 915.436 169.402   8
   0  -8 -13 876.262 151.482   7
   0   8  13 995.045 193.435   1
   0  -8 -14 335.630 117.259   8
   0   8  14 403.413 121.861   9
   0   8  14 632.003 168.988   1
   0   8  15 13.3441 53.8835   9
   0  -8 -15 71.6769 76.0346   8
   0   8  15-13.1619 86.9824   1
   0   8  16 178.919 83.0882   9
   0   8  16 478.887 170.398   1
   0  -8 -16 358.562 121.049   8
   0  -8 -17 731.534 166.098   8
   0   8  17 426.325 126.135   9
   0   9  -8 273.855 128.122  10
   0  -9   8 118.604 96.2809   3
   0  -9   7-104.379 64.6834   3
   0   9  -7 193.329 134.197  10
   0   9  -7 116.795 82.5733  11
   0   9  -6 991.149 197.672  10
   0  -9   6 471.538 136.005   3
   0   9  -6 681.212 190.775  11
   0   9  -5 91.5962 80.4352  10
   0   9  -5 8.64668 72.9839  11
   0  -9   5 175.624 75.8403   3
   0   9  -4 638.954 146.466  10
   0   9  -4 650.053 172.438  11
   0  -9   4 463.329 143.832   3
   0   9  -3 222.106 110.462  10
   0   9  -3 388.048 144.058   9
   0   9  -3 526.004 161.458  11
   0  -9   3 492.754 121.522   3
   0  -9   2 1264.42 161.331   4
   0   9  -2 1632.99 222.803  10
   0  -9   2 1594.49 229.174   3
   0   9  -2 1649.75 242.745   9
   0   9  -2 1955.15 274.806  11
   0   9  -1 1985.51 234.115  10
   0   9  -1 2142.99 283.457  11
   0  -9   1 1701.20 186.206   4
   0  -9   1 2060.38 249.863   3
   0   9  -1 2210.70 286.411   9
   0  -9   0 379.936 125.415   3
   0   9   0 540.216 115.666  10
   0   9   0 488.922 137.314  11
   0  -9   0 433.494 97.4552   4
   0   9   0 262.830 114.100   9
   0  -9   0 280.092 67.9309  10
   0   9   1 803.507 135.014  10
   0   9   1 702.547 182.689   9
   0  -9  -1 783.793 156.602   3
   0  -9  -1 880.206 152.967  10
   0   9   2 1401.16 223.934   9
   0  -9  -2 1202.42 193.512   3
   0  -9  -2 1654.71 203.253  10
   0  -9  -3 1025.94 109.211   6
   0  -9  -3 832.215 153.270   3
   0  -9  -3 1072.27 153.332  10
   0   9   3 1171.77 204.201   9
   0  -9  -4 16.7401 66.7597   3
   0  -9  -4 36.2604 36.8135  10
   0   9   4 28.0929 81.1233   9
   0  -9  -4 86.9444 52.5092   6
   0  -9  -5 995.731 110.933  10
   0   9   5 956.189 183.136   9
   0  -9  -5 1203.10 190.429   3
   0   9   6 161.260 76.2836   1
   0  -9  -6-48.8243 87.8466   3
   0   9   6 47.3965 75.8477   9
   0  -9  -6 127.495 66.3341   8
   0   9   7 256.916 94.1406   1
   0   9   7 287.940 117.577   9
   0  -9  -7 293.992 84.7889   8
   0   9   8 489.300 120.928   1
   0  -9  -8 530.299 119.544   8
   0   9   8 521.254 148.108   9
   0   9   9 4051.02 368.728   9
   0  -9  -9 4248.95 317.441   8
   0   9   9 4690.28 378.599   1
   0   9  10 476.434 141.244   9
   0   9  10 684.619 145.520   1
   0  -9 -10 812.742 154.740   8
   0   9  11 943.091 187.249   9
   0   9  11 1171.80 203.033   1
   0  -9 -11 853.711 161.720   8
   0  -9 -12-28.4146 75.8094   8
   0   9  12 6.23430 79.0604   1
   0   9  12 188.141 105.230   9
   0   9  13 939.763 185.265   9
   0   9  13 857.442 186.748   1
   0  -9 -13 903.544 174.875   8
   0  -9 -14 193.662 87.7459   8
   0   9  14 90.4102 75.6492   9
   0   9  15-59.4580 90.0315   9
   0   9  15 212.448 111.461   1
   0  -9 -15-2.51650 78.1878   8
   0   9  16 171.213 102.855   9
   0  -9 -16 227.858 130.309   8
   0  -9 -17 215.961 114.675   8
   0  10  -6 622.542 173.998  10
   0  10  -5 1598.53 265.081  10
   0 -10   5 1597.69 267.862   3
   0 -10   4 216.421 117.741   3
   0  10  -4 225.372 103.774  10
   0  10  -3-23.2618 70.5277  11
   0 -10   3 226.127 114.887   3
   0  10  -3 105.922 97.4747  10
   0  10  -2 202.729 113.242  11
   0  10  -2 134.908 96.1483  10
   0 -10   2-16.0855 76.4686   3
   0  10  -2 45.2311 78.9789   9
   0 -10   1-102.805 93.8464   3
   0  10  -1 120.104 121.228   9
   0  10  -1 127.374 76.2129  11
   0  10  -1 61.7652 59.1315  10
   0 -10   0 246.888 108.024   3
   0  10   0 351.158 130.705  11
   0  10   0 154.667 112.175   9
   0  10   1 1239.01 235.563   9
   0 -10  -1 945.348 188.149   3
   0  10   2 3380.57 367.863   9
   0 -10  -2 3412.84 341.543   3
   0  10   3 1492.52 255.331   9
   0 -10  -3 1334.55 210.875   3
   0 -10  -4 87.5107 88.2088   3
   0  10   4 354.915 133.057   9
   0  10   5 3032.36 344.561   9
   0 -10  -5 2853.85 299.751   3
   0 -10  -6-108.254 101.986   3
   0  10   6 356.898 135.841   9
   0  10   7 588.806 186.503   9
   0 -10  -7 366.245 110.080   3
   0 -10  -8 829.069 138.546   8
   0  10   8 963.527 184.490   1
   0 -10  -8 1092.56 201.845   3
   0  10   8 876.774 200.804   9
   0 -10  -9 4562.91 331.590   8
   0  10   9 4988.84 416.325   1
   0  10   9 4669.43 428.663   9
   0  10  10 3004.82 330.862   1
   0  10  10 2660.86 330.833   9
   0 -10 -10 2467.08 262.854   8
   0  10  11 2067.71 283.368   1
   0  10  11 1615.28 257.994   9
   0 -10 -11 1567.86 216.287   8
   0  10  12 1285.15 237.631   1
   0  10  12 1047.35 214.634   9
   0 -10 -12 1138.29 188.191   8
   0 -10 -13 3022.40 313.507   8
   0  10  13 2735.91 339.223   1
   0  10  13 2415.89 312.943   9
   0 -10 -14 479.205 146.036   8
   0  10  14 438.073 163.235   9
   0  10  15 239.099 128.955   9
   0 -10 -15-46.0587 84.8349   8
   0 -10 -16 414.158 126.880   8
   0  10  16 359.656 137.123   9
   0 -11   2 186.736 110.110   3
   0 -11   1 223.124 121.653   3
   0 -11   0 362.401 132.529   3
   0 -11  -1-4.72008 102.159   3
   0 -11  -2 371.148 142.769   3
   0 -11  -3 275.119 109.610   3
   0 -11  -4 371.212 120.736   3
   0 -11  -5 465.779 145.759   3
   0 -11  -6 2344.84 302.608   3
   0 -11  -7-16.6946 71.3557   3
   0 -11  -8 3618.85 366.959   3
   0  11   9 55.5001 71.0965   1
   0 -11  -9-60.1342 83.9917   3
   0  11  10 226.634 89.6250   1
   0 -11 -10 131.959 88.6812   3
   1 -10 -14 121.894 94.0858   8
   1 -10 -13 683.106 172.467   8
  -1  10  12 69.4439 89.6939   9
   1 -10 -12-64.8273 91.0852   8
  -1  10  11 892.566 198.374   1
   1 -10 -11 874.191 167.588   8
  -1  10  11 604.834 168.033   9
   1 -10 -10 232.279 97.2940   8
  -1  10  10 174.593 91.3355   9
  -1  10   9 7288.25 535.766   1
   1 -10  -9 6348.25 436.883   8
  -1  10   9 5414.46 486.805   9
   1 -10  -8 993.900 204.912   3
  -1  10   8 1029.73 224.764   9
  -1  10   8 1192.48 228.231   1
   1 -10  -7 2362.92 301.748   3
  -1  10   7 2223.97 305.542   9
  -1  10   6 86.2842 127.858   9
   1 -10  -6 223.399 94.6538   6
   1 -10  -6-121.424 101.903   3
   1 -10  -5 302.179 92.0187   6
  -1  10   5 284.088 110.210   9
   1 -10  -5 136.074 91.0782   3
   1 -10  -4-0.37091 97.0787   3
  -1  10   4-126.807 110.295   9
  -1  10   3 332.902 145.735   9
   1 -10  -3 127.544 78.8303   3
   1 -10  -2 252.673 114.640   3
  -1  10   2 135.045 105.964   9
  -1  10   2 235.891 85.9431  10
  -1  10   1 696.092 128.143  10
   1 -10  -1 538.463 151.274   3
  -1  10   1 837.985 187.482   9
   1 -10   0-54.4642 65.4484   3
  -1  10   0 145.164 88.4407  10
  -1  10   0 209.231 133.767   9
  -1  10  -1 1104.46 221.685  11
  -1  10  -1 753.637 202.785   9
   1 -10   1 769.758 184.571   3
  -1  10  -1 745.701 160.504  10
   1 -10   2 1870.52 282.045   3
  -1  10  -2 2407.10 329.204  11
  -1  10  -2 1865.04 254.642  10
  -1  10  -2 1792.79 288.792   9
  -1  10  -3 453.116 143.497  11
  -1  10  -3 612.636 175.445   9
   1 -10   3 720.555 194.517   3
  -1  10  -3 478.001 132.766  10
  -1  10  -4 372.457 110.677  10
  -1  10  -4 20.7628 102.978   9
  -1  10  -5 175.143 79.7902  10
  -1   9  16 266.667 128.299   9
   1  -9 -15 80.6593 75.1283   8
  -1   9  15 122.904 119.296   9
  -1   9  14 1411.32 232.995   9
   1  -9 -14 1450.43 239.120   8
  -1   9  13-23.4352 88.6850   9
  -1   9  13 63.3155 97.5608   1
   1  -9 -13-151.304 114.765   8
  -1   9  12 162.673 130.407   1
  -1   9  12 28.9232 71.3498   9
   1  -9 -12 284.738 114.489   8
  -1   9  11-4.17106 77.2024   1
  -1   9  11-59.1542 93.7274   9
   1  -9 -11 77.4716 92.5957   8
   1  -9 -10 2036.45 253.654   8
  -1   9  10 1455.57 254.748   9
  -1   9  10 2110.91 275.591   1
  -1   9   9 125.983 117.556   1
   1  -9  -9-28.3491 61.9771   8
  -1   9   9 22.4033 86.9919   9
   1  -9  -8 164.932 79.1893   8
  -1   9   8 316.411 107.137   9
  -1   9   8 308.720 130.287   1
   1  -9  -7 42.2659 73.2402   8
  -1   9   7-63.6840 91.6153   9
  -1   9   7-1.67784 81.4218   1
   1  -9  -7 45.8014 75.5483   3
  -1   9   6 6955.52 500.108   9
   1  -9  -6 7193.59 486.201   3
  -1   9   6 8152.22 521.009   1
  -1   9   6 6836.72 381.263   5
  -1   9   5 335.669 90.7437   5
  -1   9   5 454.156 129.084   9
   1  -9  -5 276.145 102.838   3
  -1   9   4 203.083 61.4393   5
  -1   9   4 197.485 62.1238  10
   1  -9  -4 167.555 84.2281   3
  -1   9   4 252.349 108.559   9
   1  -9  -4 239.218 79.6139   6
  -1   9   3 130.814 59.6405  10
   1  -9  -3 143.928 64.4980   6
  -1   9   3 174.428 116.256   9
   1  -9  -3-45.8507 93.1144   3
  -1   9   3 163.555 61.8468   5
  -1   9   2 17.2543 47.1845  10
  -1   9   2 42.7073 80.4021   9
  -1   9   2 99.3022 84.5511   8
   1  -9  -2 68.6431 64.7763  10
   1  -9  -2 127.729 88.8118   3
  -1   9   1 236.582 79.3729   8
   1  -9  -1 213.109 108.354   3
   1  -9  -1 278.751 103.859  10
  -1   9   1 207.306 104.876   9
  -1   9   1 191.844 77.6267  10
   1  -9   0 3.69087 69.5486   3
  -1   9   0 25.5480 77.7764   9
  -1   9   0 5.82920 83.8588  11
  -1   9   0-28.3100 68.0658  10
   1  -9   1 206.272 108.116   3
  -1   9  -1 97.6989 76.6691   9
  -1   9  -1 128.932 68.8942  11
  -1   9  -1 119.793 88.5508  10
   1  -9   2 812.454 169.140   3
  -1   9  -2 582.176 147.238  10
  -1   9  -2 849.920 184.019  11
  -1   9  -2 596.309 154.521   9
  -1   9  -3-2.62722 83.8518   9
  -1   9  -3 195.278 101.855  11
  -1   9  -3 10.3014 66.3714  10
   1  -9   3 147.143 88.3591   3
  -1   9  -4 307.023 129.403  11
   1  -9   4 393.621 135.097   3
  -1   9  -4 151.531 96.8437  10
  -1   9  -4 44.6418 72.2348   9
  -1   9  -5-24.8732 88.3438  10
  -1   9  -5-47.4875 88.2567   9
   1  -9   5-6.36315 64.8495   3
  -1   9  -5-1.49168 91.4771  11
   1  -9   6 85.4365 73.0136   3
  -1   9  -6 76.6167 108.367  10
  -1   9  -6 183.201 147.342  11
  -1   9  -6 123.219 101.546   9
  -1   9  -7 436.743 162.789  10
  -1   8  17-1.16875 65.4180   9
   1  -8 -16 366.709 139.380   8
  -1   8  16 242.935 112.264   9
   1  -8 -15 36.8066 70.6442   8
  -1   8  15 0.20891 85.7206   1
  -1   8  15 176.018 95.6851   9
  -1   8  14 795.990 180.612   9
  -1   8  14 1306.22 225.602   1
   1  -8 -14 1161.01 210.543   8
  -1   8  13 903.337 194.539   1
   1  -8 -13 719.831 164.822   8
  -1   8  13 647.249 159.632   9
   1  -8 -12 61.5925 94.2034   8
  -1   8  12-3.44622 63.3947   9
  -1   8  12 188.745 81.0957   1
  -1   8  11 376.302 136.470   1
  -1   8  11 178.662 109.908   9
   1  -8 -11 81.1470 69.3916   8
  -1   8  10 1108.35 199.053   1
  -1   8  10 837.007 170.425   9
   1  -8 -10 1183.30 189.297   8
  -1   8   9 86.6415 65.8605   1
   1  -8  -9 82.2351 63.8818   8
  -1   8   9 82.2878 100.775   9
   1  -8  -9 18.3943 46.0089   7
   1  -8  -8 179.553 44.8929   7
   1  -8  -8 333.311 105.449   8
  -1   8   8 202.926 94.6331   1
  -1   8   8 249.778 92.9264   9
  -1   8   7 1223.77 160.289   5
   1  -8  -7 1217.56 173.001   8
  -1   8   7 1548.79 220.272   1
  -1   8   7 1236.14 214.297   9
  -1   8   6 2745.41 289.448   1
   1  -8  -6 2192.25 228.490   8
  -1   8   6 2285.60 213.663   5
  -1   8   6 2106.95 268.425   9
  -1   8   5-16.8278 26.7456  10
  -1   8   5 50.1557 93.2148   9
  -1   8   5-31.4219 47.4226   5
  -1   8   5-19.7076 58.7626   1
   1  -8  -4 257.718 98.0341   3
  -1   8   4 433.584 73.8265  10
  -1   8   4 287.135 118.752   9
  -1   8   4 370.232 83.0830   5
  -1   8   3 57.4128 50.9907   8
  -1   8   3 48.1263 90.9125   9
   1  -8  -3 45.3791 42.3976   6
  -1   8   3 147.186 57.6689  10
   1  -8  -3 160.647 75.1762   3
  -1   8   3 170.949 57.4254   5
  -1   8   2 1180.79 154.878   8
   1  -8  -2 1140.38 187.705   3
   1  -8  -2 1207.79 158.380  10
  -1   8   2 972.564 188.451   9
   1  -8  -2 1204.44 142.212   6
  -1   8   2 1160.46 145.494  10
  -1   8   1 2198.07 195.868   8
  -1   8   1 2505.09 285.637   9
   1  -8  -1 2633.79 235.558  10
  -1   8   1 2504.29 217.723  10
   1  -8  -1 2657.72 274.233   3
  -1   8   0 4956.79 323.718  10
  -1   8   0 4792.24 392.025  11
  -1   8   0 4767.60 290.338   8
   1  -8   0 5195.78 394.045   3
  -1   8   0 4851.51 400.724   9
   1  -8   0 4808.01 333.036  10
   1  -8   1 13983.8 564.380   4
  -1   8  -1 13747.1 496.944   8
  -1   8  -1 13124.0 646.782   9
  -1   8  -1 13916.7 659.700  11
  -1   8  -1 13359.6 571.560  10
   1  -8   1 14085.1 652.017   3
   1  -8   1 13854.5 591.829  10
   1  -8   2 278.886 86.0970   4
   1  -8   2 301.737 109.303   3
  -1   8  -2 552.148 152.214  11
  -1   8  -2 474.313 120.674  10
  -1   8  -2 446.354 94.5286   8
  -1   8  -2 491.089 149.660   9
   1  -8   2 506.705 134.681  10
   1  -8   3 215.864 74.0218   4
  -1   8  -3 395.799 120.032  11
  -1   8  -3 178.230 107.470  10
   1  -8   3 298.039 119.895   3
  -1   8  -3 297.015 128.602   9
  -1   8  -3 177.319 74.2813   8
   1  -8   4 2598.56 297.105   3
  -1   8  -4 2112.19 268.254   9
  -1   8  -4 2953.65 328.487  11
  -1   8  -4 2524.51 228.010   8
  -1   8  -4 2282.14 269.990  10
  -1   8  -5 64.3262 51.6073   8
  -1   8  -5 125.983 88.6439   9
  -1   8  -5 117.795 67.8005  10
   1  -8   5 124.924 85.8472   3
  -1   8  -5 221.839 108.757  11
   1  -8   6 349.944 126.416   3
  -1   8  -6 369.663 151.735  10
  -1   8  -6 790.364 188.944  11
  -1   8  -6 570.219 139.511   9
  -1   8  -7 247.531 108.364   9
  -1   8  -7 219.140 102.838  11
   1  -8   7 94.6750 87.4942   3
  -1   8  -7 280.664 145.396  10
  -1   8  -8 251.952 133.603  11
   1  -8   8 85.3435 100.725   3
  -1   8  -8 22.7626 89.1658  10
  -1   8  -9 681.333 198.446  10
  -1   8  -9 843.683 205.228  11
   1  -8   9 755.764 195.788   3
   1  -7 -17-26.4313 88.3274   8
  -1   7  17 59.7844 69.8593   9
   1  -7 -16 1064.17 206.190   8
  -1   7  16 920.099 161.857   9
  -1   7  16 1350.50 240.812   1
   1  -7 -15 410.011 151.236   8
  -1   7  15 277.242 125.095   1
  -1   7  14 125.457 96.1252   1
   1  -7 -14-54.7830 96.3725   8
  -1   7  13 83.8633 96.7961   1
   1  -7 -13-88.6977 101.159   8
   1  -7 -13 37.0301 55.8953   7
  -1   7  12 352.527 124.852   1
   1  -7 -12 142.238 74.5227   7
   1  -7 -12 228.912 98.5557   8
  -1   7  11 2700.77 290.426   1
   1  -7 -11 2533.05 271.080   8
   1  -7 -11 2229.30 209.135   7
  -1   7  10 5075.76 389.206   1
   1  -7 -10 4286.56 265.320   7
   1  -7 -10 4996.37 365.583   8
  -1   7   9 253.464 109.370   1
   1  -7  -9 152.021 68.0082   8
   1  -7  -9 162.659 67.6097   7
   1  -7  -8-7.52832 41.3617   7
  -1   7   8-19.8595 69.5605   1
   1  -7  -8-22.9116 67.4869   8
  -1   7   7 4221.65 331.000   1
  -1   7   7 4520.17 301.361   5
   1  -7  -7 4424.23 350.601  11
   1  -7  -7 3388.31 172.347   7
   1  -7  -7 4158.15 297.297   8
   1  -7  -6-31.0288 52.1719   8
  -1   7   6-27.6036 84.5522   1
   1  -7  -6 45.0938 24.7067   7
  -1   7   6 18.5638 41.7623   5
   1  -7  -6-11.6802 57.0829  11
  -1   7   5 9248.58 480.697   1
  -1   7   5 8508.48 255.229  10
  -1   7   5 8656.37 389.407   5
   1  -7  -5 8429.21 400.019   8
   1  -7  -5 9679.36 500.823  11
   1  -7  -5 9200.29 485.094   1
   1  -7  -4 780.279 152.611  11
  -1   7   4 740.044 118.795   5
   1  -7  -4 708.810 122.771   8
   1  -7  -4 743.729 149.253   1
  -1   7   4 734.944 152.157   1
  -1   7   4 859.925 95.2728  10
   1  -7  -4 728.052 134.921   3
   1  -7  -3 1179.70 192.015  11
   1  -7  -3 994.241 165.784   1
  -1   7   3 1239.86 145.457   8
   1  -7  -3 1067.12 165.094   3
  -1   7   3 1156.69 191.124   9
  -1   7   3 1203.53 125.741  10
  -1   7   2 5674.29 288.940  10
   1  -7  -2 5816.64 383.686   1
  -1   7   2 5279.84 307.952   8
   1  -7  -2 5029.42 272.240   6
   1  -7  -2 5354.61 293.429  10
  -1   7   2 5083.39 380.217   9
   1  -7  -2 5313.54 360.590   3
   1  -7  -2 6216.23 412.993  11
   1  -7  -1 61.0487 88.3713   3
   1  -7  -1-81.2130 71.6020  11
  -1   7   1 13.7016 72.1842   9
   1  -7  -1 83.4521 54.7257   6
  -1   7   1 65.2270 57.5752  10
  -1   7   1 63.3601 80.3539  11
  -1   7   1-25.6098 48.6602   8
   1  -7  -1 5.92215 56.5101   1
   1  -7  -1 38.6342 46.6995  10
  -1   7   0 2412.75 217.053  10
  -1   7   0 2186.72 189.019   8
  -1   7   0 2453.43 260.609   9
   1  -7   0 2492.08 274.017  11
   1  -7   0 2725.47 275.910   1
  -1   7   0 2396.18 251.389  11
   1  -7   0 2315.59 221.417  10
   1  -7   0 2518.15 259.252   3
  -1   7  -1 32.2492 68.0545  11
   1  -7   1 185.375 78.8485   4
  -1   7  -1 59.8600 59.4070  10
   1  -7   1 75.5859 84.8705  11
   1  -7   1 153.080 86.4958   3
   1  -7   1 31.3886 52.6340  10
  -1   7  -1 141.210 65.2659   8
  -1   7  -1 140.304 98.4185   9
   1  -7   2 3305.32 282.284  10
  -1   7  -2 3340.51 282.197  10
  -1   7  -2 3447.45 314.065  11
  -1   7  -2 3151.04 236.701   8
   1  -7   2 3120.51 297.522   3
   1  -7   2 3466.38 266.684   4
  -1   7  -2 3417.15 310.218   9
   1  -7   3 292.994 102.753   3
  -1   7  -3 397.338 116.305  10
  -1   7  -3 375.533 107.239   9
   1  -7   3 329.694 107.790  10
  -1   7  -3 276.060 108.173  11
  -1   7  -3 284.777 75.5093   8
   1  -7   3 255.974 84.8960   4
  -1   7  -4 131.615 71.8305  10
  -1   7  -4-53.7262 86.3878  11
   1  -7   4-14.3689 64.1322   3
  -1   7  -4 44.4439 18.4697   7
  -1   7  -4 40.8443 47.4007   8
   1  -7   4-12.7810 57.0125   4
  -1   7  -4 83.3661 77.8921   9
  -1   7  -5-16.0972 77.8842   9
  -1   7  -5 25.6524 43.3165   8
  -1   7  -5 123.841 92.2419  10
  -1   7  -5 28.2079 27.8141   7
  -1   7  -5-39.2382 97.8197  11
   1  -7   5 34.6639 70.4990   3
  -1   7  -6 100.428 91.2162  10
   1  -7   6 73.2362 66.9197   3
  -1   7  -6 193.006 77.6863  11
  -1   7  -6 227.587 110.273   9
  -1   7  -6 134.514 45.3760   7
  -1   7  -7-0.13886 91.2581   9
  -1   7  -7 23.9853 91.5329  10
   1  -7   7 76.6654 86.1120   3
  -1   7  -7-118.362 98.2400  11
   1  -7   8 52.9842 68.2414   3
  -1   7  -8 56.5286 105.234  10
  -1   7  -8 38.2201 91.9410  11
  -1   7  -9 517.336 171.918  11
   1  -7   9 341.280 126.882   3
  -1   7  -9 391.907 161.813  10
  -1   7 -10 907.158 212.568  11
  -1   7 -10 952.069 209.175  10
   1  -7  10 664.092 175.084   3
   1  -7  11 83.1107 93.2741   3
  -1   7 -11-28.4945 103.279  11
   1  -6 -17 1236.93 241.263   8
  -1   6  17 842.909 210.689   1
   1  -6 -16 1120.33 213.630   8
  -1   6  16 539.046 165.896   1
   1  -6 -15 961.510 183.976   8
  -1   6  15 709.077 175.667   1
   1  -6 -14 48.9557 84.7429   8
  -1   6  14 133.905 103.492   1
   1  -6 -14 54.4164 43.2433   2
  -1   6  13 229.228 100.715   1
   1  -6 -13 200.342 85.3314   2
   1  -6 -13 335.439 112.508   8
   1  -6 -13 209.482 96.8246   7
   1  -6 -12 160.184 77.2316   7
   1  -6 -12 151.895 73.6196   2
   1  -6 -12 220.933 100.031   8
  -1   6  12 342.530 123.449   1
   1  -6 -11 385.745 108.609   2
   1  -6 -11 219.343 71.2146   7
  -1   6  11 93.5879 56.9623   1
   1  -6 -11 281.754 104.345   8
   1  -6 -10 535.300 123.338   2
  -1   6  10 613.926 136.125   1
   1  -6 -10 602.797 121.335   8
   1  -6 -10 414.456 89.1123   7
   1  -6  -9 1405.41 147.034   7
   1  -6  -9 1526.15 195.023   8
  -1   6   9 1408.92 198.576   1
   1  -6  -9 1291.49 178.486   2
  -1   6   8 16760.3 634.674   1
   1  -6  -8 15769.9 604.506   2
   1  -6  -8 18100.7 655.965  11
  -1   6   8 16695.2 589.767   5
   1  -6  -8 18139.8 684.396   1
   1  -6  -8 16633.9 595.154   8
   1  -6  -8 15552.3 454.840   7
   1  -6  -7 152.300 90.1705   8
  -1   6   7 196.775 92.7000   1
  -1   6   7 309.260 95.1383   5
   1  -6  -7 164.827 76.5124   1
   1  -6  -7 254.677 105.920  11
   1  -6  -7 246.085 64.0929   7
  -1   6   6 100962. 1331.18   5
   1  -6  -6 98976.8 1370.39   8
  -1   6   6 105253. 1518.43   1
   1  -6  -6 95411.4 889.712   7
   1  -6  -6 107551. 1539.97  11
   1  -6  -6 106077. 1558.08   1
   1  -6  -5 6508.25 338.525   8
   1  -6  -5 7189.25 400.897   1
   1  -6  -5 7197.90 396.948  11
   1  -6  -5 4981.16 166.658   7
  -1   6   5 6864.51 395.101   1
  -1   6   5 6445.20 196.025  10
  -1   6   5 6689.08 334.668   5
  -1   6   4 57.1005 29.2061  10
   1  -6  -4 2.58835 47.8754   1
  -1   6   4-65.9941 74.4581   1
   1  -6  -4-65.0977 79.3226  11
   1  -6  -4 15.4545 58.1510   8
   1  -6  -3 2051.12 186.981   8
  -1   6   3 2116.55 218.373   1
  -1   6   3 2251.07 156.477  10
   1  -6  -3 2205.61 224.436  11
   1  -6  -3 2094.63 222.107   1
   1  -6  -3 2015.38 211.534   3
  -1   6   2 1008.53 114.795  10
   1  -6  -2 859.546 137.601   3
   1  -6  -2 962.040 123.839  10
   1  -6  -2 1090.83 154.061   1
   1  -6  -2 981.234 158.808  11
  -1   6   1 1083.24 161.335  11
   1  -6  -1 1196.37 166.989   3
   1  -6  -1 1384.49 183.515  11
   1  -6  -1 1072.29 123.617   6
   1  -6  -1 1090.27 140.900  10
   1  -6  -1 1121.76 159.579   1
  -1   6   1 1200.47 135.911  10
   1  -6   0 42.8328 70.5289   3
  -1   6   0-23.4279 53.8263  11
  -1   6   0-7.78447 49.1899  10
   1  -6   0 76.0972 58.3605  11
   1  -6   0 63.8060 57.2636  10
   1  -6   0 14.5807 47.3348   1
   1  -6   0 8.90540 44.3238   6
  -1   6   0-1.58460 64.9984   9
   1  -6   1 21.4771 55.8208   3
  -1   6  -1 43.4717 72.3255  11
   1  -6   1 6.02093 55.1384  10
   1  -6   1 12.9442 50.0224  11
   1  -6   1-36.6183 59.7710   1
  -1   6  -1-5.48891 46.4448  10
  -1   6  -1 46.5220 59.4820   9
   1  -6   2 1882.13 206.185  10
   1  -6   2 1718.56 219.940  11
  -1   6  -2 1780.16 195.861  10
   1  -6   2 1843.06 216.709   1
   1  -6   2 1803.77 206.522   3
  -1   6  -2 1861.15 218.660  11
   1  -6   2 1594.09 170.138   4
  -1   6  -2 1545.08 195.879   9
  -1   6  -3 898.711 150.518  10
  -1   6  -3 755.736 139.843   9
   1  -6   3 831.904 123.271   4
   1  -6   3 1084.42 171.011  10
   1  -6   3 923.425 162.803   3
  -1   6  -3 761.349 60.7394   7
   1  -6   3 829.906 159.810   1
  -1   6  -3 876.495 154.036  11
   1  -6   3 918.622 165.459   2
  -1   6  -4 1563.19 204.355  10
  -1   6  -4 1674.36 212.230   3
  -1   6  -4 1501.75 106.825   7
   1  -6   4 1331.70 197.082   3
   1  -6   4 1536.26 173.642   4
  -1   6  -4 1616.95 208.080  11
   1  -6   4 1732.57 217.339   2
  -1   6  -4 1388.30 187.642   9
   1  -6   4 1661.49 211.448  10
   1  -6   4 1556.92 212.273   1
  -1   6  -5 3919.15 332.902  11
   1  -6   5 3861.02 322.874   3
  -1   6  -5 3738.46 193.622   7
   1  -6   5 3564.36 301.028   2
  -1   6  -5 3711.08 324.365  10
   1  -6   5 3846.07 323.728  10
  -1   6  -5 4070.69 308.804   9
   1  -6   6 3938.54 330.850   3
   1  -6   6 3829.98 314.132   2
  -1   6  -6 3770.29 306.060   9
  -1   6  -6 4400.74 360.726  11
  -1   6  -6 4324.16 357.947  10
  -1   6  -6 4212.42 233.604   7
  -1   6  -7 1630.46 173.832   6
  -1   6  -7 1583.97 160.818   7
   1  -6   7 1663.52 231.301   3
  -1   6  -7 1505.13 221.135  11
  -1   6  -7 1944.37 256.063  10
  -1   6  -7 1745.88 206.371   9
   1  -6   7 1364.61 187.242   2
  -1   6  -8 2568.55 300.626  10
   1  -6   8 2552.96 284.393   3
  -1   6  -8 2460.92 296.063  11
  -1   6  -8 2262.96 200.904   7
   1  -6   8 2051.89 231.133   2
  -1   6  -8 2290.82 210.656   6
  -1   6  -8 2367.82 239.016   9
   1  -6   9 482.492 147.520   3
  -1   6  -9 262.609 135.339  11
  -1   6  -9 298.974 84.0289   6
  -1   6  -9 604.864 158.635  10
   1  -6   9 226.569 78.7656   2
  -1   6  -9 470.841 108.165   7
  -1   6 -10 15.6963 37.7060   7
  -1   6 -10 15.9177 77.3898  11
  -1   6 -10 39.6121 52.1837   6
  -1   6 -10-116.920 93.1190  10
  -1   6 -11-87.9876 105.411  11
   1  -6  11-56.0767 64.0255   3
  -1   6 -11 119.369 133.973  10
   1  -6  12 513.451 179.016   3
  -1   6 -12 637.061 182.206  11
  -1   6 -12 841.011 206.995  10
  -1   6 -13 534.727 179.859  11
   1  -5 -18 105.405 117.774   8
  -1   5  18 162.292 129.072   1
  -1   5  17-58.2185 86.3070   1
   1  -5 -17-10.5467 96.7840   8
  -1   5  16 175.714 116.784   1
   1  -5 -16 242.396 128.917   8
   1  -5 -15 1364.84 158.398   2
   1  -5 -15 2003.92 274.489   8
  -1   5  15 1929.67 262.254   1
  -1   5  14 1047.97 200.272   1
   1  -5 -14 1071.37 203.038   8
   1  -5 -14 784.512 118.169   2
   1  -5 -13 352.175 117.401   8
  -1   5  13 345.351 138.138   1
   1  -5 -13 246.834 72.3661   2
   1  -5 -13 324.189 107.698   7
   1  -5 -12 23.7830 39.0302   2
   1  -5 -12-30.5363 77.5958   8
   1  -5 -12 32.9862 61.0934   7
  -1   5  12 11.6610 67.5473   1
   1  -5 -11 9188.88 418.984   2
   1  -5 -11 10089.9 503.411   8
  -1   5  11 9497.56 505.394   1
   1  -5 -11 9580.65 446.574   7
   1  -5 -10 2424.55 217.341   7
   1  -5 -10 1997.45 200.750   2
  -1   5  10 1879.37 225.205   1
   1  -5 -10 2132.35 225.830   8
   1  -5 -10 2213.95 250.252   1
   1  -5  -9 10083.1 501.273   1
   1  -5  -9 9032.65 444.875   8
  -1   5   9 8907.35 463.502   1
   1  -5  -9 8954.67 382.224   7
   1  -5  -8-4.61523 62.2421   8
  -1   5   8 42.9521 49.3633   5
   1  -5  -8 89.1013 63.8232   7
  -1   5   8 52.5906 61.1918   1
   1  -5  -8 66.1741 49.0124   1
   1  -5  -7 1337.11 169.549   1
  -1   5   7 1304.76 168.417   1
   1  -5  -7 1350.03 129.480   7
   1  -5  -7 1372.21 166.507   8
  -1   5   7 1587.93 173.099   5
   1  -5  -6 3137.32 245.512  11
   1  -5  -6 3215.93 177.019   7
   1  -5  -6 3124.17 236.617   8
   1  -5  -6 3490.43 265.769   1
  -1   5   6 3590.64 266.101   1
   1  -5  -5 3293.13 231.986   8
  -1   5   5 3653.23 263.416   1
   1  -5  -5 3372.69 160.634   7
   1  -5  -5 3422.48 248.073  11
   1  -5  -5 3415.59 257.197   1
  -1   5   5 3309.31 121.466  10
  -1   5   4 463.330 107.657   1
   1  -5  -4 264.858 40.5269   7
   1  -5  -4 229.315 79.1938   1
   1  -5  -4 259.346 68.5107  11
  -1   5   4 193.280 40.6629  10
   1  -5  -4 204.217 72.4046   8
  -1   5   3 2728.99 157.850  10
   1  -5  -3 2977.78 236.204   1
  -1   5   3 2312.13 179.011   8
  -1   5   3 2571.31 212.947   1
   1  -5  -3 2934.15 228.898  11
   1  -5  -3 2540.67 197.912   8
  -1   5   2 2132.03 151.393  10
  -1   5   2 2161.08 194.683   1
   1  -5  -2 2300.33 206.292   1
   1  -5  -2 1983.92 157.615  10
  -1   5   2 2027.40 166.544   8
   1  -5  -2 2311.89 200.294  11
   1  -5  -2 1901.80 187.145   3
  -1   5   1 1165.81 124.284  10
  -1   5   1 1232.62 158.299  11
   1  -5  -1 1240.95 156.295   3
  -1   5   1 1120.31 128.534   8
   1  -5  -1 1039.33 121.452  10
   1  -5  -1 1172.63 121.876   6
   1  -5  -1 1337.51 160.704  11
   1  -5  -1 983.934 142.224   1
   1  -5   0 2082.10 157.322   6
  -1   5   0 2104.95 179.433  10
   1  -5   0 2125.31 206.074  11
   1  -5   0 2458.70 214.374   1
  -1   5   0 2145.99 168.701   8
  -1   5   0 2010.04 198.815  11
   1  -5   0 2091.09 180.420  10
   1  -5   0 2196.96 203.547   3
  -1   5  -1 1127.67 137.467  10
  -1   5  -1 918.845 114.971   8
   1  -5   1 1118.95 142.943  10
   1  -5   1 1175.30 152.070   3
   1  -5   1 1148.32 155.994  11
  -1   5  -1 828.127 132.969  11
   1  -5   1 1089.13 156.745   1
  -1   5  -2 1639.25 177.870  11
   1  -5   2 1805.94 189.155   3
   1  -5   2 1778.85 168.789   4
  -1   5  -2 1503.69 151.653   8
   1  -5   2 1631.28 186.349  11
  -1   5  -2 1636.44 76.0284   7
  -1   5  -2 1651.03 178.359  10
  -1   5  -2 1566.92 177.008   9
   1  -5   2 1698.07 178.661  10
   1  -5   2 1512.26 179.689   1
   1  -5   3 106.435 59.8305   4
  -1   5  -3 122.006 60.8232   3
   1  -5   3 85.2202 69.0450   1
   1  -5   3 87.5580 71.0202   3
   1  -5   3 97.8779 60.7605  10
  -1   5  -3 37.4590 63.7200  10
  -1   5  -3 93.3983 59.9517   9
  -1   5  -3 37.7393 23.4982   7
  -1   5  -3 68.8689 60.3292  11
   1  -5   4 3956.56 293.079  10
  -1   5  -4 4169.83 302.084  11
  -1   5  -4 4005.88 302.756   3
   1  -5   4 4166.05 305.018   3
  -1   5  -4 4103.00 190.104   7
  -1   5  -4 3789.06 276.301   9
  -1   5  -4 3858.55 221.038   6
  -1   5  -4 4377.21 314.815  10
   1  -5   4 3961.76 262.408   4
  -1   5  -5 862.478 148.842  11
   1  -5   5 932.576 153.740  10
  -1   5  -5 1011.68 164.026  10
  -1   5  -5 1082.10 150.242   9
  -1   5  -5 1039.75 163.130   3
  -1   5  -5 1048.23 109.880   7
   1  -5   5 972.982 161.221   3
  -1   5  -6 1049.24 127.571   7
  -1   5  -6 1218.71 165.186   9
   1  -5   6 1042.45 174.360  10
  -1   5  -6 1040.87 176.438  10
  -1   5  -6 1115.93 168.946   3
   1  -5   6 810.023 139.338   2
  -1   5  -6 1062.39 171.576  11
   1  -5   6 967.956 163.799   3
  -1   5  -7 1422.83 172.693   9
  -1   5  -7 1475.82 159.757   6
   1  -5   7 1523.97 181.781   2
   1  -5   7 1486.00 204.397   3
  -1   5  -7 1496.07 159.473   7
  -1   5  -7 1770.62 229.004  10
  -1   5  -7 1573.44 215.121  11
  -1   5  -8 1066.00 185.342  11
  -1   5  -8 849.842 173.405  10
  -1   5  -8 1024.14 151.365   9
  -1   5  -8 867.776 134.895   7
  -1   5  -8 1132.92 148.883   6
   1  -5   8 966.698 144.166   2
   1  -5   8 904.318 168.208   3
   1  -5   9 2097.61 207.680   2
  -1   5  -9 2018.47 263.670  11
   1  -5   9 1607.22 232.128   3
  -1   5  -9 1902.85 207.575   7
  -1   5  -9 2161.45 269.272  10
  -1   5  -9 1737.01 192.603   6
  -1   5 -10-6.23525 77.1649  10
   1  -5  10-102.236 50.9186   2
  -1   5 -10-50.0869 65.3263  11
  -1   5 -10 40.9596 45.1322   7
   1  -5  10-2.33021 59.8293   3
  -1   5 -11-64.0242 69.8997   7
   1  -5  11-23.8835 80.5249   3
  -1   5 -11-76.7130 99.3814  11
   1  -5  11 4.13690 40.1981   2
  -1   5 -12 5.47356 81.3754  11
  -1   5 -12-231.084 130.535  10
   1  -5  12 29.6657 85.1703   3
  -1   5 -13 69.7643 108.323  11
  -1   5 -13 3.79588 86.4213  10
   1  -5  13-48.1842 87.7401   3
  -1   5 -14-142.199 114.453  10
  -1   5 -14-68.2577 73.8876  11
  -1   5 -14 99.0376 79.6602   4
   1  -5  14 129.514 100.753   3
  -1   5 -15 49.4554 86.1953   4
  -1   5 -16 129.035 116.482   4
  -1   4  18 97.0188 88.2389   1
   1  -4 -18-158.301 123.886   5
  -1   4  17-91.6921 105.459   1
   1  -4 -17 10.5417 76.6520   5
  -1   4  16 551.451 170.002   1
   1  -4 -16 527.369 142.480   5
  -1   4  15 7642.02 300.406  10
  -1   4  15 6420.78 464.060   1
   1  -4 -15 7654.87 504.987   5
   1  -4 -14 1820.73 241.702   5
   1  -4 -14 1772.50 247.311   8
  -1   4  14 1488.66 225.677   1
  -1   4  14 1745.61 134.084  10
   1  -4 -13 4344.71 366.725   8
   1  -4 -13 4584.37 369.793   5
  -1   4  13 4527.12 361.022   1
   1  -4 -13 4525.15 350.423   7
  -1   4  13 4605.73 201.378  10
   1  -4 -12 3608.11 318.491   8
  -1   4  12 3684.05 320.797   1
  -1   4  12 3840.30 168.397  10
   1  -4 -12 3698.64 304.689   7
   1  -4 -12 3815.05 317.735   5
  -1   4  11 5147.31 172.497  10
   1  -4 -11 5256.64 338.133   7
   1  -4 -11 5268.00 377.300   1
   1  -4 -11 5587.17 378.141   8
  -1   4  11 5073.36 356.540   1
   1  -4 -10 4304.16 328.344   1
  -1   4  10 4082.83 309.358   1
   1  -4 -10 4103.90 309.731   8
   1  -4 -10 4389.67 294.942   7
  -1   4  10 3899.45 130.120  10
  -1   4   9 1318.03 174.988   1
   1  -4  -9 1522.11 195.345   1
   1  -4  -9 1311.72 171.910   8
  -1   4   9 1239.27 58.8704  10
   1  -4  -9 1365.59 156.801   7
  -1   4   8 2198.31 209.024   1
   1  -4  -8 2272.61 212.055   8
   1  -4  -8 2119.99 181.408   7
  -1   4   8 2155.63 199.925   5
   1  -4  -7 7857.16 312.828   7
   1  -4  -7 7735.59 365.321   8
  -1   4   7 7309.55 359.334   5
  -1   4   7 7254.30 371.101   1
   1  -4  -6 22644.5 485.939   7
   1  -4  -6 22197.5 589.309   8
  -1   4   6 23554.6 627.151   1
   1  -4  -5 345.761 85.8423   8
  -1   4   5 500.021 100.169   1
  -1   4   5 354.863 79.7072   5
  -1   4   5 383.424 39.1969  10
   1  -4  -5 399.908 63.1151   7
   1  -4  -4 2385.12 183.011   8
  -1   4   4 2442.51 197.544   1
  -1   4   4 2278.93 107.660  10
  -1   4   4 2441.07 182.021   5
   1  -4  -4 2059.16 184.839  11
  -1   4   4 2711.82 190.668   8
   1  -4  -4 2498.13 129.175   7
  -1   4   3 1396.19 133.317   8
   1  -4  -3 1366.78 137.786   8
  -1   4   3 1564.01 155.292   1
   1  -4  -3 1471.41 145.821  11
   1  -4  -3 1326.08 77.0887   7
  -1   4   3 1241.07 95.7453  10
  -1   4   2 223.790 48.7570  10
  -1   4   2 230.993 61.1800   8
   1  -4  -2 252.497 71.2168   8
   1  -4  -2 247.346 75.0727  11
  -1   4   2 290.708 75.3123   1
   1  -4  -1 531.570 80.6099  10
   1  -4  -1 480.914 87.3965  11
  -1   4   1 416.227 80.3263   8
   1  -4  -1 407.515 89.8214   3
  -1   4   1 460.634 86.2742  11
  -1   4   1 525.788 79.1968  10
   1  -4   0 8495.72 346.921  11
  -1   4   0 7519.58 306.561  10
  -1   4   0 7087.09 293.592   8
   1  -4   0 8382.35 352.746   3
  -1   4   0 8036.89 341.230  11
   1  -4   0 8090.65 285.801   6
   1  -4   0 7579.38 300.767  10
  -1   4  -1 2713.30 206.114  11
  -1   4  -1 2543.22 182.486   8
   1  -4   1 2574.12 190.528  10
   1  -4   1 2915.21 216.222   3
  -1   4  -1 2779.67 194.199  10
   1  -4   1 2706.27 167.923   6
   1  -4   1 2843.24 207.273  11
   1  -4   2 26026.1 591.537   4
   1  -4   2 28553.4 674.239   3
   1  -4   2 27194.9 641.691  11
  -1   4  -2 27327.1 645.211  10
   1  -4   2 26356.3 631.506  10
  -1   4  -2 26679.6 640.061  11
   1  -4   3 176.584 82.2934  10
  -1   4  -3 149.537 68.6724   9
   1  -4   3 140.695 62.2645   4
   1  -4   3 123.386 67.6185   3
  -1   4  -3 185.986 51.8370   6
  -1   4  -3 227.782 88.7378  10
  -1   4  -3 173.463 77.0528  11
  -1   4  -4 35021.2 637.701   6
  -1   4  -4 34643.5 785.641  11
  -1   4  -4 34887.2 818.597  10
   1  -4   4 35963.5 811.773   3
   1  -4   4 35071.0 715.865   4
   1  -4   4 34931.1 803.450  10
  -1   4  -4 33972.9 717.460   9
   1  -4   5 1480.63 181.398  10
  -1   4  -5 1435.19 176.767  11
  -1   4  -5 1451.73 139.310   6
  -1   4  -5 1274.31 147.160   9
   1  -4   5 1463.14 176.241   3
  -1   4  -5 1215.93 168.815  10
  -1   4  -6 1161.25 162.668   3
  -1   4  -6 921.497 160.017  10
  -1   4  -6 979.835 148.552  11
  -1   4  -6 848.431 119.310   9
   1  -4   6 1082.66 159.146  10
   1  -4   6 850.516 141.297   3
  -1   4  -7 44.3455 44.7567   3
  -1   4  -7 168.021 101.779  10
  -1   4  -7 277.777 103.134  11
   1  -4   7 151.074 83.9718  10
   1  -4   7 80.5142 59.6746   3
  -1   4  -7 166.195 68.4479   9
   1  -4   8 553.438 123.791  10
  -1   4  -8 356.152 108.490   3
  -1   4  -8 575.069 114.362   4
  -1   4  -8 434.606 95.0500   7
  -1   4  -8 607.119 104.140   9
  -1   4  -8 479.459 133.158  11
   1  -4   8 478.341 123.871   3
   1  -4   8 433.233 95.2053   2
  -1   4  -8 432.316 122.864  10
  -1   4  -9 60.2595 70.0833  11
  -1   4  -9 236.902 80.3256   7
  -1   4  -9 296.131 91.7356   4
   1  -4   9 108.495 79.6528   3
  -1   4  -9 242.335 123.718  10
   1  -4   9 145.687 55.3781   2
  -1   4 -10 75.2760 55.8518   4
  -1   4 -10 74.7251 75.7316   7
   1  -4  10 67.0785 46.1933   2
   1  -4  10 15.9608 62.1819   3
  -1   4 -10-120.108 102.212  10
  -1   4 -10-24.4565 71.0652  11
  -1   4 -11 5.92541 57.2735   4
  -1   4 -11 69.5621 84.1011  10
   1  -4  11-3.53132 34.9781   2
  -1   4 -11 34.4331 51.1582   7
  -1   4 -11 146.117 111.097  11
   1  -4  11 128.419 95.5913   3
  -1   4 -12 1036.00 206.399  10
  -1   4 -12 898.986 200.415  11
   1  -4  12 869.523 187.179   3
  -1   4 -12 1053.36 176.224   4
   1  -4  12 625.800 97.0016   2
  -1   4 -13 1815.07 233.797   4
  -1   4 -13 2019.97 290.321  10
  -1   4 -13 1570.94 261.546  11
   1  -4  13 1467.46 244.287   3
   1  -4  14 366.909 138.878   3
  -1   4 -14 392.337 158.056  10
  -1   4 -14 381.629 110.762   4
  -1   4 -14 300.343 156.299  11
  -1   4 -15 59.9449 93.6356  10
  -1   4 -15 15.3242 82.3280  11
  -1   4 -15-32.0609 69.6559   4
   1  -4  15-74.7407 80.5924   3
  -1   4 -16 225.314 113.206   4
   1  -3 -18 480.221 139.742   5
  -1   3  18 236.763 115.618   1
   1  -3 -17 135.987 105.057   5
  -1   3  17 271.574 131.103   1
  -1   3  16 3797.72 365.956   1
  -1   3  16 4334.58 280.252  10
   1  -3 -16 4588.16 402.812   5
   1  -3 -15 21.3806 20.0162   2
  -1   3  15 24.0401 65.4369   1
   1  -3 -15 47.4484 85.4101   5
   1  -3 -14 2527.18 280.837   5
  -1   3  14 2065.23 258.444   1
   1  -3 -14 1545.30 120.438   2
  -1   3  13 88.9518 69.2421   1
   1  -3 -13 208.397 102.061   7
  -1   3  13 149.160 51.9119  10
   1  -3 -13 109.377 35.3527   2
   1  -3 -13 228.095 103.490   5
   1  -3 -12 205.320 81.6523   3
  -1   3  12-26.5796 75.9829   1
  -1   3  12 199.139 53.8648  10
   1  -3 -12 33.6776 55.7512   7
   1  -3 -12 55.8286 29.5618   2
   1  -3 -12 144.585 73.7248   5
   1  -3 -11 463.560 76.5103   2
   1  -3 -11 565.424 116.790   7
  -1   3  11 505.930 119.432   1
  -1   3  11 615.175 80.9351  10
   1  -3 -11 642.565 133.535   5
   1  -3 -11 700.775 141.965   1
  -1   3  10 59.3389 55.1374   1
   1  -3 -10 33.1822 57.7986   1
   1  -3 -10 54.9702 56.6468   7
  -1   3  10 0.93500 26.9790  10
   1  -3 -10-20.6824 55.7260   5
  -1   3   9 188.070 42.0660  10
   1  -3  -9 25.6582 58.8409   5
   1  -3  -9 167.028 84.4839   8
  -1   3   9 265.914 90.4096   1
   1  -3  -9 186.691 77.4183   7
  -1   3   8 4643.30 163.254  10
   1  -3  -8 4917.45 280.783   7
   1  -3  -8 5023.64 305.102   8
  -1   3   8 4725.03 290.335   1
   1  -3  -7 3079.10 231.088   8
  -1   3   7 2801.74 220.007   1
  -1   3   7 3086.83 117.506  10
   1  -3  -7 2735.29 196.755   7
   1  -3  -6 13121.6 381.581   7
  -1   3   6 11116.0 204.400  10
  -1   3   6 12844.4 438.308   1
   1  -3  -6 13307.8 440.201   8
  -1   3   5 26192.4 599.276   1
   1  -3  -5 24258.5 469.824   7
   1  -3  -5 24319.8 563.415   8
  -1   3   4 2112.29 172.852   1
   1  -3  -4 1966.17 122.609   7
  -1   3   4 1628.71 84.7598  10
   1  -3  -4 1790.41 149.389   8
   1  -3  -3 3955.67 202.984  11
   1  -3  -3 4053.32 213.823   8
  -1   3   3 3766.96 138.988  10
   1  -3  -3 4143.86 155.575   7
  -1   3   3 4381.83 230.282   1
   1  -3  -2 7824.55 280.314  11
  -1   3   2 7111.23 219.111  10
   1  -3  -2 7858.17 171.897   7
  -1   3   2 7976.61 303.337   1
   1  -3  -2 7262.47 276.593   8
  -1   3   2 7007.13 275.901   8
  -1   3   1 228.106 59.2050  11
  -1   3   1 222.809 52.5724  10
   1  -3  -1 203.102 56.1551  11
  -1   3   1 159.485 52.7918   8
   1  -3  -1 195.477 57.6391   8
  -1   3   1 169.148 57.1194   1
  -1   3   1 211.774 26.3027   7
   1  -3  -1 228.655 53.0433  10
  -1   3   0 1380.22 120.519  10
  -1   3   0 967.676 57.1891   7
  -1   3   0 1563.44 134.440  11
   1  -3   0 1691.64 133.359  11
   1  -3   0 1568.59 118.905   6
   1  -3   0 1470.70 136.359   3
  -1   3   0 1277.97 121.494   8
   1  -3   0 1307.03 118.619  10
   1  -3   1 8610.79 311.654  10
   1  -3   1 9658.05 349.803   3
  -1   3  -1 8695.26 318.106  11
   1  -3   1 8853.32 281.611   6
  -1   3  -1 8203.45 299.686   8
   1  -3   1 9376.13 320.677  11
  -1   3  -1 8742.87 307.023  10
  -1   3  -2 1399.95 116.217   6
  -1   3  -2 1326.47 135.919  10
  -1   3  -2 1665.60 148.002  11
   1  -3   2 1433.20 129.944   4
   1  -3   2 1524.94 149.311   3
   1  -3   2 1399.98 133.089  11
   1  -3   2 1359.10 138.844  10
   1  -3   3-6.23416 52.1915  10
  -1   3  -3-55.3568 59.1379  10
  -1   3  -3-13.8596 45.9443  11
  -1   3  -3 16.0916 35.2419   6
   1  -3   3-11.1893 56.5558   3
   1  -3   3 10.5812 42.1802   4
   1  -3   4 8085.66 351.419   3
  -1   3  -4 7624.40 332.553  11
  -1   3  -4 6896.80 288.057   9
  -1   3  -4 7939.05 360.244  10
   1  -3   4 7656.37 314.861   4
  -1   3  -4 7505.03 286.442   6
  -1   3  -5 1565.74 161.847  11
   1  -3   5 1555.80 169.229   3
  -1   3  -5 1710.03 149.126   9
  -1   3  -5 1698.00 184.559  10
   1  -3   6 3035.23 239.430   3
  -1   3  -6 3384.40 273.325  10
  -1   3  -6 3183.98 197.917   9
  -1   3  -6 2934.08 235.774  11
  -1   3  -7 83.1448 61.5253   4
  -1   3  -7-48.5163 48.9416   9
  -1   3  -7 29.9283 52.1858  11
   1  -3   7 108.301 69.3299   3
  -1   3  -7 8.80304 63.2866  10
  -1   3  -8 162.276 69.8083   3
  -1   3  -8 138.384 57.9054   4
   1  -3   8 137.009 68.6990  10
  -1   3  -8 247.198 62.7463   9
  -1   3  -8 194.770 97.1093  10
   1  -3   8 190.565 77.2005   3
  -1   3  -8 188.643 88.8115  11
  -1   3  -9 1017.58 160.404   3
  -1   3  -9 987.602 150.267   4
   1  -3   9 1156.84 174.389   3
   1  -3   9 915.188 116.258   2
  -1   3  -9 972.069 171.820  10
   1  -3   9 1131.22 175.246  10
   1  -3  10 469.685 122.730   3
  -1   3 -10 577.057 152.907  10
  -1   3 -10 449.774 96.7625   4
   1  -3  10 474.534 81.9577   2
  -1   3 -11-16.6136 63.3985   4
   1  -3  11 61.8162 57.5918   3
   1  -3  11-21.7196 27.9688   2
   1  -3  12 842.948 94.3460   2
  -1   3 -12 1223.72 212.495  10
   1  -3  12 1471.12 226.230   3
  -1   3 -12 1424.05 200.843   4
  -1   3 -13 95.0677 77.4254   4
   1  -3  13 43.4204 30.0507   2
   1  -3  13 150.309 92.9743   3
  -1   3 -13 93.4236 92.3449  10
   1  -3  14 140.706 105.964   3
  -1   3 -14 71.7336 99.6549  10
  -1   3 -14 20.8412 61.6911   4
  -1   3 -15 51.5591 75.9465  10
   1  -3  15-152.514 102.320   3
  -1   3 -15 137.970 101.974   4
  -1   3 -16 137.685 82.4239   4
   1  -3  16 272.985 140.062   3
  -1   3 -16-64.3673 83.5542  10
  -1   3 -17 45.5890 73.8245   4
  -1   3 -17 181.698 109.713  10
   1  -2 -19 158.720 104.312   5
  -1   2  18 16.4727 89.7789   1
   1  -2 -18 137.659 120.020   5
   1  -2 -17 2.07886 97.9843   5
  -1   2  17-5.34427 98.0511   1
  -1   2  16-54.2481 104.242   1
   1  -2 -16 91.1210 84.8737   5
  -1   2  16 87.4376 71.4403  10
  -1   2  15 139.018 116.104   1
   1  -2 -15 331.175 136.771   5
  -1   2  15 158.592 73.4159  10
  -1   2  14 1179.00 150.680  10
  -1   2  14 1329.56 212.283   1
   1  -2 -14 1209.62 202.879   5
  -1   2  13 454.996 121.009   1
   1  -2 -13 256.995 39.7144   2
   1  -2 -13 454.164 134.534   5
   1  -2 -12 1143.52 187.313   5
   1  -2 -12 1291.08 190.972   7
   1  -2 -12 1319.46 183.968   3
  -1   2  12 947.624 170.068   1
   1  -2 -12 853.010 76.3946   2
   1  -2 -11 90.8594 35.9337   2
   1  -2 -11 129.564 73.8752   3
  -1   2  11 93.7885 40.3761  10
   1  -2 -11 160.449 81.0599   5
   1  -2 -11 228.782 89.8254   7
  -1   2  11 126.500 81.6469   1
  -1   2  10 1502.85 135.108  10
  -1   2  10 1524.71 184.149   1
   1  -2 -10 1500.25 186.792   5
   1  -2 -10 1498.94 181.788   7
   1  -2  -9 732.679 124.075   5
   1  -2  -9 940.844 142.432   7
  -1   2   9 857.340 96.7362  10
  -1   2   9 929.348 139.644   1
  -1   2   8 171.448 69.6672   1
   1  -2  -8 186.413 69.0919   5
  -1   2   8 177.370 46.7043  10
   1  -2  -8 270.774 73.7449   7
   1  -2  -7 7597.91 339.292   5
   1  -2  -7 7200.08 317.165   7
  -1   2   7 7462.57 228.577  10
  -1   2   7 7571.05 337.683   1
   1  -2  -6 22399.6 511.388   7
  -1   2   6 22262.2 354.283  10
   1  -2  -6 21713.9 556.359   8
  -1   2   6 22151.4 545.572   1
  -1   2   5 166657. 1403.02   1
   1  -2  -5 168196. 1416.97   8
   1  -2  -5 168203. 1270.00   7
   1  -2  -4 110585. 1083.51   8
   1  -2  -4 110750. 938.258   7
  -1   2   4 114979. 1097.46   1
  -1   2   3 17749.3 419.244   1
  -1   2   3 16983.4 321.237   7
   1  -2  -3 17323.1 411.230   8
   1  -2  -3 17292.5 327.809   7
   1  -2  -2 10343.5 225.268   7
   1  -2  -2 10082.4 263.279  11
  -1   2   2 10279.2 217.667   7
  -1   2   2 11016.3 313.961   1
   1  -2  -2 10766.1 311.490   8
  -1   2   1 161.446 53.5287   1
   1  -2  -1 125.102 29.6659   7
   1  -2  -1 154.186 46.8748  11
   1  -2  -1 132.977 52.2385   8
  -1   2   1 121.506 44.2566  10
  -1   2   1 162.107 32.5721   7
   1  -2   0 4602.15 186.293   6
  -1   2   0 4428.65 185.733  11
   1  -2   0 4921.29 185.693  11
   1  -2   0 4832.18 213.965   3
  -1   2   0 4212.85 187.582  10
  -1   2   0 4557.39 122.015   7
   1  -2   0 3850.16 177.174  10
   1  -2   1 7612.25 258.700  10
   1  -2   1 9345.51 263.808  11
   1  -2   1 8999.01 295.692   3
   1  -2   1 8268.76 252.898   6
  -1   2  -1 8793.42 259.139  11
  -1   2  -1 7911.52 270.277  10
   1  -2   2 18706.3 406.843   4
   1  -2   2 20274.6 449.853   3
  -1   2  -2 17196.8 373.117   6
  -1   2  -2 18238.4 391.573  11
  -1   2  -2 16916.8 413.202  10
  -1   2  -3 175.654 62.1032  10
  -1   2  -3 151.782 55.2636  11
  -1   2  -3 164.331 51.1861   6
   1  -2   3 140.582 59.3880   3
   1  -2   3 182.706 60.4014   4
  -1   2  -4 90.1921 41.3464  11
   1  -2   4 152.863 66.2290   3
  -1   2  -4 146.934 70.7307  10
  -1   2  -5 4060.47 181.885   9
   1  -2   5 4177.85 240.448   3
  -1   2  -5 4013.72 250.845  10
  -1   2  -6 2835.15 227.390  10
  -1   2  -6 2875.46 155.791   9
   1  -2   6 3094.82 219.210   3
  -1   2  -7 55.2982 33.3429   9
   1  -2   7 58.2424 63.6691   3
  -1   2  -7 134.544 79.8056  10
  -1   2  -8 144.597 78.9266   4
  -1   2  -8 206.574 88.8368  10
   1  -2   8 213.711 94.2913   3
  -1   2  -9 18298.6 592.604   4
   1  -2   9 18857.8 627.922   3
  -1   2  -9 20643.8 656.974   3
  -1   2  -9 19214.2 673.161  10
   1  -2   9 20061.1 665.463  10
   1  -2  10 610.993 77.8018   2
  -1   2 -10 722.567 150.594  10
   1  -2  10 866.471 153.432   3
  -1   2 -10 786.404 139.917   4
   1  -2  10 740.520 147.113  10
  -1   2 -10 900.966 150.660   3
   1  -2  11 597.543 69.2225   2
  -1   2 -11 1283.50 198.079  10
   1  -2  11 948.423 162.210  10
   1  -2  11 849.223 160.968   3
  -1   2 -11 1071.31 166.965   4
  -1   2 -11 1108.00 170.915   3
   1  -2  12 1364.87 209.581   3
  -1   2 -12 1790.03 236.171  10
  -1   2 -12 1707.70 212.735   4
   1  -2  12 695.718 63.5108   2
   1  -2  13 29.2413 61.9808   3
  -1   2 -13-26.3084 76.4450  10
  -1   2 -14 14.2906 75.6359   4
  -1   2 -14 11.9370 68.7218  10
   1  -2  14-9.88467 77.0583   3
   1  -2  15-34.6954 68.5363   3
  -1   2 -15 52.8516 66.0802   4
  -1   2 -15 123.405 99.0999  10
   1  -2  16 221.154 127.341   3
  -1   2 -16 226.490 101.453   4
  -1   2 -16 221.840 122.958  10
  -1   2 -17 114.824 109.953  10
  -1   2 -17 117.969 110.109   4
   1  -2  17 54.0655 84.5481   3
  -1   2 -18 325.496 154.446  10
  -1   2 -18 79.7923 97.3291   4
   1  -1 -19 644.805 194.175   5
   1  -1 -18 73.0429 87.4341   5
  -1   1  18 252.124 118.313   1
   1  -1 -17 206.761 117.069   5
  -1   1  17-23.5462 83.9977   1
  -1   1  16 51.5763 86.4333   1
   1  -1 -16 106.474 85.5863   5
  -1   1  15 435.639 136.812   1
  -1   1  15 367.743 99.6351  10
   1  -1 -15 508.564 145.561   5
  -1   1  14 58.8141 50.2558  10
   1  -1 -14-11.4857 71.1617   5
  -1   1  14 77.2434 80.4470   1
   1  -1 -13 156.976 107.450   5
  -1   1  13 182.611 114.306   1
  -1   1  13 93.7081 64.8910  10
  -1   1  12 18560.0 576.897  10
   1  -1 -12 19347.8 675.965   3
   1  -1 -12 18692.0 688.934   7
   1  -1 -12 18252.3 667.918   5
  -1   1  12 17363.4 658.313   1
   1  -1 -11 100.704 83.1309   5
  -1   1  11 77.7459 85.5477   1
   1  -1 -11-67.8258 60.3342   3
   1  -1 -11 13.4795 12.8659   2
   1  -1 -11 49.4273 57.5024   7
  -1   1  10 5772.16 348.301   1
  -1   1  10 5793.15 297.617  10
   1  -1 -10 6184.06 354.818   5
   1  -1 -10 6068.16 362.020   7
  -1   1   9 2201.77 208.607   1
   1  -1  -9 2343.48 213.981   5
   1  -1  -9 2262.39 211.701   7
  -1   1   9 2076.15 169.541  10
  -1   1   8 10720.1 349.797  10
   1  -1  -8 10970.7 423.507   7
   1  -1  -8 10064.3 409.918   5
  -1   1   8 9203.82 397.926   1
  -1   1   7 6814.81 258.543  10
   1  -1  -7 7124.02 323.163   5
   1  -1  -7 7335.53 322.760   7
  -1   1   7 6744.69 315.489   1
  -1   1   6 4129.28 183.582  10
   1  -1  -6 4075.31 234.527   5
  -1   1   6 4535.79 240.777   1
   1  -1  -6 4320.88 233.380   7
  -1   1   5-42.7580 49.6154   1
  -1   1   5 12.6699 37.7380  10
   1  -1  -5 39.7228 54.0140   7
   1  -1  -5-8.92135 62.9965   5
  -1   1   4 82.2958 53.7277   1
   1  -1  -4 41.4931 56.9633   8
   1  -1  -4-151.626 50.7462   7
  -1   1   3 4255.17 184.561   1
   1  -1  -3 4116.39 170.930   7
   1  -1  -3 4133.58 189.185   8
  -1   1   2 1257.31 100.762   1
   1  -1  -2 1118.77 99.1586   8
   1  -1  -2 1323.05 89.1698   7
  -1   1   1 3273.89 144.599   1
   1  -1  -1 3349.60 121.108   7
   1  -1  -1 3324.21 156.731   8
  -1   1   0 347.629 54.8980   1
   1  -1   0 336.897 38.4330  11
   1  -1   0 375.471 60.6598   6
  -1   1   0 362.087 44.3542  11
   1  -1   1 582.674 74.6296   3
  -1   1  -1 600.462 57.0474  11
   1  -1   1 474.790 69.8123   6
  -1   1  -1 589.096 73.4868  10
   1  -1   2 461.849 66.2398   3
  -1   1  -2 436.247 75.1391  10
   1  -1   2 532.390 71.6159   4
   1  -1   3 38188.6 562.275   4
   1  -1   3 39297.7 567.604   3
  -1   1  -3 38296.5 594.227  10
   1  -1   4 17296.3 412.889   3
  -1   1  -4 17263.3 428.700  10
  -1   1  -5 5382.29 265.545  10
   1  -1   5 5643.31 252.564   3
   1  -1   6 19.2222 51.8300   3
  -1   1  -6-4.57233 23.5908   9
  -1   1  -6-9.95989 57.3542  10
  -1   1  -7 5680.72 156.469   9
  -1   1  -7 6827.84 340.275  10
   1  -1   7 7045.64 323.355   3
  -1   1  -8 6719.61 357.352  10
   1  -1   8 7129.26 343.975   3
   1  -1   9 10837.3 448.108  10
   1  -1   9 9432.19 415.667   3
  -1   1  -9 9899.01 450.440  10
  -1   1 -10 1017.73 153.343   3
  -1   1 -10 1167.94 172.402  10
   1  -1  10 1260.74 171.475  10
   1  -1  10 1164.77 169.197   3
  -1   1 -11 648.608 146.212  10
   1  -1  11 1077.48 160.098  10
   1  -1  11 961.870 164.683   3
  -1   1 -11 911.988 158.806   3
  -1   1 -12 1763.52 220.540  10
  -1   1 -12 1736.89 213.286   3
   1  -1  12 1338.12 195.135  10
   1  -1  12 1467.32 199.230   3
   1  -1  13 611.489 151.897   3
  -1   1 -13 867.837 171.939  10
  -1   1 -14-34.8432 92.2240  10
   1  -1  14-27.4589 60.1179   3
  -1   1 -15 35.7504 74.3489  10
   1  -1  15 14.7403 76.6541   3
  -1   1 -16 214.637 135.810  10
   1  -1  16 335.284 140.453   3
   1  -1  17 292.357 123.350   3
  -1   1 -17 16.8980 81.0610  10
  -1   1 -18 219.785 122.456  10
  -1   1 -19 142.003 103.105  10
   1   0 -19 38.2824 88.9573   5
   1   0 -18 57.2621 81.5854   5
  -1   0  18 131.389 106.281   1
  -1   0  17 48.0519 105.001   1
   1   0 -17 207.047 139.077   5
  -1   0  16 471.364 139.270   1
   1   0 -16 357.249 126.247   5
   1   0 -16 441.054 134.383  10
   1   0 -15 135.905 91.4330  10
  -1   0  15 1.49194 79.5392   1
   1   0 -15 152.686 106.958   5
  -1   0  14 11235.4 530.120  10
   1   0 -14 11416.5 575.759   5
   1   0 -14 10993.5 526.903  10
  -1   0  14 10494.9 569.225   1
  -1   0  13 2932.81 272.313  10
   1   0 -13 2984.53 287.564   5
   1   0 -13 2809.99 269.744  10
  -1   0  13 3027.43 294.475   1
   1   0 -12 8638.94 479.551   7
  -1   0  12 9243.51 441.805  10
   1   0 -12 8529.64 434.717  10
   1   0 -12 8698.13 460.518   5
   1   0 -12 9250.09 469.703   3
  -1   0  12 7935.78 447.235   1
   1   0 -11 1049.45 156.978  10
  -1   0  11 1034.33 150.950  10
   1   0 -11 1038.84 151.329   3
  -1   0  11 864.101 155.207   1
   1   0 -11 1118.99 169.496   7
   1   0 -11 949.682 152.071   5
   1   0 -10 276.759 87.1503   5
  -1   0  10 359.562 104.797   1
   1   0 -10 217.180 88.9152  10
   1   0 -10 283.303 89.0205   3
   1   0 -10 345.027 105.227   7
  -1   0   9 420.409 99.4297   1
   1   0  -9 361.318 92.9236  10
   1   0  -9 610.757 115.661   5
   1   0  -9 214.177 27.0252   2
   1   0  -9 662.555 134.818   7
  -1   0   8 3036.78 210.901  10
   1   0  -8 2645.49 215.187   5
   1   0  -8 2427.37 193.156  10
   1   0  -8 2736.54 222.394   7
   1   0  -8 2267.16 93.7040   2
  -1   0   8 2848.66 219.124   1
   1   0  -7 4008.81 244.193   5
   1   0  -7 4063.85 251.660   7
  -1   0   7 3787.56 221.174  10
   1   0  -7 3760.07 218.449  10
  -1   0   7 3413.05 227.584   1
  -1   0   6 1896.40 145.197  10
   1   0  -6 1710.57 145.354  10
   1   0  -6 1742.93 156.547   5
   1   0  -6 1865.74 168.323   7
  -1   0   6 1744.47 153.360   1
   1   0  -5 2121.95 156.405   5
   1   0  -5 2411.72 168.674   7
  -1   0   5 2041.10 143.491  10
  -1   0   5 2264.05 158.989   1
  -1   0   4 18702.7 389.163   1
   1   0  -4 18009.2 393.615   5
   1   0  -4 17542.0 404.348   7
   1   0  -3 15474.1 344.558   8
  -1   0   3 16088.7 323.709   1
   1   0  -3 15641.2 345.292   7
  -1   0   2 5583.28 168.138   1
   1   0  -2 5608.68 183.693   8
   1   0  -2 5452.88 187.730   7
   1   0  -1 9583.62 218.613   7
  -1   0   1 9535.38 182.542   1
  -1   0   0 557.765 44.6561   1
   1   0   0 438.626 52.1665   7
   1   0   1 314.120 48.6331   6
  -1   0  -2 101496. 757.965  10
   1   0   2 95705.1 734.331   4
   1   0   2 104092. 673.413   3
  -1   0  -3 122514. 918.178  10
   1   0   3 124318. 841.389   3
  -1   0  -4 103331. 926.161  10
   1   0   4 104272. 870.781   3
  -1   0  -5 90999.0 946.837  10
   1   0   5 92421.6 916.651   3
  -1   0  -6 638.028 100.985  10
   1   0   6 633.591 96.5491   3
   1   0   7 7951.56 322.916   3
  -1   0  -7 8666.92 345.479  10
   1   0   8 1711.44 167.529   3
   1   0   8 1481.46 152.032  10
   1   0   8 1181.81 74.9606   2
  -1   0  -8 1772.65 173.031  10
   1   0   9 6912.00 340.592   3
  -1   0  -9 6322.74 342.880  10
  -1   0  -9 6904.98 337.800   3
   1   0  10 1929.11 197.713   3
  -1   0 -10 1809.04 198.904   3
   1   0  10 2079.00 198.721  10
  -1   0 -10 1849.44 198.053  10
   1   0  11 326.607 100.495  10
  -1   0 -11 380.910 105.515  10
   1   0  11 376.858 102.648   3
  -1   0 -11 433.216 102.678   3
   1   0  12 580.121 131.159   3
   1   0  12 445.498 112.401  10
  -1   0 -12 404.151 107.408  10
  -1   0 -12 617.085 137.632   3
   1   0  13 14.8616 47.8661  10
  -1   0 -13 77.6965 83.1506  10
   1   0  13 86.1733 77.9377   3
   1   0  14-45.7380 83.4385   3
   1   0  14 107.056 60.6516  10
  -1   0 -14 90.3639 83.7113  10
  -1   0 -15 784.586 175.560  10
   1   0  16 1842.03 269.273   1
  -1   0 -16 1685.06 245.393  10
   1   0  17 228.577 148.294   1
  -1   0 -17 33.1221 94.1700  10
   1   0  18 64.0457 121.875   1
  -1   0 -18-39.0232 79.9216  10
  -1   0 -19 111.114 114.890   5
  -1   0 -19 157.349 121.284  10
  -1   0 -20 190.060 117.989  10
   1   1 -19 102.584 105.457   5
  -1  -1  18-109.081 101.852   1
   1   1 -18-64.6562 85.9686   5
   1   1 -17 154.261 119.766  10
  -1  -1  17 270.173 136.166   1
   1   1 -17-39.6649 77.0494   5
   1   1 -16 368.352 132.404   5
  -1  -1  16 331.729 126.404   1
   1   1 -16 282.373 122.105  10
   1   1 -15 1912.90 249.118   5
   1   1 -15 1628.98 241.820  10
  -1  -1  15 1752.65 248.207   1
   1   1 -14 73.3356 78.6315   5
   1   1 -14 23.8651 76.9123  10
  -1  -1  14 98.0932 42.1546   9
  -1  -1  14 45.3364 82.5696   1
   1   1 -13 1534.79 202.550   5
   1   1 -13 1385.14 202.722  10
  -1  -1  13 1233.36 202.201   1
  -1  -1  13 1419.36 204.445  10
   1   1 -12 1932.33 219.844   3
   1   1 -12 1968.72 230.254  10
  -1  -1  12 1671.58 215.330   1
   1   1 -12 1831.46 215.615   5
  -1  -1  12 2210.48 238.683  10
   1   1 -12 2123.21 250.689   7
   1   1 -11 1558.32 190.683   5
  -1  -1  11 1589.54 208.315   1
   1   1 -11 1551.90 193.208  10
   1   1 -11 1678.46 205.166   3
  -1  -1  11 1517.15 205.329  10
   1   1 -11 1519.58 206.305   7
  -1  -1  10 228.082 98.7718  10
   1   1 -10 161.296 76.4378  10
   1   1 -10 93.0968 64.2199   3
   1   1 -10 129.757 71.1874   5
   1   1 -10 111.971 70.2813   7
  -1  -1  10 101.359 59.8770   1
   1   1  -9-65.8398 74.0352   5
   1   1  -9-13.5402 64.9081  10
  -1  -1   9 111.285 78.4067  10
   1   1  -9 68.7604 62.4240   7
   1   1  -9 19.5445 39.0233   3
   1   1  -8 1513.02 159.444   5
   1   1  -8 1276.20 163.091  10
   1   1  -8 1189.58 72.5955   2
  -1  -1   8 1441.13 155.398   3
   1   1  -8 1754.11 188.866   7
   1   1  -7 22.3888 48.8064   5
  -1  -1   7 3.93617 53.9896   3
   1   1  -7 57.9262 21.9476   2
   1   1  -7 42.4408 52.1483  10
   1   1  -7 129.763 66.5047   7
  -1  -1   6 44.4453 49.8862   3
   1   1  -6 38.6947 25.3534   2
   1   1  -6-19.8932 44.7290   5
   1   1  -6 42.4190 63.5333  10
   1   1  -6 19.3291 47.1845   7
   1   1  -5 1355.16 86.5664   2
  -1  -1   5 1373.36 127.383   3
   1   1  -5 1256.96 132.798  10
   1   1  -5 1468.50 138.865   7
   1   1  -5 1603.65 131.494   5
   1   1  -4 36117.1 602.463  10
  -1  -1   4 35569.3 533.405   3
   1   1  -4 35012.0 428.120   2
   1   1  -4 37010.6 534.008   5
   1   1  -4 36353.2 597.171   7
  -1  -1   3 6384.99 212.039   5
   1   1  -3 7060.13 189.806   2
  -1  -1   3 6900.03 214.466   3
   1   1  -3 6957.08 241.656   7
   1   1  -3 7070.96 205.641   5
  -1  -1   2 38.4954 33.9893   3
   1   1  -2 60.9667 33.4582   2
  -1  -1   2 68.0546 37.2563   2
  -1  -1   2 58.5229 35.9303   5
   1   1  -2 45.0408 34.5996   8
   1   1  -2 82.0327 41.8482   7
  -1  -1   1 135004. 675.150   8
   1   1  -1 133663. 859.400   7
   1   1  -1 138534. 829.102   2
   1   1  -1 134155. 739.127  11
  -1  -1   0 37618.8 323.618   8
   1   1   0 37847.8 355.883  11
  -1  -1  -1 8693.67 152.766   4
   1   1   1 9147.25 219.827   2
  -1  -1  -2 2876.10 86.7778   3
   1   1   2 3018.67 129.380   2
   1   1   3 6789.73 193.337   2
   1   1   3 7373.96 176.814   3
  -1  -1  -3 7247.20 177.420   3
  -1  -1  -4 160.100 44.9145  10
   1   1   4 273.011 55.3901   3
   1   1   4 152.161 40.4743   2
  -1  -1  -4 210.981 47.6849   3
   1   1   5 291.327 65.9282   3
  -1  -1  -5 320.227 59.6450   3
   1   1   5 246.157 48.8760   2
  -1  -1  -5 163.103 29.0236   9
  -1  -1  -5 227.701 51.8510  10
   1   1   6 160.464 59.3081   3
   1   1   6 160.426 40.0266   2
  -1  -1  -6 162.125 57.4554  10
   1   1   6 173.765 49.1304  10
  -1  -1  -6 197.326 58.0959   3
   1   1   7 178.308 64.0207   3
  -1  -1  -7 149.389 53.0288  10
   1   1   7 241.124 58.6419  10
  -1  -1  -7 131.173 56.9725   3
   1   1   7 179.676 38.4625   2
   1   1   8 16.0335 67.4197   3
   1   1   8-24.9342 24.0244   2
  -1  -1  -8-31.3564 51.6399  10
  -1  -1  -8-35.4679 42.3194   3
   1   1   8 25.5438 43.2111  10
  -1  -1  -9 93.5288 50.4970   3
   1   1   9 56.3280 37.0953  10
   1   1   9 44.7376 23.7537   2
  -1  -1  -9 39.6499 55.3466  10
   1   1   9 19.9562 47.7595   3
  -1  -1 -10-9.21613 44.1295   3
   1   1  10 3.45500 56.3367   3
  -1  -1 -10 87.0733 49.6277  10
   1   1  10 45.0592 15.8502   2
  -1  -1 -11 1027.52 144.885  10
  -1  -1 -11 1123.93 157.607   3
   1   1  11 1181.27 150.541  10
  -1  -1 -12-41.4403 59.4634  10
   1   1  12-23.5418 50.2850  10
  -1  -1 -12 26.6478 53.0360   3
  -1  -1 -13 9.86939 68.7023  10
   1   1  13 178.939 79.9821  10
  -1  -1 -13 273.186 101.430   3
   1   1  13 187.792 94.8323   1
  -1  -1 -14 371.354 114.910  10
   1   1  14 345.969 102.423  10
   1   1  14 194.823 89.5781   1
   1   1  15 5778.13 384.145  10
  -1  -1 -15 6011.00 398.629  10
   1   1  15 5486.17 425.948   1
   1   1  16 470.071 149.382   1
  -1  -1 -16 440.556 138.666  10
   1   1  17 176.495 125.788   1
  -1  -1 -17 72.4829 84.8188  10
  -1  -1 -18 79.9968 108.792  10
   1   1  18 111.116 90.8795   1
  -1  -1 -19 123.473 82.4801  10
   1   1  19 65.7840 93.0163   1
  -1  -1 -19 197.337 115.838   5
  -1  -1 -20 457.236 136.819  10
  -1  -1 -21 121.268 104.681  10
   1   2 -18 111.996 101.336  10
   1   2 -18 251.594 129.105   5
  -1  -2  17 559.491 163.790   1
   1   2 -17 509.731 172.724  10
   1   2 -17 597.321 163.813   5
   1   2 -16 476.969 163.425  10
   1   2 -16 203.896 92.4138   5
  -1  -2  16 192.046 123.183   1
  -1  -2  15-46.3992 88.6135   1
   1   2 -15 46.3456 63.4077   5
   1   2 -15 104.766 78.7045  10
   1   2 -14 7.45877 64.9225   5
   1   2 -14 146.093 103.956  10
  -1  -2  14-34.5755 39.3769   9
  -1  -2  14 15.6252 89.2561   1
  -1  -2  13 34.3450 40.7991   9
   1   2 -13 117.784 103.116  10
   1   2 -13 136.070 88.8252   5
   1   2 -12 708.052 148.555  10
  -1  -2  12 507.812 131.420   3
  -1  -2  12 538.551 87.7427   9
   1   2 -12 572.270 119.600   5
  -1  -2  11 246.827 85.3704   3
   1   2 -11 269.174 94.7159   7
  -1  -2  11 218.679 58.5643   9
   1   2 -11 265.205 96.7987  10
  -1  -2  11 295.559 101.336  10
   1   2 -11 39.8333 53.3765   3
   1   2 -11 247.353 93.4212   5
  -1  -2  10 95.4320 71.2902   3
   1   2 -10 157.938 61.3397   5
   1   2 -10 133.107 64.4669   7
   1   2 -10 69.4983 70.4792  10
  -1  -2  10 58.8906 38.5709   9
   1   2 -10 138.234 68.5917   3
  -1  -2  10 117.872 79.8328  10
   1   2  -9 2371.82 234.401  10
  -1  -2   9 2489.88 244.598  10
   1   2  -9 2243.04 212.049   3
  -1  -2   9 2183.74 208.671   3
   1   2  -9 2308.71 225.390   7
   1   2  -9 2408.60 208.520   5
  -1  -2   8 681.405 119.986   3
   1   2  -8 499.775 97.9100   5
   1   2  -8 487.924 118.978  10
   1   2  -8 486.509 97.2831   3
   1   2  -8 599.177 108.693   7
   1   2  -7 37198.9 502.026   2
   1   2  -7 35522.4 666.398   5
   1   2  -7 35261.0 781.547  10
  -1  -2   7 35136.0 720.509   3
  -1  -2   7 35472.3 486.625   2
   1   2  -7 37205.6 775.944   7
   1   2  -6 7297.25 279.234   5
  -1  -2   6 7107.26 313.766   3
   1   2  -6 7953.04 236.206   2
   1   2  -6 7728.85 332.728   7
   1   2  -6 7107.81 307.293   3
  -1  -2   6 7601.48 230.027   2
   1   2  -6 7603.12 346.089  10
   1   2  -5 3521.06 209.580   7
   1   2  -5 3200.64 216.476  10
  -1  -2   5 3400.83 213.384   7
   1   2  -5 3425.88 160.204   2
  -1  -2   5 3350.52 197.061   3
   1   2  -5 2961.22 191.283   3
  -1  -2   5 3325.89 156.716   2
   1   2  -5 3546.31 178.488   5
   1   2  -4 3641.29 158.783   5
   1   2  -4 3486.72 163.122   2
   1   2  -4 3586.73 196.705   7
   1   2  -4 3495.64 186.711   3
  -1  -2   4 3566.01 164.054   2
   1   2  -4 3608.83 218.595  10
  -1  -2   4 3405.11 204.427   7
  -1  -2   4 3347.01 184.726   3
  -1  -2   3 1756.95 124.218   3
   1   2  -3 1609.56 117.244   3
   1   2  -3 1739.10 141.210  10
  -1  -2   3 1766.06 119.595   2
   1   2  -3 1988.53 137.144   7
   1   2  -3 1866.54 121.671   2
   1   2  -3 1839.85 99.2839   5
  -1  -2   3 1983.36 142.583   7
   1   2  -3 1985.37 140.317  11
   1   2  -2 1589.27 109.817   2
   1   2  -2 1661.38 116.900   7
   1   2  -2 1363.68 97.5187   3
  -1  -2   2 1594.02 116.123   2
  -1  -2   2 1741.87 107.795   3
  -1  -2   2 1548.11 112.790   7
   1   2  -2 1654.49 123.324  11
  -1  -2   1 18141.0 203.178   5
   1   2  -1 18519.8 371.159  11
   1   2  -1 18792.9 202.789   8
  -1  -2   1 18854.8 279.764   3
   1   2  -1 18494.9 339.696   7
  -1  -2   1 18721.7 348.489   7
   1   2  -1 19138.5 369.633   2
   1   2  -1 18270.0 283.364   3
   1   2   0 5135.38 191.050  11
   1   2   0 5262.78 169.033   7
  -1  -2   0 5154.21 170.356   7
  -1  -2   0 5697.64 128.655   3
   1   2   0 5325.67 128.763   3
   1   2   0 5385.56 198.852   2
   1   2   1 967.480 84.4440  11
   1   2   1 1115.86 95.7765   2
   1   2   1 1100.10 54.8207   1
  -1  -2  -1 1154.70 55.2921   1
  -1  -2  -1 1084.72 84.9151   7
   1   2   2-14.9395 23.8321   1
  -1  -2  -2-3.11680 20.9388   1
   1   2   2 76.2025 49.7735   2
   1   2   3 34681.1 416.553   1
   1   2   3 34939.0 505.176   2
  -1  -2  -3 34300.0 462.443   9
  -1  -2  -3 34302.4 422.383   1
   1   2   4 8313.40 246.753   1
   1   2   4 8427.47 253.698   2
  -1  -2  -4 8337.64 226.321   9
  -1  -2  -5 10507.0 279.340   3
  -1  -2  -5 10634.2 247.101  10
  -1  -2  -5 10475.8 275.272   2
  -1  -2  -5 9764.06 239.117   9
   1   2   5 10412.0 277.976   2
   1   2   5 9586.39 301.090   1
  -1  -2  -6-1.36935 37.7916   3
  -1  -2  -6 17.7114 35.1987   2
  -1  -2  -6 11.3995 41.6107  10
   1   2   6-23.1722 34.0017   2
   1   2   6 41.8700 46.9228   1
  -1  -2  -7-20.8417 38.1332   3
   1   2   7 28.4186 38.2907   2
  -1  -2  -7-1.66475 28.7161   2
   1   2   7-1.74649 46.1767   1
  -1  -2  -7 29.6338 34.9359  10
  -1  -2  -8 1892.09 141.610  10
  -1  -2  -8 2139.11 122.231   2
   1   2   8 1867.97 174.144   1
  -1  -2  -8 1987.59 166.032   3
   1   2   8 1859.85 116.700   2
  -1  -2  -9 2940.59 139.350   2
  -1  -2  -9 2896.68 209.686   3
   1   2   9 2969.29 184.813  10
   1   2   9 2986.56 146.414   2
  -1  -2  -9 2999.24 194.014  10
   1   2   9 2731.72 227.255   1
  -1  -2 -10 3269.58 216.903  10
  -1  -2 -10 3204.48 238.687   3
   1   2  10 2979.78 244.783   1
   1   2  10 3155.17 206.096  10
  -1  -2 -11 5393.23 294.956  10
  -1  -2 -11 5629.71 331.389   3
   1   2  11 5601.76 350.282   1
   1   2  12 4681.22 347.771   1
  -1  -2 -12 5871.68 332.217  10
  -1  -2 -12 5990.79 360.707   3
  -1  -2 -13 668.854 134.047  10
   1   2  13 791.577 159.849   1
   1   2  13 793.453 129.566  10
  -1  -2 -13 896.355 159.855   3
  -1  -2 -14 777.431 142.427  10
   1   2  14 673.016 155.168   1
   1   2  14 567.910 121.855  10
  -1  -2 -15 754.786 144.027  10
   1   2  15 980.165 155.141  10
   1   2  15 708.034 164.067   1
   1   2  16-47.2663 66.1233  10
  -1  -2 -16 23.8372 63.8227  10
   1   2  16 41.3744 71.5405   1
  -1  -2 -17 112.403 97.8765   5
  -1  -2 -17 42.0647 78.2070  10
   1   2  17 227.784 113.324   1
  -1  -2 -18-17.8375 81.4156  10
   1   2  18 132.181 87.0052   1
  -1  -2 -18 15.1112 90.8708   5
  -1  -2 -19 221.495 126.650   5
  -1  -2 -19 119.747 84.6645  10
   1   2  19 206.443 138.815   1
  -1  -2 -20-17.7702 65.0455  10
   1   3 -18 30.0902 69.6267   5
  -1  -3  17 340.431 154.300   1
   1   3 -17 855.711 191.024   5
   1   3 -17 498.355 172.674  10
   1   3 -16 760.177 166.534   5
   1   3 -16 861.065 223.103  10
  -1  -3  16 382.226 151.346   1
   1   3 -15 396.116 116.643   5
   1   3 -15 191.666 120.258  10
  -1  -3  14 271.663 117.050   3
   1   3 -14 455.875 149.211  10
   1   3 -14 324.149 110.106   5
  -1  -3  13 188.673 97.2679   3
   1   3 -13 356.176 114.083   5
   1   3 -13 327.711 127.902  10
  -1  -3  12 1379.99 211.573   3
   1   3 -12 1631.95 197.521   5
   1   3 -12 1807.61 244.065  10
  -1  -3  11 235.908 95.2883   3
   1   3 -11 190.746 87.1093  10
   1   3 -11 327.974 98.0835   7
   1   3 -11 367.790 93.9399   5
  -1  -3  10 1422.69 196.964   3
   1   3 -10 1666.86 176.714   5
   1   3 -10 1852.93 214.950   7
   1   3 -10 1362.06 200.612  10
   1   3 -10 1852.87 215.105   3
  -1  -3  10 1608.55 219.139  10
  -1  -3   9 2745.59 276.249  10
   1   3  -9 2623.48 235.591   3
   1   3  -9 2425.39 244.573  10
  -1  -3   9 1152.66 132.678   9
  -1  -3   9 2393.20 231.275   3
   1   3  -9 2949.74 255.847   7
  -1  -3   9 2552.07 155.669   2
   1   3  -9 2573.33 206.448   5
   1   3  -8 11050.8 492.885  10
  -1  -3   8 11956.9 525.634  10
   1   3  -8 11934.1 476.655   7
   1   3  -8 11229.0 456.531   3
  -1  -3   8 11003.9 460.586   3
  -1  -3   8 11858.9 333.799   2
  -1  -3   8 10760.6 386.913   9
   1   3  -8 11209.7 395.178   5
  -1  -3   7 11651.5 393.742   9
   1   3  -7 11501.4 477.908  10
  -1  -3   7 11380.8 439.499   3
  -1  -3   7 12769.2 351.809   2
   1   3  -7 11706.7 443.004   3
   1   3  -7 12216.0 453.570   7
   1   3  -7 11846.4 378.840   5
   1   3  -7 12580.6 507.783  11
   1   3  -6 2816.24 174.340   5
   1   3  -6 3451.50 230.661   7
  -1  -3   6 3427.23 186.010   2
   1   3  -6 3250.18 244.360  11
   1   3  -6 3378.31 254.647  10
  -1  -3   6 2919.53 199.031   9
  -1  -3   6 2960.11 219.823   3
   1   3  -6 3331.05 184.684   2
   1   3  -5 470.111 108.389  10
  -1  -3   5 471.755 79.5420   2
  -1  -3   5 487.826 95.2885   3
   1   3  -5 527.553 94.7651  11
   1   3  -5 489.728 87.0905   3
  -1  -3   5 425.927 79.3724   9
   1   3  -5 591.966 96.4535   7
   1   3  -5 526.853 77.7668   2
   1   3  -5 581.096 76.8806   5
   1   3  -4 5060.96 228.958   2
   1   3  -4 4666.84 233.304   3
  -1  -3   4 4763.49 235.694   3
   1   3  -4 4778.11 176.138   5
   1   3  -4 4946.18 266.491  11
  -1  -3   4 4850.71 241.130   9
   1   3  -4 4934.90 273.700  10
   1   3  -4 5068.93 239.412   7
  -1  -3   4 4732.12 240.783   7
   1   3  -4 4796.07 180.564   4
  -1  -3   4 5000.54 230.405   2
   1   3  -3 2169.27 155.372   2
   1   3  -3 2048.11 95.3529   5
  -1  -3   3 1886.42 142.874   2
  -1  -3   3 1890.57 153.717   9
   1   3  -3 1883.68 140.053   3
   1   3  -3 2116.98 163.108  11
  -1  -3   3 1907.41 145.570   3
  -1  -3   3 1984.33 149.284   7
   1   3  -3 2198.40 143.864   7
   1   3  -3 1983.85 162.518  10
   1   3  -3 1952.27 99.0710   4
  -1  -3   2 53.3142 39.3972   7
   1   3  -2 52.9053 42.9484  11
   1   3  -2 50.9336 49.9553  10
  -1  -3   2 120.537 42.9374   2
   1   3  -2 81.8530 34.9717   3
  -1  -3   2 59.3030 41.2250   3
   1   3  -2 69.7609 49.6032   2
   1   3  -2 79.1514 41.0389   7
  -1  -3   1 71.0247 62.2029  10
   1   3  -1-31.6911 42.4295  11
  -1  -3   1 79.1868 49.7532   3
   1   3  -1 13.8014 32.0096   7
  -1  -3   1 5.55805 45.9658   2
   1   3  -1-18.2076 36.0771   3
  -1  -3   1 33.4861 42.5909   7
   1   3  -1-6.58868 49.1322   2
  -1  -3   0 365.466 53.8434   1
  -1  -3   0 362.464 53.4898   3
   1   3   0 296.511 50.5464   7
   1   3   0 303.597 55.9017  11
   1   3   0 386.941 59.0901   3
   1   3   0 437.564 78.9551   2
  -1  -3   0 345.272 66.6269  10
  -1  -3   0 310.908 52.8561   7
   1   3   1 1760.84 139.058   2
   1   3   1 1707.13 133.636  11
  -1  -3  -1 1903.48 100.552   3
  -1  -3  -1 1949.16 106.264   1
  -1  -3  -1 2601.12 122.819   7
  -1  -3  -1 1695.11 114.184  10
   1   3   2 1116.54 109.162   9
  -1  -3  -2 737.685 61.7288   1
   1   3   2 862.321 69.5833   1
   1   3   2 826.369 100.555   2
  -1  -3  -3 40707.8 618.108   9
  -1  -3  -3 39034.5 508.417   1
   1   3   3 39004.5 496.911   1
   1   3   3 39732.2 607.340   9
   1   3   3 39774.2 632.535   2
   1   3   4 840.605 87.5713   1
  -1  -3  -4 863.349 88.9943   1
  -1  -3  -4 842.802 95.9644   9
   1   3   4 830.797 96.6915   9
   1   3   4 884.279 102.580   2
   1   3   5 5864.39 239.737   9
   1   3   5 6274.54 240.381   1
   1   3   5 6534.91 260.596   2
  -1  -3  -5 6845.16 261.306   2
  -1  -3  -5 6544.90 253.990   1
  -1  -3  -6 9071.32 324.295   1
   1   3   6 8545.32 280.778   9
  -1  -3  -6 9442.50 310.659   2
  -1  -3  -6 9321.77 221.595  10
   1   3   6 9637.33 315.860   2
   1   3   6 9242.04 321.742   1
  -1  -3  -7 2987.32 139.402  10
   1   3   7 2843.72 177.993   2
   1   3   7 2905.97 201.241   1
   1   3   7 2811.65 157.144   9
  -1  -3  -7 3059.64 179.432   2
   1   3   8 6672.93 320.054   1
  -1  -3  -8 6714.15 224.885  10
   1   3   8 6645.04 264.885   2
  -1  -3  -8 6630.07 296.755   3
   1   3   8 6768.35 236.404   9
  -1  -3  -8 7027.36 266.345   2
  -1  -3  -9 767.545 109.919   3
  -1  -3  -9 736.132 87.0749  10
   1   3   9 779.891 80.9571   9
   1   3   9 798.785 130.451   1
   1   3   9 832.256 98.5617   2
  -1  -3  -9 945.672 101.126   2
   1   3  10 5759.85 338.280   1
  -1  -3 -10 5957.76 319.311   3
  -1  -3 -10 5624.73 253.240  10
   1   3  10 5626.33 203.790   9
  -1  -3 -10 5972.92 237.834   2
  -1  -3 -11 1292.42 161.356   3
  -1  -3 -11 1176.71 106.907   2
   1   3  11 1195.79 173.760   1
  -1  -3 -11 1177.39 127.264  10
   1   3  12 547.168 128.215   1
  -1  -3 -12 606.688 98.1414  10
  -1  -3 -12 573.812 72.7871   2
  -1  -3 -12 613.727 120.451   3
  -1  -3 -13 81.5958 53.4977  10
  -1  -3 -13 90.3091 61.6018   3
   1   3  13 214.832 81.4067   1
  -1  -3 -14 390.752 89.4830  10
   1   3  14 515.910 134.830   1
  -1  -3 -15 1644.09 184.078  10
   1   3  15 1649.83 232.794   1
  -1  -3 -16 37.7406 60.1683  10
  -1  -3 -16 29.6704 79.7899   5
   1   3  16 243.471 127.110   1
  -1  -3 -17-38.0791 105.247   5
  -1  -3 -17 29.9226 59.3355  10
   1   3  17-154.707 88.5404   1
  -1  -3 -18 284.647 106.895  10
  -1  -3 -18 118.609 105.284   5
   1   3  18 198.639 92.7604   1
  -1  -3 -19 613.411 186.744   5
  -1  -3 -19 365.729 124.314  10
   1   3  19 699.210 189.954   1
   1   4 -17 109.286 93.7999   5
   1   4 -17 85.2758 78.3262   4
  -1  -4  16 177.887 119.874   3
   1   4 -16 76.2671 82.6397   5
   1   4 -16 159.573 107.937  10
   1   4 -16 93.5445 69.9265   4
   1   4 -15 186.659 121.272  11
  -1  -4  15 20.3008 65.1841   3
   1   4 -15-6.31634 63.8994   5
   1   4 -15 0.14750 70.8195   4
   1   4 -15-44.5197 92.9509  10
   1   4 -14 76.5004 73.3773   5
  -1  -4  14 41.4921 86.9982   3
   1   4 -14-91.3531 72.1741   4
   1   4 -14-4.08115 83.2819  10
   1   4 -14-66.6579 103.777  11
   1   4 -13 139.410 115.775  11
   1   4 -13 5.73991 55.1862   5
  -1  -4  13 28.3306 67.6774   3
   1   4 -13 99.4785 100.187  10
   1   4 -13 5.55138 65.9285   4
   1   4 -12 1404.15 190.076   4
   1   4 -12 1331.46 176.747   5
   1   4 -12 1426.96 240.668  11
  -1  -4  12 1100.82 199.050   3
   1   4 -12 1387.05 223.251  10
  -1  -4  12 1235.71 157.456   9
   1   4 -11 3017.47 249.128   5
   1   4 -11 2625.81 310.442  11
   1   4 -11 2745.75 308.314  10
  -1  -4  11 2811.03 183.010   2
  -1  -4  11 2994.82 233.739   9
  -1  -4  11 2465.28 271.258   3
   1   4 -11 2443.11 227.586   4
   1   4 -10 174.151 68.0174   4
  -1  -4  10 225.670 75.2129   9
   1   4 -10 78.3637 77.2515  10
   1   4 -10 136.350 96.8135  11
  -1  -4  10 146.200 54.4807   2
  -1  -4  10 243.617 101.898   3
   1   4 -10 136.692 82.5059   7
   1   4 -10 130.859 50.6777   5
   1   4  -9 89.4016 80.2641  11
   1   4  -9 40.7799 63.1429  10
  -1  -4   9 31.1650 42.4715   9
   1   4  -9 46.9072 40.6095   5
  -1  -4   9 48.0112 40.4979   2
  -1  -4   9-0.11495 63.7983   3
   1   4  -9 65.0767 60.6187   7
   1   4  -9 45.9366 45.1666   3
  -1  -4   8 88.2226 70.7354  10
   1   4  -8 76.5325 81.3067  10
  -1  -4   8 157.189 77.2641   3
   1   4  -8 26.2611 75.5839  11
  -1  -4   8 132.947 56.1616   2
   1   4  -8 145.434 53.4633   5
   1   4  -8 78.8103 64.8438   7
   1   4  -8 74.0817 51.1555   3
   1   4  -7 222.069 63.6531   4
   1   4  -7 240.076 79.9737   3
   1   4  -7 141.328 75.2732  10
  -1  -4   7 172.175 82.3056  10
  -1  -4   7 143.718 57.0369   2
   1   4  -7 186.340 76.4711  11
  -1  -4   7 60.5497 56.2669   3
   1   4  -7 225.977 63.6044   5
   1   4  -7 123.532 64.1065   7
   1   4  -6 228.336 55.0185   4
   1   4  -6 203.364 68.5546  11
   1   4  -6 261.566 54.5788   5
   1   4  -6 182.623 70.3632  10
  -1  -4   6 253.600 64.5553   2
   1   4  -6 195.287 62.3082   3
  -1  -4   6 238.316 93.9274  10
   1   4  -6 204.750 63.5274   7
  -1  -4   6 183.887 80.5241   3
   1   4  -5 3701.85 267.515  11
   1   4  -5 3573.69 165.851   5
   1   4  -5 3489.72 260.889  10
   1   4  -5 3634.88 177.326   4
  -1  -4   5 3743.12 226.685   2
   1   4  -5 3406.01 223.574   7
  -1  -4   5 3431.81 234.028   3
   1   4  -4 12430.5 264.853   5
   1   4  -4 11529.1 376.108   7
  -1  -4   4 12570.2 414.288   2
   1   4  -4 11931.7 452.835  10
   1   4  -4 11901.1 457.852  11
   1   4  -4 11081.2 385.163   3
  -1  -4   4 11288.3 393.569   7
  -1  -4   4 11356.4 400.092   3
   1   4  -3 5243.46 293.021  11
   1   4  -3 5220.50 269.970   2
  -1  -4   3 5959.49 318.116  10
   1   4  -3 5335.31 232.892   7
  -1  -4   3 5550.13 275.780   2
   1   4  -3 5206.06 282.353  10
   1   4  -3 5432.87 256.872   3
  -1  -4   3 5395.10 256.015   3
   1   4  -3 5204.65 141.371   5
  -1  -4   3 5106.11 246.571   7
  -1  -4   2 418.941 94.8019  10
   1   4  -2 391.393 79.2759  10
   1   4  -2 439.530 95.8756  11
   1   4  -2 365.433 64.7214   3
  -1  -4   2 479.540 84.7814   2
  -1  -4   2 346.742 70.6705   3
   1   4  -2 278.131 74.9571   2
  -1  -4   2 306.771 67.8711   7
   1   4  -2 401.776 62.0621   7
   1   4  -1 12087.8 165.515   8
  -1  -4   1 12170.5 317.900   7
  -1  -4   1 12615.5 351.941   3
  -1  -4   1 12587.0 412.976   2
   1   4  -1 13015.5 429.062  11
  -1  -4   1 12903.2 405.828  10
  -1  -4   1 12508.2 235.075   4
   1   4  -1 12120.2 347.616   3
   1   4  -1 11961.6 295.841   7
   1   4  -1 12414.1 408.873   2
   1   4  -1 13129.5 399.394  10
   1   4   0 1136.24 125.558  11
   1   4   0 1222.97 132.508   2
  -1  -4   0 1310.09 130.892  10
  -1  -4   0 1227.93 101.457   1
  -1  -4   0 1172.52 99.0972   3
   1   4   0 1181.25 88.8329   7
  -1  -4   0 1106.16 94.5505   7
  -1  -4  -1 10052.5 286.908   1
   1   4   1 10516.6 381.393   2
  -1  -4  -1 10284.8 316.599  10
  -1  -4  -1 10327.3 287.852   3
   1   4   1 10249.6 364.402   9
  -1  -4  -1 10235.9 249.807   7
   1   4   1 10426.8 372.922  11
   1   4   2 14215.5 445.506   2
  -1  -4  -2 14504.3 233.379   5
  -1  -4  -2 14750.1 347.231  10
  -1  -4  -2 13908.0 215.427   8
   1   4   2 14114.6 333.206   1
   1   4   2 14302.1 437.604   9
  -1  -4  -2 14123.8 341.105   1
  -1  -4  -2 13848.3 292.065   7
   1   4   3 136049. 1361.46   2
   1   4   3 138163. 1074.08   1
  -1  -4  -3 141330. 992.272  10
  -1  -4  -3 141176. 901.622   5
   1   4   3 139539. 1337.63   9
  -1  -4  -3 139613. 1118.38   1
  -1  -4  -4 38264.0 615.036   1
   1   4   4 38741.3 698.301   9
   1   4   4 38374.0 594.899   1
   1   4   4 37687.5 716.270   2
  -1  -4  -4 38234.2 540.837   5
  -1  -4  -5 16219.3 429.810   1
   1   4   5 15894.8 467.577   2
   1   4   5 15851.1 446.181   9
   1   4   5 16006.4 409.834   1
  -1  -4  -6 5161.92 259.788   1
   1   4   6 5392.22 272.073   2
   1   4   6 4837.63 249.225   9
  -1  -4  -6 5237.03 267.309   2
   1   4   6 5134.19 250.434   1
  -1  -4  -7 6543.95 174.057  10
  -1  -4  -7 6516.93 300.840   2
   1   4   7 6433.71 296.230   2
   1   4   7 5961.95 271.207   9
   1   4   7 6068.39 288.483   1
  -1  -4  -7 6442.44 307.569   1
  -1  -4  -8 10156.7 235.696  10
  -1  -4  -8 10254.2 371.808   2
   1   4   8 9581.97 335.623   9
  -1  -4  -8 10129.8 413.082   1
   1   4   8 9559.46 384.458   1
  -1  -4  -9 52.2168 42.4818   2
  -1  -4  -9 22.5980 34.1089  10
   1   4   9 54.5183 41.8830   9
   1   4   9 60.7364 47.9001   1
  -1  -4 -10 202.625 70.4009   3
   1   4  10 167.454 56.0992   9
   1   4  10 265.633 89.5422   1
  -1  -4 -10 242.882 55.6330  10
  -1  -4 -10 171.515 53.5767   2
   1   4  11 1833.64 202.171   1
  -1  -4 -11 1834.32 155.542   2
  -1  -4 -11 1749.38 136.108  10
   1   4  11 1848.52 144.282   9
  -1  -4 -11 1922.82 198.290   3
   1   4  12 2346.62 241.267   1
  -1  -4 -12 2422.38 168.615  10
  -1  -4 -12 2815.82 264.348   5
   1   4  12 2506.86 163.204   9
  -1  -4 -12 2812.97 189.383   2
  -1  -4 -12 2691.91 242.533   3
  -1  -4 -13 8.85632 30.4747   2
  -1  -4 -13 25.7435 64.4573   5
  -1  -4 -13 26.8043 40.0402  10
  -1  -4 -13 18.6501 49.6859   3
   1   4  13 59.3549 66.4938   1
  -1  -4 -14 145.335 48.7310   2
  -1  -4 -14 180.891 63.9477  10
  -1  -4 -14 245.051 101.642   5
   1   4  14 225.894 88.7108   1
  -1  -4 -15 1031.72 194.580   5
   1   4  15 1055.10 185.530   1
  -1  -4 -15 842.882 124.308  10
  -1  -4 -16 136.056 69.3813  10
   1   4  16 259.141 129.911   1
  -1  -4 -16 101.618 86.4233   5
  -1  -4 -17 417.700 104.342  10
   1   4  17 414.806 130.441   1
  -1  -4 -17 522.916 147.017   5
  -1  -4 -18 1637.10 190.036  10
  -1  -4 -18 2205.66 309.519   5
   1   4  18 2035.28 292.091   1
  -1  -4 -19 1089.84 223.979   5
   1   4  19 580.281 174.493   1
   1   5 -16 19.9338 60.6479   4
  -1  -5  15 164.133 93.5135   3
   1   5 -15-47.4298 64.7851   5
   1   5 -15 4.03481 56.4522   4
  -1  -5  14 173.404 118.267   3
   1   5 -14 153.250 69.4051   5
   1   5 -14 133.396 104.302  11
   1   5 -14 152.823 110.177  10
   1   5 -14 152.743 85.7129   4
  -1  -5  13 90.5695 99.6530   3
   1   5 -13 125.595 117.195  11
   1   5 -13 25.6461 47.7876   5
   1   5 -13-43.5166 74.8012  10
   1   5 -13 84.9610 65.7001   4
   1   5 -12 103.199 53.9577   5
   1   5 -12 76.8851 65.0432   4
   1   5 -12 205.291 103.333  11
  -1  -5  12-1.15282 66.8542   3
   1   5 -12 92.5335 91.2005  10
   1   5 -11-104.934 107.459  11
   1   5 -11-12.6097 39.8041   5
   1   5 -11 161.000 103.257  10
   1   5 -11-1.03498 45.5821   4
  -1  -5  11 17.3884 34.8592   2
  -1  -5  11 18.3909 66.9017   3
   1   5 -10 777.977 133.199   4
  -1  -5  10 775.350 153.286   3
   1   5 -10 925.056 138.691   5
   1   5 -10 914.390 181.754  10
  -1  -5  10 1106.98 137.295   2
   1   5 -10 810.587 145.663   7
   1   5 -10 800.095 186.634  11
   1   5  -9 1611.43 232.819  11
   1   5  -9 1347.94 144.116   5
  -1  -5   9 1729.10 197.513   9
   1   5  -9 1351.68 220.453  10
  -1  -5   9 1515.81 164.298   2
   1   5  -9 1437.29 166.458   4
  -1  -5   9 1456.04 197.742   3
   1   5  -9 1751.05 209.608   7
   1   5  -8 552.874 117.516   3
  -1  -5   8 432.225 112.510   3
   1   5  -8 491.580 83.5040   5
   1   5  -8 595.340 123.059   7
   1   5  -8 316.116 112.729  10
  -1  -5   8 606.622 108.886   2
  -1  -5   8 350.357 98.8441   9
   1   5  -8 580.728 143.795  11
  -1  -5   7 182.586 67.5335   2
   1   5  -7 102.926 57.7563  10
  -1  -5   7 104.062 60.1105   9
   1   5  -7 231.078 82.9516   3
  -1  -5   7 118.490 81.1873  10
   1   5  -7 244.255 76.8651   7
   1   5  -7 85.7589 63.3496  11
  -1  -5   7 172.673 76.2322   3
   1   5  -7 195.199 57.0077   5
  -1  -5   6 2165.76 207.407   9
   1   5  -6 2248.05 216.927   3
   1   5  -6 2005.67 136.343   5
  -1  -5   6 2324.84 205.343   2
   1   5  -6 2033.05 220.746  10
   1   5  -6 2001.58 189.499   7
   1   5  -6 2087.53 233.598  11
  -1  -5   6 1876.32 194.954   3
  -1  -5   6 2042.68 243.698  10
  -1  -5   5 2087.53 227.638  10
  -1  -5   5 2178.78 208.555   9
   1   5  -5 2110.09 122.304   5
  -1  -5   5 2237.63 197.060   2
   1   5  -5 2161.66 220.444  10
   1   5  -5 2073.01 197.664   3
  -1  -5   5 2053.91 194.237   3
   1   5  -5 2050.28 174.272   7
   1   5  -5 1966.09 227.601  11
  -1  -5   4 88.6300 71.6140  10
   1   5  -4 33.7667 21.9016   5
   1   5  -4 72.1886 54.2585  10
  -1  -5   4 82.9639 53.0788   2
   1   5  -4-6.08611 37.1881   3
   1   5  -4 4.68545 50.6297  11
  -1  -5   4 34.8844 41.8129   3
   1   5  -4-4.71381 38.1102   7
  -1  -5   4 56.9194 40.6885   9
   1   5  -3 453.775 102.052  11
   1   5  -3 314.069 32.1650   5
  -1  -5   3 394.085 92.9606   2
  -1  -5   3 393.563 101.789  10
   1   5  -3 320.398 66.9536   7
  -1  -5   3 450.580 89.9867   3
  -1  -5   3 452.009 100.953   9
  -1  -5   3 345.371 74.7605   7
   1   5  -3 357.035 92.3053  10
   1   5  -2 495.150 101.680  11
  -1  -5   2 486.392 100.347  10
  -1  -5   2 418.892 83.3277   2
   1   5  -2 500.572 102.133  10
   1   5  -2 458.341 82.5202   3
  -1  -5   2 547.404 103.441   9
  -1  -5   2 319.653 77.9217   3
  -1  -5   2 396.849 79.5098   7
   1   5  -2 441.201 65.4900   7
   1   5  -1 371.142 56.3121   7
   1   5  -1 393.062 93.6552  11
   1   5  -1 486.696 85.6541  10
  -1  -5   1 412.155 90.5097  10
  -1  -5   1 293.070 61.5161   1
   1   5  -1 436.122 80.3295   3
  -1  -5   1 420.047 56.3919   4
  -1  -5   1 421.411 91.7142   2
   1   5  -1 335.152 32.1376   8
  -1  -5   1 341.505 82.0572   3
  -1  -5   1 366.687 69.9886   7
  -1  -5   0 29680.4 651.670  10
  -1  -5   0 29450.4 590.713   3
   1   5   0 28942.8 704.063   9
  -1  -5   0 29305.2 700.536   2
  -1  -5   0 30322.3 469.720   7
  -1  -5   0 29603.6 586.373   1
   1   5   0 29744.5 728.735  11
  -1  -5  -1 24892.3 550.205  10
   1   5   1 25107.3 647.240   2
   1   5   1 24174.6 635.387   9
  -1  -5  -1 24162.1 397.384   7
  -1  -5  -1 24490.4 526.100   3
   1   5   1 24024.7 655.823  11
  -1  -5  -1 23843.7 516.022   1
  -1  -5  -2 30347.9 445.046   7
   1   5   2 32160.3 733.167  11
   1   5   2 30314.5 710.389   2
  -1  -5  -2 31356.7 573.195  10
  -1  -5  -2 30589.2 574.831   3
  -1  -5  -2 30723.4 353.649   8
   1   5   2 32118.6 729.662   9
  -1  -5  -2 31381.4 590.704   1
  -1  -5  -3 1127.56 84.9035   7
  -1  -5  -3 1296.23 87.7170   8
  -1  -5  -3 1299.66 118.470   1
  -1  -5  -3 1269.36 108.954  10
   1   5   3 1171.03 144.467   9
   1   5   3 1132.07 114.293   1
   1   5   3 1355.57 159.547   2
  -1  -5  -4 4197.95 183.317   5
  -1  -5  -4 4278.47 180.507  10
   1   5   4 4524.12 279.082   2
   1   5   4 4053.02 262.800   9
  -1  -5  -4 4244.13 179.792   8
  -1  -5  -4 4201.91 229.082   1
   1   5   4 4227.90 220.195   1
   1   5   5 114.191 66.5120   9
  -1  -5  -5 5.02523 37.0946   1
   1   5   5 4.42407 42.5253   1
  -1  -5  -5 37.5991 26.6725  10
  -1  -5  -5 27.9449 40.5521   5
   1   5   6 9.64929 50.0124   9
  -1  -5  -6 12.4259 46.5515   5
   1   5   6 65.8741 55.1821   1
  -1  -5  -6 21.4684 22.3230  10
  -1  -5  -6 53.8598 47.0672   1
   1   5   7 931.074 125.593   9
   1   5   7 1002.77 122.761   1
  -1  -5  -7 1017.18 134.528   1
  -1  -5  -7 809.497 114.357   5
   1   5   8-10.6069 48.6785   1
  -1  -5  -8 67.4895 20.7511  10
   1   5   8 3.38779 37.5612   9
  -1  -5  -8-20.2754 48.8985   5
  -1  -5  -8 9.22427 49.7029   1
  -1  -5  -9 199.585 33.5090  10
  -1  -5  -9 341.243 95.8320   5
   1   5   9 277.060 72.0103   9
  -1  -5  -9 235.759 76.6746   1
   1   5   9 315.282 88.1577   1
  -1  -5 -10 1989.14 208.565   5
  -1  -5 -10 1234.68 82.5584  10
   1   5  10 1742.19 197.457   1
   1   5  10 1857.08 170.496   9
  -1  -5 -10 1860.95 209.260   1
  -1  -5 -11 1696.09 194.204   5
  -1  -5 -11 1498.38 97.7750  10
   1   5  11 1910.15 214.765   1
   1   5  11 1864.12 166.586   9
   1   5  12 980.785 122.680   9
  -1  -5 -12 1219.79 179.937   5
  -1  -5 -12 785.867 79.6279  10
  -1  -5 -12 1119.05 164.182   3
   1   5  12 878.629 159.733   1
  -1  -5 -13 2675.27 154.863  10
   1   5  13 3610.71 318.911   1
   1   5  13 3494.76 222.174   9
  -1  -5 -13 3767.34 305.119   3
  -1  -5 -13 3302.67 307.140   5
  -1  -5 -14 368.131 65.2005  10
   1   5  14 384.534 80.5800   9
  -1  -5 -14 219.108 80.3722   5
   1   5  14 369.135 117.604   1
   1   5  15 288.969 126.521   1
  -1  -5 -15 430.680 124.356   5
  -1  -5 -15 303.937 70.5020  10
   1   5  16 1615.62 240.662   1
  -1  -5 -16 1216.76 129.499  10
  -1  -5 -16 1449.68 236.345   5
  -1  -5 -17 405.428 144.513   5
   1   5  17 90.6197 70.6727   1
   1   5  18-24.5652 72.0823   1
  -1  -5 -18 103.579 93.5363   5
   1   5  19-24.2949 80.4391   1
  -1  -5 -19 133.121 119.435   5
  -1  -6  14 163.076 92.7817   3
  -1  -6  13 859.442 194.081   3
   1   6 -13 887.542 161.264   4
   1   6 -13 965.498 221.465  10
   1   6 -13 785.588 213.665  11
   1   6 -12 582.619 185.499  11
   1   6 -12 1010.10 226.294  10
   1   6 -12 490.174 101.498   5
  -1  -6  12 419.053 146.380   3
   1   6 -11 76.7921 43.6973   5
   1   6 -11 156.255 108.897  11
   1   6 -11 241.107 133.236  10
  -1  -6  11 142.514 93.4806   3
   1   6 -10 169.923 65.4963   5
   1   6 -10 227.991 116.206  11
   1   6 -10 160.557 110.714  10
  -1  -6  10 386.205 91.1581   2
  -1  -6  10 51.8845 88.6717   3
   1   6  -9 56.9441 48.4655   7
  -1  -6   9 144.369 68.0812   2
   1   6  -9 172.334 100.537  11
  -1  -6   9 150.569 90.5702   3
   1   6  -9 51.0133 67.7469  10
   1   6  -9 136.205 58.4220   5
   1   6  -8 1432.27 131.825   5
   1   6  -8 1411.98 213.408  10
   1   6  -8 1529.15 240.226  11
   1   6  -8 1559.25 179.072   7
  -1  -6   8 1603.84 191.179   2
  -1  -6   8 1548.98 217.078   3
   1   6  -7 5848.29 430.473  11
   1   6  -7 5845.81 415.358  10
   1   6  -7 6076.84 391.696   3
  -1  -6   7 5451.82 365.275   3
  -1  -6   7 6038.50 357.245   2
   1   6  -7 5609.91 239.290   5
   1   6  -7 5861.58 336.409   7
   1   6  -6 4737.60 191.051   6
   1   6  -6 4612.93 371.986  11
   1   6  -6 4982.94 365.611  10
   1   6  -6 4917.62 332.864   3
  -1  -6   6 4653.26 327.200   3
  -1  -6   6 4823.99 322.470   2
   1   6  -6 5060.31 202.321   5
   1   6  -6 5192.11 294.233   7
   1   6  -5 10974.9 546.320  11
   1   6  -5 9455.71 231.525   6
  -1  -6   5 10836.5 478.907   2
   1   6  -5 9637.68 488.315  10
   1   6  -5 10143.0 465.214   3
  -1  -6   5 9694.19 451.201   3
  -1  -6   5 10228.7 532.250  10
   1   6  -5 9678.27 373.341   7
   1   6  -5 9687.15 240.637   5
  -1  -6   4 21897.7 738.899  10
   1   6  -4 20550.5 719.265  11
  -1  -6   4 21121.8 666.099   2
  -1  -6   4 19528.4 615.566   3
   1   6  -4 21377.6 644.893   3
   1   6  -4 20159.5 672.409  10
   1   6  -4 20630.9 509.557   7
   1   6  -4 18498.2 264.283   5
  -1  -6   3 6475.86 367.500   2
   1   6  -3 6458.42 402.115  11
   1   6  -3 6421.99 263.556   7
  -1  -6   3 6321.32 335.844   3
  -1  -6   3 6663.73 394.495  10
   1   6  -3 6366.63 359.677  10
   1   6  -3 6570.22 344.376   3
  -1  -6   3 6207.23 397.024  11
  -1  -6   2 284.152 82.3982   2
   1   6  -2 278.336 55.8610   7
  -1  -6   2 224.423 78.9368  11
   1   6  -2 206.663 87.9241  11
   1   6  -2 192.440 72.3634  10
   1   6  -2 206.777 33.2444   8
  -1  -6   2 178.928 65.4473   1
  -1  -6   2 120.645 64.2986  10
   1   6  -2 231.138 70.1476   3
  -1  -6   2 250.079 83.9356   3
   1   6  -1 52.3168 23.4437   7
  -1  -6   1 42.9958 47.1656   2
   1   6  -1 50.2455 54.6940  11
  -1  -6   1 79.3139 39.3309   1
   1   6  -1 171.387 74.5112  10
  -1  -6   1 102.362 41.7597   4
   1   6  -1 51.1022 13.4830   8
  -1  -6   1 159.359 74.1528  10
  -1  -6   1 80.4270 49.4670   3
  -1  -6   1 282.544 77.3988   7
  -1  -6   0 2723.09 146.963   7
  -1  -6   0 2622.40 198.175   1
  -1  -6   0 2691.93 211.348  10
   1   6   0 2638.49 232.486   9
  -1  -6   0 2618.97 201.587   3
  -1  -6   0 2680.86 242.602   2
   1   6   0 2634.24 245.516  11
   1   6   1 408.280 123.064   9
  -1  -6  -1 236.840 77.7691   2
  -1  -6  -1 252.549 66.0926  10
  -1  -6  -1 69.3283 50.8491   3
   1   6   1 281.476 88.3895  11
  -1  -6  -1 235.242 50.7355   7
  -1  -6  -1 230.659 58.1373   1
  -1  -6  -2 6069.79 204.620   7
  -1  -6  -2 5948.85 286.018   3
  -1  -6  -2 6215.90 293.824  10
   1   6   2 6098.08 356.403   9
  -1  -6  -2 6214.64 289.933   1
   1   6   2 6201.38 357.240  11
  -1  -6  -3 844.454 83.1894   8
   1   6   3 1154.26 170.542   9
  -1  -6  -3 828.216 107.061   3
  -1  -6  -3 812.149 110.434   1
  -1  -6  -3 1294.87 145.640  10
   1   6   3 740.815 114.547   1
  -1  -6  -3 772.667 68.8643   7
  -1  -6  -4 17247.1 412.172  10
  -1  -6  -4 15707.3 353.251   8
   1   6   4 15400.6 557.322   9
  -1  -6  -4 16056.3 492.262   1
   1   6   4 16625.6 482.675   1
  -1  -6  -4 15754.2 357.812   7
  -1  -6  -5 243.831 71.0106   1
  -1  -6  -5 416.768 101.908   2
  -1  -6  -5 270.428 60.4491   8
   1   6   5 332.117 68.5387   1
   1   6   5 324.072 92.3471   9
  -1  -6  -5 317.414 57.6884  10
  -1  -6  -6 5163.14 297.134   1
  -1  -6  -6 4456.48 239.090   5
  -1  -6  -6 4677.08 172.433  10
   1   6   6 4647.98 301.067   9
  -1  -6  -6 4591.56 235.024   8
  -1  -6  -6 4948.03 318.894   2
   1   6   6 4576.87 266.324   1
  -1  -6  -7 6324.49 342.155   1
  -1  -6  -7 6098.27 368.838  11
  -1  -6  -7 5280.32 280.829   5
  -1  -6  -7 5543.35 338.749   2
   1   6   7 5856.22 321.009   1
  -1  -6  -7 4311.02 152.670  10
  -1  -6  -7 5318.93 267.499   8
   1   6   7 5693.67 331.385   9
  -1  -6  -8 798.526 125.450   5
  -1  -6  -8 1156.13 159.250   2
   1   6   8 777.693 131.824   9
  -1  -6  -8 1017.15 151.203   1
   1   6   8 842.247 133.160   1
  -1  -6  -9 1145.10 150.873   5
  -1  -6  -9 1430.41 177.504   2
   1   6   9 1118.20 145.058   9
  -1  -6  -9 1283.94 175.026   1
   1   6   9 1262.40 169.919   1
  -1  -6 -10 1061.93 156.893   5
   1   6  10 1173.65 150.666   9
  -1  -6 -10 1124.98 156.867   2
   1   6  10 936.211 151.579   1
  -1  -6 -10 1036.15 161.010   1
  -1  -6 -11 1662.22 196.315   5
   1   6  11 1836.32 211.964   1
   1   6  11 1709.66 181.337   9
  -1  -6 -11 1695.09 191.737   2
  -1  -6 -11 1957.75 232.650   1
  -1  -6 -12 236.283 92.9936   1
   1   6  12 175.609 71.4112   9
  -1  -6 -12 158.323 66.5487   2
  -1  -6 -12 47.5458 58.3793   5
   1   6  12 213.307 91.3153   1
  -1  -6 -13-51.5531 80.4971   5
   1   6  13 113.945 67.5502   9
   1   6  13 68.1654 80.6034   1
  -1  -6 -13 30.9563 43.7139   2
  -1  -6 -14 3934.81 290.406   2
   1   6  14 3815.13 265.465   9
  -1  -6 -14 3791.25 340.920   5
   1   6  14 3969.96 349.289   1
  -1  -6 -15 1384.35 177.394   2
   1   6  15 1382.04 209.744   1
  -1  -6 -15 1603.24 227.643   5
   1   6  15 1497.39 163.346   9
  -1  -6 -16 90.9814 100.452   5
   1   6  16-82.8216 100.517   1
  -1  -6 -17 901.318 189.210   5
   1   6  17 802.734 185.105   1
   1   6  18 508.555 140.836   1
  -1  -6 -18 792.396 192.355   5
   1   6  19 372.660 155.815   1
  -1  -7  12 140.040 123.309   3
   1   7 -11 310.275 163.154  10
   1   7 -11 83.7636 104.910  11
  -1  -7  11 149.895 96.2110   3
   1   7 -10 10.0478 91.0868  11
  -1  -7  10 13.9094 72.0327   3
   1   7 -10 59.3632 77.4601  10
   1   7  -9 11.9535 36.3157   5
   1   7  -9 24.1619 82.6570  10
   1   7  -9-49.6632 102.428  11
   1   7  -9 46.5615 46.2097   7
  -1  -7   9 88.4947 85.4126   3
   1   7  -8 125.246 113.104  11
   1   7  -8 220.548 52.5220   5
   1   7  -8 75.1417 47.7816   7
  -1  -7   8 189.794 85.5421   2
   1   7  -8 125.562 79.4040  10
  -1  -7   8 268.459 112.140   3
   1   7  -7 855.447 84.2001   6
   1   7  -7 924.544 88.2565   5
   1   7  -7 1054.18 192.537  10
  -1  -7   7 989.580 164.266   2
  -1  -7   7 641.006 154.820   3
   1   7  -7 830.555 178.544  11
   1   7  -7 767.818 123.088   7
   1   7  -6 9384.34 557.594  11
   1   7  -6 8529.72 225.070   5
  -1  -7   6 9278.43 483.848   2
   1   7  -6 9293.99 527.633  10
  -1  -7   6 8634.02 474.162   3
   1   7  -6 9286.01 393.401   7
   1   7  -5 1974.61 244.952  11
   1   7  -5 1992.04 219.409   3
   1   7  -5 2145.71 245.381  10
  -1  -7   5 1917.49 222.072   2
   1   7  -5 1934.79 168.640   7
  -1  -7   5 1785.25 211.491   3
  -1  -7   4 304.344 129.180  10
   1   7  -4 374.039 112.135  10
   1   7  -4 305.088 52.2747   8
  -1  -7   4 211.516 90.6424   2
   1   7  -4 384.279 111.974  11
  -1  -7   4 259.280 99.6914   1
  -1  -7   4 368.024 106.771   3
   1   7  -4 284.763 87.9979   3
   1   7  -4 356.079 77.3944   7
  -1  -7   3 3156.68 279.785   2
   1   7  -3 2837.76 288.220  11
  -1  -7   3 3000.43 284.372  10
  -1  -7   3 2820.85 245.260   3
   1   7  -3 3117.30 259.136   3
   1   7  -3 2817.89 137.322   8
  -1  -7   3 2712.55 247.844   1
   1   7  -3 2863.00 262.076  10
   1   7  -3 3322.92 190.007   7
  -1  -7   2 2506.23 248.755  10
   1   7  -2 2856.48 275.307  11
  -1  -7   2 2445.35 246.496   2
   1   7  -2 2496.46 148.305   7
   1   7  -2 2286.17 216.982  10
  -1  -7   2 2395.62 217.518   1
  -1  -7   2 2406.44 225.541   3
   1   7  -2 2210.65 106.432   8
   1   7  -1 3775.51 123.928   8
  -1  -7   1 3991.34 202.698   4
  -1  -7   1 3929.74 296.437  10
  -1  -7   1 4258.74 280.275   1
   1   7  -1 4260.63 335.204  11
  -1  -7   1 4308.58 329.767   2
  -1  -7   1 4201.68 283.055   3
  -1  -7   1 4479.99 346.348  11
  -1  -7   0 473.596 119.126   2
  -1  -7   0 260.273 47.5562   4
   1   7   0 248.414 94.0711   9
  -1  -7   0 528.490 122.229  10
  -1  -7   0 299.476 86.0915   1
  -1  -7   0 242.170 80.6954   3
  -1  -7   0 253.036 47.0896   7
  -1  -7   0 199.439 83.1562  11
   1   7   0 211.306 84.7875  11
  -1  -7  -1 1331.87 151.633   3
  -1  -7  -1 1224.16 139.099   1
   1   7   1 1331.85 188.554  11
  -1  -7  -1 1524.42 198.059   2
  -1  -7  -1 1571.88 199.828  11
   1   7   1 1652.23 206.370   9
  -1  -7  -1 1410.10 157.432  10
  -1  -7  -1 1473.90 98.6224   7
  -1  -7  -2 186.445 33.0502   6
  -1  -7  -2 45.7915 53.0461   3
   1   7   2 607.698 148.755   9
  -1  -7  -2 344.767 136.210  11
  -1  -7  -2 317.777 108.158   2
  -1  -7  -2 408.155 99.4282  10
  -1  -7  -2 377.004 68.4699   7
  -1  -7  -2 81.5917 84.3745   1
  -1  -7  -3 7999.70 366.653   3
  -1  -7  -3 7834.97 337.283  10
  -1  -7  -3 7691.44 428.761   2
  -1  -7  -3 8794.05 468.903  11
  -1  -7  -3 8137.02 236.033   7
   1   7   3 8430.40 445.243   9
  -1  -7  -3 8251.87 383.676   1
  -1  -7  -4 4206.56 232.994  10
  -1  -7  -4 4040.90 314.867   2
  -1  -7  -4 3360.32 238.351   3
   1   7   4 4320.63 281.575   1
   1   7   4 4149.98 318.796   9
  -1  -7  -4 3719.28 185.516   8
  -1  -7  -4 3729.55 167.321   7
  -1  -7  -4 4299.39 326.682  11
  -1  -7  -4 4187.73 275.658   1
  -1  -7  -5 8173.86 448.469  11
  -1  -7  -5 7594.14 279.281  10
   1   7   5 7492.98 361.945   1
  -1  -7  -5 7556.68 434.552   2
   1   7   5 6782.81 396.654   9
  -1  -7  -5 7085.32 271.810   8
  -1  -7  -5 7568.96 378.269   1
  -1  -7  -5 7247.70 252.145   7
   1   7   6 1415.91 161.195   1
  -1  -7  -6 1806.99 215.125   2
  -1  -7  -6 1577.17 111.284  10
  -1  -7  -6 1837.34 214.392  11
   1   7   6 1427.78 185.789   9
  -1  -7  -6 1504.06 137.954   8
  -1  -7  -6 1732.42 180.988   1
  -1  -7  -7 1262.04 171.392   1
   1   7   7 1512.90 174.888   1
   1   7   7 1309.19 179.438   9
  -1  -7  -7 1420.77 192.075  11
  -1  -7  -7 1320.38 84.6887  10
  -1  -7  -7 1288.19 139.636   8
  -1  -7  -7 1420.73 188.144   2
  -1  -7  -8 432.047 91.5640   8
   1   7   8 504.710 111.901   1
   1   7   8 302.464 92.5859   9
  -1  -7  -8 503.676 111.337   2
  -1  -7  -8 446.489 105.505   1
  -1  -7  -9 2309.30 240.014   1
   1   7   9 1934.34 212.811   1
   1   7   9 1752.84 208.139   9
  -1  -7  -9 1714.22 187.544   5
  -1  -7  -9 1908.55 187.087   8
  -1  -7  -9 2174.61 232.216   2
   1   7  10 584.821 115.473   9
   1   7  10 436.532 109.053   1
  -1  -7 -10 470.349 113.948   5
  -1  -7 -10 586.067 146.587   1
  -1  -7 -10 696.041 134.612   2
  -1  -7 -10 530.673 105.668   8
  -1  -7 -11 101.997 73.9438   8
   1   7  11 128.873 77.3216   9
  -1  -7 -11 110.404 74.8070   5
  -1  -7 -11 207.087 84.2011   2
  -1  -7 -11 143.003 75.6205   1
   1   7  11 83.1511 63.7132   1
  -1  -7 -12 271.624 90.5396   2
   1   7  12 71.8968 53.6682   9
   1   7  12 314.452 107.868   1
  -1  -7 -12 279.482 110.457   5
  -1  -7 -13 529.398 118.642   5
   1   7  13 726.379 160.285   1
  -1  -7 -13 575.875 126.588   2
   1   7  13 516.600 113.385   9
   1   7  14 520.186 115.487   9
  -1  -7 -14 453.461 132.897   5
  -1  -7 -14 575.900 131.358   2
   1   7  14 535.764 143.900   1
   1   7  15 72.8288 83.4659   1
  -1  -7 -15 103.603 82.5343   5
   1   7  15 73.2874 65.9240   9
  -1  -7 -16 297.856 127.250   5
   1   7  16 213.005 81.6292   9
   1   7  16 181.588 110.225   1
  -1  -7 -17 54.3993 71.2850   5
   1   7  17 216.699 102.146   1
  -1  -7 -18 447.985 153.281   5
   1   7  18 678.854 179.006   1
  -1  -8  11 133.199 93.2885   3
  -1  -8  10 465.313 164.446   3
   1   8  -9 871.308 209.517  10
   1   8  -9 433.206 172.432  11
  -1  -8   9 416.146 149.815   3
   1   8  -8 100.949 107.173  10
   1   8  -8-49.5835 70.2575  11
  -1  -8   8 131.476 98.8250   3
   1   8  -7 709.182 180.204  11
   1   8  -7 789.338 173.600  10
  -1  -8   7 582.429 142.422   3
   1   8  -6-15.2803 78.8244  11
   1   8  -6 176.393 124.181  10
  -1  -8   6-109.928 90.0119   3
   1   8  -5 812.326 173.742  11
   1   8  -5 1034.23 188.750  10
  -1  -8   5 1155.21 185.874   3
   1   8  -5 1015.18 122.921   7
   1   8  -4 12.9880 26.2746   7
   1   8  -4 100.356 81.2469  11
   1   8  -4 112.620 86.0725  10
   1   8  -4 68.8907 26.1833   8
  -1  -8   4-81.9798 90.6893   3
   1   8  -3 158.564 44.4132   7
   1   8  -3 196.637 34.6202   8
  -1  -8   3 83.4068 61.8586   3
  -1  -8   3 212.804 84.1520   1
   1   8  -3 186.627 90.1984  10
   1   8  -3 309.272 105.211  11
  -1  -8   2 11.2975 53.0695   1
   1   8  -2 37.8538 22.8649   8
  -1  -8   2-65.6605 72.2540  10
   1   8  -2-79.6281 92.7589  11
  -1  -8   2-2.85865 56.6069   3
  -1  -8   1 1316.60 185.586   3
  -1  -8   1 1444.17 175.515   1
  -1  -8   1 1443.94 134.632   4
  -1  -8   1 1418.31 192.769  10
   1   8  -1 1556.98 215.885  11
  -1  -8   0 2002.10 214.913   3
  -1  -8   0 1908.03 214.801   1
   1   8   0 1872.52 241.256  11
  -1  -8   0 1789.21 147.693   4
  -1  -8   0 2106.70 218.670  10
   1   8   1 69.5010 66.9773  11
  -1  -8  -1 35.3892 48.2872   1
  -1  -8  -1 89.2562 75.4066   3
   1   8   1-24.7657 75.9203   9
  -1  -8  -1 37.5150 53.9144  10
  -1  -8  -2 385.387 81.1892  10
   1   8   2 587.099 145.639   9
  -1  -8  -2 325.692 89.5320   3
  -1  -8  -2 264.027 31.1905   7
  -1  -8  -2 246.866 77.9922   1
  -1  -8  -3 140.068 41.6875   6
  -1  -8  -3 251.463 136.911   3
  -1  -8  -3 262.696 84.8419  10
  -1  -8  -3 298.925 148.494   1
  -1  -8  -3 638.771 68.2736   7
  -1  -8  -4 10559.5 388.477  10
  -1  -8  -4 11237.1 483.113   1
   1   8   4 10318.6 532.474   9
  -1  -8  -4 10626.4 467.554   3
  -1  -8  -4 10774.6 259.823   7
  -1  -8  -5 1034.80 125.384  10
  -1  -8  -5 1041.80 148.589   1
  -1  -8  -5 545.801 91.0839   3
  -1  -8  -5 707.198 97.3412   8
  -1  -8  -5 843.888 79.9780   7
   1   8   5 657.930 150.170   9
   1   8   5 610.555 121.662   1
   1   8   6 944.840 146.103   1
  -1  -8  -6 862.687 110.344   8
  -1  -8  -6 1103.44 100.153   7
  -1  -8  -6 1171.65 163.596   1
  -1  -8  -6 1240.10 113.084  10
   1   8   6 1081.53 184.004   9
  -1  -8  -7 1428.79 188.927   1
  -1  -8  -7 1435.27 98.1690  10
   1   8   7 1370.46 180.411   1
   1   8   7 1276.33 187.465   9
  -1  -8  -7 1192.74 134.773   8
   1   8   8 902.684 163.174   9
  -1  -8  -8 1093.09 132.211   8
   1   8   8 974.912 156.051   1
  -1  -8  -8 1063.97 168.801   1
   1   8   9 1069.99 174.224   9
   1   8   9 1107.07 174.094   1
  -1  -8  -9 1191.30 155.367   8
  -1  -8  -9 1165.47 174.125   1
  -1  -8 -10 785.617 133.656   8
   1   8  10 796.147 157.866   9
   1   8  10 858.680 157.262   1
   1   8  11 1153.45 186.174   1
   1   8  11 1348.81 209.642   9
  -1  -8 -11 903.820 151.539   8
   1   8  12 12.4506 65.4228   1
   1   8  12 83.8105 68.5114   9
  -1  -8 -12 41.1871 67.1417   8
  -1  -8 -13 590.667 148.437   8
  -1  -8 -13 588.149 137.843   5
   1   8  13 757.754 151.388   9
   1   8  13 678.809 157.350   1
   1   8  14 2005.48 234.961   9
  -1  -8 -14 2215.33 265.085   8
  -1  -8 -14 1814.36 242.739   5
   1   8  14 2134.12 276.957   1
  -1  -8 -15 1300.72 210.399   8
   1   8  15 1117.83 171.405   9
   1   8  15 1298.28 225.392   1
  -1  -8 -15 1221.79 215.647   5
  -1  -8 -16 1093.91 208.147   5
   1   8  16 787.535 158.567   9
  -1  -8 -16 893.880 196.016   8
   1   8  16 716.123 178.447   1
  -1  -8 -17 157.331 120.719   5
  -1  -8 -17 417.483 154.375   8
   1   8  17 29.8657 97.9785   1
  -1  -8 -18 369.843 129.817   5
  -1  -8 -18 79.1471 87.5563   8
  -1  -9   9 262.204 118.995   3
   1   9  -8 89.5547 85.8450  10
  -1  -9   8-66.6903 90.4867   3
   1   9  -7 877.789 203.449  11
   1   9  -7 1024.80 216.456  10
  -1  -9   7 872.598 193.796   3
   1   9  -6 344.021 134.120  11
  -1  -9   6 289.117 111.453   3
   1   9  -5 2001.98 293.535  11
  -1  -9   5 2179.34 266.657   3
   1   9  -4 157.300 108.605  11
  -1  -9   4 173.160 75.2748   3
   1   9  -3 1174.83 211.067  11
  -1  -9   3 825.318 152.733   3
  -1  -9   2 652.981 151.177   3
   1   9  -2 708.464 165.697  11
   1   9  -1 801.574 165.441  11
  -1  -9   1 644.563 98.5863   4
  -1  -9   1 663.408 144.452   3
  -1  -9   0 55.1019 39.7054   4
   1   9   0 108.937 82.7487  11
  -1  -9   0 159.290 93.2580   3
  -1  -9   0 4.75369 63.9955  10
  -1  -9  -1 968.859 165.658   1
  -1  -9  -1 1080.81 178.149   3
   1   9   1 1014.08 191.793  11
  -1  -9  -1 1209.77 136.165   4
   1   9   1 1185.81 203.981   9
  -1  -9  -1 1020.18 144.869  10
  -1  -9  -2 238.691 45.4697  10
   1   9   2 596.481 137.579   9
  -1  -9  -2 598.772 130.425   3
  -1  -9  -2 414.242 94.9445   1
  -1  -9  -3 488.036 130.538   3
   1   9   3 587.267 150.554   9
  -1  -9  -3 315.585 107.456   1
  -1  -9  -3 294.200 73.5494  10
  -1  -9  -4 3188.29 150.524   6
   1   9   4 4060.02 366.443   9
  -1  -9  -4 3792.08 308.977   1
  -1  -9  -4 4105.09 258.604  10
  -1  -9  -4 3518.84 289.736   3
  -1  -9  -5 3041.25 273.613   3
   1   9   5 3508.55 339.180   9
  -1  -9  -5 3625.25 307.711   1
  -1  -9  -5 3024.21 118.201   7
  -1  -9  -5 3842.05 233.587  10
  -1  -9  -6 1798.18 110.843   7
   1   9   6 2255.02 274.393   9
  -1  -9  -6 1756.70 198.814   3
   1   9   6 2237.76 236.406   1
  -1  -9  -6 1936.89 161.801   8
  -1  -9  -6 2443.78 169.275  10
  -1  -9  -7 1460.08 106.165  10
  -1  -9  -7 1439.36 155.163   8
  -1  -9  -7 1147.35 172.502   3
   1   9   7 1482.09 221.392   9
   1   9   7 1505.61 194.618   1
  -1  -9  -7 1475.55 117.164   7
  -1  -9  -8 402.362 73.0863   7
   1   9   8 431.354 115.125   1
  -1  -9  -8 431.800 95.2894   8
   1   9   8 335.610 120.709   9
   1   9   9 420.302 128.668   9
  -1  -9  -9 439.449 97.8154   8
   1   9   9 456.759 129.661   1
  -1  -9 -10 1394.97 176.873   8
   1   9  10 1138.34 203.393   9
   1   9  10 1072.07 185.931   1
  -1  -9 -11 24.3265 56.8797   8
   1   9  11 122.744 94.8808   9
   1   9  11 75.8216 79.9626   1
   1   9  12 5.94789 75.4025   1
   1   9  12 131.259 73.7788   9
  -1  -9 -12-155.370 93.0829   8
   1   9  13 135.192 68.5399   9
  -1  -9 -13 199.008 94.6584   8
   1   9  13 197.260 108.699   1
  -1  -9 -14 2880.20 299.966   8
   1   9  14 3372.75 352.831   1
   1   9  14 3316.35 325.043   9
   1   9  15 293.565 129.272   1
  -1  -9 -15 95.0537 73.5928   8
   1   9  15 152.768 86.7632   9
   1   9  16 165.127 122.328   1
  -1  -9 -16 120.164 114.105   8
   1   9  16 59.1271 46.1156   9
  -1  -9 -17 315.362 133.656   8
  -1 -10   7 49.3158 84.5618   3
  -1 -10   6 477.669 149.988   3
  -1 -10   5 14.0068 73.2712   3
   1  10  -4 258.521 132.570  11
  -1 -10   4 67.1997 82.1308   3
  -1 -10   3 227.476 114.417   3
   1  10  -3 364.349 154.859  11
  -1 -10   2 4342.16 371.009   3
   1  10  -2 5124.06 461.050  11
  -1 -10   1 1924.10 251.914   3
   1  10  -1 1992.93 285.851  11
   1  10   0 306.650 124.253  11
  -1 -10   0 150.143 100.794   3
  -1 -10  -1 259.829 95.1132   3
  -1 -10  -2 597.069 144.671   3
   1  10   3 287.762 135.055   9
  -1 -10  -3 103.517 60.6142   3
   1  10   4 167.205 110.522   9
  -1 -10  -4 23.6879 55.2745   3
  -1 -10  -5 106.338 54.8312   3
   1  10   5 245.275 112.313   9
  -1 -10  -6 747.461 154.496   3
   1  10   6 981.789 208.766   9
   1  10   7 3334.85 351.858   9
  -1 -10  -7 4321.19 355.764   3
   1  10   8 207.080 101.959   1
  -1 -10  -8 41.2480 57.6513   8
   1  10   8 264.767 123.607   9
  -1 -10  -8 90.3920 66.6277   3
   1  10   9 553.046 151.076   9
  -1 -10  -9 970.999 141.742   8
   1  10   9 917.946 175.411   1
   1  10  10 1829.13 258.857   9
  -1 -10 -10 1819.09 200.072   8
   1  10  10 2415.10 276.474   1
   1  10  11 374.435 132.857   9
  -1 -10 -11 455.307 110.323   8
   1  10  11 410.569 138.296   1
  -1 -10 -12 169.063 79.9319   8
   1  10  12 211.648 88.4903   9
   1  10  12 178.882 106.329   1
   1  10  13-152.414 84.9117   9
  -1 -10 -13-11.2428 57.9300   8
   1  10  13-54.2407 71.2775   1
   1  10  14 74.6918 72.3705   9
   1  10  14 316.794 125.348   1
  -1 -10 -14 201.350 96.5874   8
   1  10  15 459.733 154.890   1
   1  10  15 516.453 144.066   9
  -1 -10 -15 421.321 118.719   8
  -1 -10 -16-156.260 100.866   8
  -1 -11   4 81.5856 64.3345   3
  -1 -11   3 99.6909 63.5298   3
  -1 -11   2 77.1072 70.8538   3
  -1 -11   1 46.2174 89.1887   3
  -1 -11   0 58.8782 77.6308   3
  -1 -11  -1 514.371 143.185   3
  -1 -11  -2 1175.21 195.230   3
  -1 -11  -3-13.4152 67.7639   3
  -1 -11  -4 11.2727 68.2457   3
   1  11   5 409.561 160.681   9
  -1 -11  -5 500.808 144.511   3
  -1 -11  -6-89.1522 89.6526   3
   1  11   6 129.884 131.866   9
  -1 -11  -7 155.889 98.1348   3
   1  11   7 41.8370 83.4117   9
   1  11   8 65.2036 93.2340   9
  -1 -11  -8 8.44740 64.0398   3
   1  11   9 2454.73 294.918   1
   1  11   9 2071.80 291.740   9
  -1 -11  -9 2656.20 297.189   3
   1  11  10 1450.20 229.877   1
  -1 -11 -10 1531.00 237.275   3
   1  11  10 1041.81 210.257   9
   1  11  11 367.093 116.544   9
   1  11  11 617.288 158.634   1
   1  11  12 1210.27 233.847   9
   1  11  12 782.220 184.880   1
   1  11  13 469.974 150.769   1
  -1 -12   0 44.9595 89.0892   3
  -1 -12  -1 52.9858 73.7423   3
  -1 -12  -2 158.938 100.660   3
  -1 -12  -3-197.742 103.270   3
  -1 -12  -4 549.243 149.729   3
  -1 -12  -5 1578.43 241.970   3
  -1 -12  -6 259.908 121.119   3
  -1 -12  -7 312.934 110.509   3
  -1 -12  -8 521.337 154.190   3
  -1 -12  -9 366.062 126.168   3
  -1 -12 -10-122.097 92.1596   3
   2 -10 -12 641.642 171.715   8
   2 -10 -11 420.142 130.957   8
   2 -10 -10-37.0696 79.6488   8
   2 -10  -9-25.8711 86.8485   8
   2 -10  -7-69.5585 58.9017   6
   2 -10  -6 205.230 89.4159   6
   2 -10  -5 336.665 107.774   6
   2 -10  -5 86.9805 92.9332   3
   2 -10  -4 3159.46 380.817   3
   2 -10  -3 452.025 164.936   3
   2 -10  -2 1542.62 260.577   3
  -2  10   0 320.470 100.401  10
  -2  10  -1 66.0675 59.7450  10
  -2  10  -2 485.943 179.534  11
  -2  10  -2 442.475 139.749  10
  -2  10  -3 270.441 141.084  10
  -2  10  -4-135.254 104.828  10
   2  -9 -13 104.796 94.9759   8
   2  -9 -12 890.747 200.291   8
  -2   9  11 4005.64 416.710   1
   2  -9 -11 3660.94 372.489   8
   2  -9 -10 180.992 124.904   8
  -2   9  10 98.0872 81.8367   1
  -2   9   9 686.633 166.837   1
   2  -9  -9 602.732 143.553   8
  -2   9   8 249.420 130.558   1
   2  -9  -8 272.321 121.681   8
  -2   9   7 124.504 87.6761   1
   2  -9  -7 56.4460 76.7413   3
   2  -9  -6 393.712 132.294   3
  -2   9   5 269.403 134.361   9
   2  -9  -5 633.372 135.802   6
   2  -9  -5 477.110 135.170   3
   2  -9  -4-26.9978 56.3291   6
  -2   9   4 34.3379 44.5756  10
  -2   9   4 189.617 148.028   9
   2  -9  -4-3.00387 94.1755   3
   2  -9  -3 787.183 140.776   6
  -2   9   3 880.327 137.777  10
   2  -9  -3 886.776 193.042   3
  -2   9   3 786.145 191.495   9
  -2   9   2 2004.89 216.082  10
   2  -9  -2 1835.23 216.817   6
  -2   9   2 1568.54 258.486   9
   2  -9  -2 1899.77 269.111   3
  -2   9   1 812.425 146.696  10
  -2   9   1 946.137 206.612   9
   2  -9  -1 1169.75 212.630   3
  -2   9   0-13.9650 46.1158  10
  -2   9   0 43.1000 101.855   9
   2  -9   0 118.961 116.822   3
  -2   9  -1 329.111 139.431  11
   2  -9   1 179.913 109.484   3
  -2   9  -1 31.5023 68.1901  10
  -2   9  -1 209.424 111.146   9
  -2   9  -2 153.335 116.973  11
  -2   9  -2 216.184 114.066   9
  -2   9  -2 111.565 72.8085  10
   2  -9   2 230.500 111.476   3
  -2   9  -3 308.555 116.768  11
  -2   9  -3 265.319 141.049  10
   2  -9   3 319.236 125.675   3
  -2   9  -3 238.982 125.979   9
  -2   9  -4 144.770 96.6939  11
  -2   9  -4 84.2710 85.5286  10
  -2   9  -4-64.0769 108.678   9
   2  -9   4 61.4138 69.3385   3
  -2   9  -5-50.2937 75.7416  10
  -2   9  -5 106.131 100.308   9
  -2   9  -5 92.9108 92.7318  11
  -2   9  -6 477.719 165.254  11
  -2   9  -6 236.013 119.116  10
  -2   9  -6 108.218 81.3451   9
  -2   9  -7 80.6345 99.4258   9
  -2   9  -8-153.690 101.000   9
   2  -8 -14 731.953 185.990   8
  -2   8  13 1235.31 245.285   1
   2  -8 -13 1721.19 268.307   8
   2  -8 -12 45.0590 95.4991   8
  -2   8  12 89.2389 93.8432   1
  -2   8  11 3934.63 393.123   1
   2  -8 -11 3360.86 350.433   8
  -2   8  10 5465.29 442.784   1
   2  -8 -10 4887.02 405.440   8
   2  -8  -9 203.659 104.470   8
  -2   8   9 493.901 147.457   1
  -2   8   8 62.9169 72.7582   1
   2  -8  -8 64.0937 76.0440   8
  -2   8   7 1369.27 231.988   1
   2  -8  -7 1027.65 169.576   8
   2  -8  -6 271.064 95.3951   8
  -2   8   6 183.305 45.0833  10
  -2   8   6 364.291 128.757   1
  -2   8   5 450.426 78.9202  10
  -2   8   5 549.059 119.273   5
   2  -8  -5 517.639 146.514   3
   2  -8  -4 64.3654 54.9722   6
  -2   8   4 37.7607 60.6049   5
   2  -8  -4-144.376 99.4674   3
  -2   8   4-63.5127 50.9641  10
   2  -8  -3 163.491 78.4586   3
  -2   8   3 192.192 74.4868   8
  -2   8   3 225.459 78.0089   5
  -2   8   3 300.516 70.8574  10
   2  -8  -3 161.614 65.2326   6
  -2   8   2 475.477 109.007   8
  -2   8   2 455.971 94.6755  10
   2  -8  -2 543.156 120.350   6
   2  -8  -2 430.193 145.062   3
   2  -8  -1-62.5212 75.4109   3
  -2   8   1-44.8858 74.6963  10
   2  -8  -1 22.2097 51.1462   6
  -2   8   1 16.2160 79.0872   9
  -2   8   1 9.82382 50.8742   8
  -2   8   0-152.662 118.019   9
  -2   8   0-18.9048 61.2790  10
  -2   8   0 48.7113 70.0617   8
   2  -8   0-39.9995 94.5221   3
  -2   8  -1 123.739 85.6677  11
  -2   8  -1-70.8293 63.3100   8
  -2   8  -1 97.4947 80.7126  10
  -2   8  -1-73.2572 75.8191   9
   2  -8   1 121.350 101.373   3
  -2   8  -2-23.5369 70.4019  11
   2  -8   2 29.5133 64.4391   3
  -2   8  -2 62.9559 92.6702   9
  -2   8  -2-100.729 78.8956  10
  -2   8  -3 4487.31 384.748  10
  -2   8  -3 4070.02 375.021  11
   2  -8   3 4060.29 396.669   3
  -2   8  -3 3725.01 365.893   9
  -2   8  -4 135.742 106.357  11
  -2   8  -4 92.9542 100.255  10
   2  -8   4-20.2023 86.5855   3
  -2   8  -4 2.97622 71.9855   9
  -2   8  -5 175.020 99.0268  11
  -2   8  -5 259.992 94.3017  10
  -2   8  -5 26.9723 67.3492   9
   2  -8   5 338.743 122.029   3
   2  -8   6 1577.99 261.925   3
  -2   8  -6 2171.94 302.648  10
  -2   8  -6 1697.18 244.729   9
  -2   8  -6 1891.92 284.957  11
  -2   8  -7 473.545 144.645   9
   2  -8   7 180.020 85.7945   3
  -2   8  -7 250.394 131.579  11
  -2   8  -7 183.618 109.790  10
  -2   8  -8 317.984 147.981  11
  -2   8  -8 222.342 128.166  10
  -2   8  -8 136.131 101.141   9
  -2   8  -9 268.954 144.806   9
   2  -7 -15 768.125 189.285   8
  -2   7  15 974.655 200.948   1
   2  -7 -14 2905.56 334.959   8
  -2   7  14 2915.32 364.669   1
   2  -7 -13 918.286 197.653   8
  -2   7  13 792.583 185.835   1
   2  -7 -12-56.2344 91.8783   8
   2  -7 -12 1.54369 50.3878   7
  -2   7  12 62.2013 79.1609   1
   2  -7 -11 39.3853 62.6431   7
  -2   7  11 133.587 110.707   1
   2  -7 -11-55.0608 70.9639   8
   2  -7 -10 388.371 102.554   8
  -2   7  10 411.977 140.706   1
   2  -7 -10 211.704 67.0657   7
   2  -7  -9 102.680 76.3442   8
  -2   7   9 235.874 113.818   1
   2  -7  -9 35.4691 38.1792   7
  -2   7   8 274.631 111.991   1
   2  -7  -8 456.242 127.413   8
   2  -7  -8 167.598 55.6429   7
   2  -7  -7 2651.09 281.318   8
   2  -7  -7 1821.31 133.351   7
  -2   7   7 2712.66 298.088   1
  -2   7   7 1559.95 91.2836  10
   2  -7  -7 2675.51 284.747  11
   2  -7  -6 615.577 63.6384   7
  -2   7   6 1078.12 97.5271  10
  -2   7   6 1246.80 175.483   5
  -2   7   6 1266.83 201.242   1
   2  -7  -6 1016.77 171.180   8
   2  -7  -6 1195.53 192.661  11
   2  -7  -5 4258.30 331.416  11
  -2   7   5 4283.37 322.688   8
  -2   7   5 3890.07 296.928   5
  -2   7   5 3864.06 217.040  10
   2  -7  -5 3909.30 306.701   8
  -2   7   5 4501.64 379.709   1
   2  -7  -4 42.0435 61.7014  11
  -2   7   4 54.8104 66.3257   8
   2  -7  -4-160.835 81.0780   3
  -2   7   4 13.5801 66.3446   5
  -2   7   4 50.5292 71.8642   1
  -2   7   4 17.8228 34.7819  10
   2  -7  -3 4685.60 348.525  11
  -2   7   3 4419.44 269.172  10
   2  -7  -3 4141.64 347.829   3
  -2   7   3 4403.72 312.107   8
   2  -7  -3 4191.62 294.043   6
   2  -7  -2 6374.64 355.535   6
  -2   7   2 6252.67 346.600  10
   2  -7  -2 7290.97 433.350  11
  -2   7   2 6237.22 373.078   8
   2  -7  -2 6664.31 436.636   3
  -2   7   1 612.119 124.327  10
   2  -7  -1 599.127 108.879   6
   2  -7  -1 496.932 114.234  11
   2  -7  -1 508.374 128.421   3
  -2   7   1 413.383 100.623   8
  -2   7   0 109.371 67.2304  11
   2  -7   0-100.554 91.5685   3
  -2   7   0-75.4289 73.5080   8
   2  -7   0 23.2151 65.5288  11
   2  -7   0 77.4220 68.2753   6
  -2   7   0 96.6255 56.5972  10
  -2   7  -1 268.530 109.382  11
  -2   7  -1 49.0010 52.8156   8
   2  -7   1 151.646 112.447   3
  -2   7  -1 206.177 73.8891  10
  -2   7  -2 925.351 188.248   9
  -2   7  -2 1056.14 164.984   8
  -2   7  -2 1038.82 179.729  11
  -2   7  -2 1262.86 188.684  10
   2  -7   2 1008.35 185.811   3
   2  -7   2 989.655 163.103  10
  -2   7  -3 819.924 165.833  10
  -2   7  -3 1114.67 188.708  11
  -2   7  -3 776.977 161.994   9
  -2   7  -3 809.581 146.215   8
   2  -7   3 845.379 171.122   3
  -2   7  -4 138.263 89.2952  11
   2  -7   4 57.9341 69.8020   3
  -2   7  -4 113.033 68.4230   8
  -2   7  -4-3.30162 72.0850   9
  -2   7  -4 107.251 102.581  10
  -2   7  -4 23.8591 10.9459   7
  -2   7  -4 4.48971 9.35591   7
  -2   7  -5 823.733 170.339   9
  -2   7  -5 1338.34 220.471  11
   2  -7   5 970.174 198.559   3
  -2   7  -5 1350.67 218.621  10
  -2   7  -6 572.465 172.685  11
  -2   7  -6 392.091 116.295   9
   2  -7   6 262.424 120.527   3
  -2   7  -6 452.867 136.288  10
  -2   7  -7 265.963 133.432  10
  -2   7  -7 329.990 115.220   9
   2  -7   7 263.305 121.221   3
  -2   7  -7 311.892 129.603  11
  -2   7  -8-18.8110 69.3675  11
  -2   7  -8-6.15096 79.4361  10
   2  -7   8 148.015 125.271   3
  -2   7  -9 135.578 82.2856  11
  -2   7  -9 23.2475 87.0944   9
   2  -7   9-17.5338 76.1550   3
  -2   7  -9-56.8155 100.764  10
  -2   7 -10 111.029 114.755  11
  -2   7 -10 232.739 114.060  10
   2  -6 -16-28.8721 106.859   8
  -2   6  16 35.9028 71.7124   1
   2  -6 -15 6.32853 95.4440   8
  -2   6  15 137.835 121.176   1
   2  -6 -14 11.9160 83.8169   8
  -2   6  14 93.1258 95.0396   1
   2  -6 -13 868.808 173.516   8
  -2   6  13 978.627 204.036   1
  -2   6  12 118.032 97.1264   1
   2  -6 -12 197.411 99.7700   8
   2  -6 -12 176.242 72.7539   7
  -2   6  11 174.888 92.2244   1
   2  -6 -11-74.1367 75.9248   8
   2  -6 -11 115.448 80.5197   7
  -2   6  10 1973.37 254.639   1
   2  -6 -10 1730.37 232.767   8
   2  -6 -10 1628.49 178.233   7
   2  -6  -9 299.735 103.456  11
  -2   6   9 233.616 99.0327   1
   2  -6  -9 276.329 110.491   8
   2  -6  -9 273.240 78.4774   7
   2  -6  -8 262.767 66.8046   7
  -2   6   8 59.6418 15.2593  10
  -2   6   8 28.5200 12.8659  10
   2  -6  -8 216.959 90.0672  11
  -2   6   8 178.077 71.4309   5
   2  -6  -8 43.1120 61.6045   8
  -2   6   8 57.8094 61.4465   1
  -2   6   7 446.968 54.5049  10
   2  -6  -7 755.462 145.098  11
  -2   6   7 583.411 136.413   5
  -2   6   7 704.131 150.254   1
   2  -6  -7 680.969 135.497   8
   2  -6  -7 588.199 91.7685   7
  -2   6   6 2544.21 244.822   5
  -2   6   6 2189.84 135.238  10
   2  -6  -6 2517.09 246.976   8
   2  -6  -6 1989.92 143.602   7
  -2   6   6 2440.60 254.941   1
   2  -6  -6 2416.46 239.557  11
  -2   6   5 1311.74 118.126  10
  -2   6   5 1446.84 179.385   5
   2  -6  -5 1242.26 176.764   8
  -2   6   5 1494.81 190.132   8
   2  -6  -5 946.301 87.6322   7
  -2   6   5 1602.83 209.886   1
   2  -6  -5 1651.27 197.327  11
   2  -6  -4 3566.01 285.066  11
  -2   6   4 3728.34 220.198  10
   2  -6  -4 3524.42 305.739   1
  -2   6   4 3720.96 285.922   8
   2  -6  -4 3026.86 263.221   8
  -2   6   4 3780.56 307.095   1
  -2   6   3 1556.36 179.177   8
  -2   6   3 1603.36 153.105  10
   2  -6  -3 1203.57 187.014   3
   2  -6  -3 1243.00 184.368   1
  -2   6   3 1503.54 193.027   1
   2  -6  -3 1573.68 184.592  11
   2  -6  -2 4943.09 299.688   6
   2  -6  -2 5533.12 349.052  11
  -2   6   2 5507.75 298.089  10
   2  -6  -2 5601.05 372.937   3
  -2   6   2 5608.21 337.509   8
   2  -6  -2 5444.27 375.983   1
   2  -6  -1 12154.3 467.963   6
  -2   6   1 12100.7 495.336   8
  -2   6   1 12092.3 474.450  10
   2  -6  -1 13092.8 574.358   1
   2  -6  -1 12128.7 555.994   3
   2  -6  -1 13113.9 533.242  11
   2  -6   0 2220.17 201.000   6
  -2   6   0 2112.08 218.082  10
   2  -6   0 1914.61 228.851   3
  -2   6   0 1816.37 194.540   8
   2  -6   0 1885.94 218.956  11
  -2   6   0 2048.35 222.299  11
   2  -6   0 2019.79 238.365   1
  -2   6  -1 709.571 134.401  11
   2  -6   1 556.242 118.260  11
   2  -6   1 726.938 148.973   3
  -2   6  -1 653.562 121.473   8
  -2   6  -1 571.204 128.359  10
   2  -6   2 2406.51 242.690  10
  -2   6  -2 2119.90 229.480  11
  -2   6  -2 2465.52 225.906   8
  -2   6  -2 2282.65 241.893  10
   2  -6   2 1945.70 216.386   4
   2  -6   2 2117.30 243.043   3
   2  -6   2 2167.92 237.569  11
  -2   6  -3 402.025 51.4596   7
  -2   6  -3 716.168 148.576  10
   2  -6   3 838.300 146.511   4
  -2   6  -3 733.604 64.4445   7
  -2   6  -3 762.585 143.366  11
  -2   6  -3 781.928 135.797   8
   2  -6   3 964.271 180.012   3
   2  -6   3 792.562 156.974  10
   2  -6   4 10.6716 62.1350   3
  -2   6  -4 31.5979 68.1421  10
   2  -6   4 75.9345 55.4053   4
  -2   6  -4 25.9470 63.9198   9
  -2   6  -4 76.7767 66.4527   8
  -2   6  -4 31.6445 34.6536   7
   2  -6   4-23.2207 56.4891  10
  -2   6  -4-17.6423 57.0730  11
  -2   6  -5-71.5951 81.0128  11
  -2   6  -5 80.2378 74.8788  10
  -2   6  -5 44.9803 56.0177   9
  -2   6  -5-27.2759 65.7888   8
   2  -6   5 182.007 83.2879   3
  -2   6  -5 100.067 42.9521   7
  -2   6  -6 8.11854 65.0893   9
   2  -6   6-30.9824 64.5428   3
  -2   6  -6-16.7415 35.4191   7
  -2   6  -6-60.8527 80.1038  11
  -2   6  -7-3.98476 50.7467   6
  -2   6  -7 34.2398 67.4729  11
  -2   6  -7 34.3663 93.3531  10
  -2   6  -7-21.8446 57.1318   9
   2  -6   7 24.5935 81.0118   3
  -2   6  -7 52.2124 31.7834   7
  -2   6  -8 213.714 109.280  11
  -2   6  -8 152.645 85.2079  10
  -2   6  -8 93.7217 56.9720   6
  -2   6  -8 92.1722 62.8836   9
   2  -6   8 64.8842 98.0183   3
  -2   6  -8 141.103 61.8166   7
  -2   6  -9 1401.49 226.950  11
  -2   6  -9 1351.34 234.619  10
  -2   6  -9 1433.87 195.275   9
   2  -6   9 1535.48 237.427   3
  -2   6 -10 1423.40 249.477  11
  -2   6 -10 1632.75 267.780  10
   2  -6  10 1536.60 254.010   3
  -2   6 -10 1236.94 179.436   9
  -2   6 -11 79.6906 100.266  11
  -2   6 -11 256.900 138.431  10
   2  -6  11 117.422 102.378   3
  -2   6 -12 87.4160 104.184  11
  -2   5  17 191.038 90.0931   1
   2  -5 -17 429.158 153.366   8
  -2   5  16 58.2541 95.0232   1
   2  -5 -16 40.3039 73.9321   8
  -2   5  15 203.862 106.605   1
   2  -5 -15 182.496 113.161   8
   2  -5 -14 429.080 133.798   8
  -2   5  14 424.584 130.655   1
   2  -5 -14 179.501 63.8737   2
   2  -5 -13 151.402 103.660   8
  -2   5  13 144.419 28.7018  10
  -2   5  13 222.319 108.183   1
  -2   5  12 337.996 38.3862  10
   2  -5 -12 453.853 126.118   8
  -2   5  12 294.725 118.305   1
   2  -5 -12 357.945 102.939   7
  -2   5  11 28.1779 16.7166  10
   2  -5 -11-13.7775 72.4891   8
  -2   5  11 19.1946 69.7932   1
   2  -5 -11 113.879 64.1406   7
  -2   5  10 6250.70 160.777  10
   2  -5 -10 6901.61 443.174   8
   2  -5 -10 6425.08 362.138   7
  -2   5  10 6922.11 443.513   1
  -2   5   9 866.345 156.574   5
  -2   5   9 749.063 157.870   1
  -2   5   9 442.394 45.3107  10
   2  -5  -9 896.892 155.996   8
  -2   5   9 724.539 61.4753  10
   2  -5  -9 798.542 124.450   7
   2  -5  -8 4737.56 354.054   1
  -2   5   8 4661.91 338.365   5
  -2   5   8 4288.29 338.671   1
  -2   5   8 4013.96 151.032  10
   2  -5  -8 4370.12 328.377   8
   2  -5  -8 4168.10 260.305   7
  -2   5   7 23029.6 394.113  10
  -2   5   7 24006.1 736.295   5
   2  -5  -7 22708.5 728.786   8
   2  -5  -7 22325.1 554.914   7
   2  -5  -7 25070.8 778.080   1
  -2   5   7 24482.0 758.711   1
   2  -5  -7 23399.7 682.594  11
   2  -5  -6 32.2853 51.7392  11
   2  -5  -6 43.6741 59.1641   1
  -2   5   6 3.37267 43.9446   5
   2  -5  -6-58.8369 61.0786   8
  -2   5   6-10.7877 25.8531  10
  -2   5   6-18.8068 68.8969   1
   2  -5  -6 5.15790 37.3829   7
   2  -5  -5 536.536 109.400  11
  -2   5   5 505.560 108.424   5
   2  -5  -5 414.253 104.659   1
  -2   5   5 728.261 83.7879  10
  -2   5   5 535.378 120.601   1
   2  -5  -5 503.210 106.924   8
  -2   5   5 436.624 105.840   8
   2  -5  -5 449.564 70.6691   7
   2  -5  -4 533.776 70.5994   7
   2  -5  -4 722.163 124.709  11
   2  -5  -4 572.551 123.278   1
  -2   5   4 724.485 133.173   8
   2  -5  -4 607.939 118.909   8
  -2   5   4 670.640 131.818   1
  -2   5   4 667.223 91.1542  10
   2  -5  -3 2521.89 240.776   1
  -2   5   3 2608.66 184.918  10
  -2   5   3 2776.70 226.218   8
   2  -5  -3 2458.65 227.587   8
  -2   5   3 2866.39 247.014   1
   2  -5  -3 2835.83 224.776  11
   2  -5  -2 192.505 66.9226   1
  -2   5   2 294.300 69.3775  10
  -2   5   2 301.162 82.4997   8
   2  -5  -2 150.174 85.5417   3
   2  -5  -2 248.600 78.4135  11
   2  -5  -1 927.494 132.951  11
  -2   5   1 956.820 139.081   8
   2  -5  -1 1086.13 158.305   1
   2  -5  -1 1248.66 171.098   3
  -2   5   1 1120.69 135.589  10
  -2   5   1 939.341 58.5698   7
   2  -5  -1 1112.04 147.360   6
  -2   5   0 941.665 61.7518   7
   2  -5   0 1396.64 158.818   6
  -2   5   0 1028.02 141.776  11
   2  -5   0 1134.57 163.159   3
   2  -5   0 1421.20 184.783   1
  -2   5   0 1071.27 146.314  10
   2  -5   0 1178.91 156.333  11
  -2   5   0 1271.74 150.935   8
  -2   5  -1 322.316 87.6453  11
  -2   5  -1 183.148 70.7391  10
   2  -5   1 296.764 82.6856   6
   2  -5   1 299.372 92.3566  11
   2  -5   1 179.588 86.0376   3
  -2   5  -1 160.994 60.9762   8
   2  -5   1 230.483 87.2817   1
  -2   5  -1 149.213 31.7790   7
   2  -5   2 1651.31 191.180  10
  -2   5  -2 1595.60 177.902   8
  -2   5  -2 1697.03 184.761  11
   2  -5   2 1937.65 203.353   4
  -2   5  -2 1645.74 198.639  10
   2  -5   2 1659.87 206.832   1
   2  -5   2 1608.81 187.896  11
   2  -5   2 1758.83 207.483   3
  -2   5  -2 1175.64 88.5932   7
  -2   5  -3 64.0301 53.7869  11
   2  -5   3 105.042 56.0520  10
   2  -5   3 49.0909 62.6763   4
  -2   5  -3 31.0705 71.2825  10
   2  -5   3 28.7410 61.0659   3
  -2   5  -3 1.38393 52.4756   8
   2  -5   3 21.0829 45.2081   1
  -2   5  -4 688.050 139.585   3
  -2   5  -4 698.115 134.158  11
   2  -5   4 579.663 120.142  10
  -2   5  -4 669.257 144.326  10
   2  -5   4 625.894 126.244   4
   2  -5   4 688.806 144.764   1
   2  -5   4 712.565 140.926   3
  -2   5  -5 1159.04 153.876   6
   2  -5   5 1136.62 182.268  10
  -2   5  -5 1165.25 170.952  11
  -2   5  -5 1000.18 153.452   9
  -2   5  -5 1215.41 195.269  10
   2  -5   5 1270.39 168.631   4
   2  -5   5 1325.79 195.004   3
  -2   5  -6 499.022 117.772  11
  -2   5  -6 596.811 142.045  10
  -2   5  -6 358.456 96.4101   9
   2  -5   6 537.310 140.247   3
  -2   5  -6 492.132 102.581   6
  -2   5  -7 2848.60 246.964   6
  -2   5  -7 2196.81 220.935   9
   2  -5   7 3021.95 300.957   3
  -2   5  -7 2721.80 306.092  10
  -2   5  -7 2469.42 266.967  11
   2  -5   8 774.608 160.803   3
  -2   5  -8 578.652 139.253  11
  -2   5  -8 816.340 138.340   6
  -2   5  -8 624.746 174.974  10
  -2   5  -8 706.553 129.485   9
  -2   5  -9 2923.40 264.158   6
   2  -5   9 2524.91 295.540   3
  -2   5  -9 2703.32 302.807  11
  -2   5  -9 2391.61 226.068   9
  -2   5  -9 2703.58 320.130  10
  -2   5 -10 371.125 118.889  11
  -2   5 -10 287.664 101.740   9
  -2   5 -10 269.290 91.5104   7
   2  -5  10 494.391 148.243   3
   2  -5  10 349.579 106.057   2
  -2   5 -10 215.636 122.750  10
  -2   5 -11-57.4524 73.3236  11
  -2   5 -11-27.0132 88.8388  10
   2  -5  11-30.3724 70.9338   3
  -2   5 -12 387.921 149.699  10
  -2   5 -12 122.633 85.9665  11
   2  -5  12 158.640 112.931   3
  -2   5 -13 40.0702 112.748  10
  -2   5 -13-88.9847 89.6226  11
   2  -5  13-140.169 80.1603   3
  -2   5 -14 143.064 136.031  11
   2  -4 -17 103.412 101.320   8
  -2   4  17 3.67343 91.8536   1
   2  -4 -16 250.794 122.073   8
  -2   4  16 236.432 109.208   1
  -2   4  15 38.5313 87.0559   1
   2  -4 -15 166.090 120.577   8
  -2   4  14 146.076 110.001   1
   2  -4 -14 303.620 122.707   8
  -2   4  14 103.718 38.6017  10
   2  -4 -14 107.222 55.1146   2
  -2   4  13 1351.23 121.479  10
  -2   4  13 1291.57 210.585   1
   2  -4 -13 1484.96 228.168   8
  -2   4  12 1521.32 218.826   1
   2  -4 -12 1810.89 245.738   8
   2  -4 -12 1462.08 202.091   7
  -2   4  12 1679.48 133.326  10
  -2   4  11 387.318 105.161   1
  -2   4  11 308.615 54.7272  10
   2  -4 -11 443.786 112.425   8
   2  -4 -11 588.330 127.956   7
   2  -4 -10 2237.26 255.376   1
   2  -4 -10 1797.47 228.151   8
  -2   4  10 2276.09 239.593   5
  -2   4  10 2207.02 240.073   1
   2  -4 -10 1986.35 211.740   7
  -2   4  10 2056.84 128.569  10
   2  -4  -9 4081.62 332.385   1
  -2   4   9 3786.26 167.298  10
  -2   4   9 4095.21 315.184   5
  -2   4   9 3717.22 303.548   1
   2  -4  -9 3953.01 311.471   8
   2  -4  -9 3956.57 275.223   7
   2  -4  -8 2428.96 245.545   1
  -2   4   8 2760.59 255.488   1
  -2   4   8 2389.07 135.013  10
   2  -4  -8 2652.89 246.509   8
   2  -4  -8 2661.18 217.357   7
  -2   4   8 2721.87 248.222   5
   2  -4  -7 604.775 123.804   1
  -2   4   7 540.914 113.190   1
   2  -4  -7 460.933 103.409   8
  -2   4   7 411.014 101.322   5
   2  -4  -7 618.724 99.7342   7
  -2   4   6 6790.28 375.113   1
   2  -4  -6 7201.01 380.112   8
   2  -4  -6 7066.30 301.256   7
  -2   4   6 7544.31 380.598   5
  -2   4   5 1017.06 148.819   5
  -2   4   5 1002.89 150.557   1
   2  -4  -5 913.100 118.971  11
   2  -4  -5 1068.36 110.204   7
  -2   4   5 985.987 140.405   8
   2  -4  -5 992.426 149.304   8
  -2   4   5 1103.67 98.6224  10
  -2   4   4 620.373 81.9339  10
   2  -4  -4 701.401 106.320  11
  -2   4   4 622.447 116.611   1
  -2   4   4 725.313 114.786   8
   2  -4  -4 800.446 123.060   8
  -2   4   4 663.495 79.5258   7
   2  -4  -4 626.965 81.9207   7
   2  -4  -3 9958.62 373.511  11
  -2   4   3 10369.5 336.686  10
   2  -4  -3 10211.3 281.871   7
  -2   4   3 10886.4 427.268   8
   2  -4  -3 9968.90 426.076   8
  -2   4   3 10639.3 436.128   1
  -2   4   3 10521.9 284.658   7
   2  -4  -2 12192.9 454.636   8
  -2   4   2 12423.6 384.554  10
  -2   4   2 12274.1 471.010   1
  -2   4   2 12699.2 283.573   7
   2  -4  -2 12681.4 421.225  11
   2  -4  -1 2858.71 212.220   6
   2  -4  -1 3300.41 212.648  11
   2  -4  -1 2951.23 239.650   3
  -2   4   1 3274.63 137.161   7
  -2   4   1 3229.81 206.727  10
  -2   4   0 966.528 127.015  11
   2  -4   0 1250.07 137.345  11
  -2   4   0 1169.21 137.314  10
   2  -4   0 1122.40 147.254   3
   2  -4   0 1077.65 133.115   6
  -2   4   0 1081.73 80.6296   7
   2  -4   1 152.213 67.4371  11
  -2   4  -1 97.7277 51.2169  11
  -2   4  -1 24.5562 51.9257  10
   2  -4   1 33.0719 61.3733   3
   2  -4   1 11.4022 56.8374   6
  -2   4  -1 43.6006 27.3709   7
  -2   4  -2 18.7752 23.7865   7
   2  -4   2 144.765 57.5927  10
   2  -4   2 119.912 64.6557   4
   2  -4   2 64.1239 58.6046   3
  -2   4  -2-7.96095 61.9556  10
  -2   4  -2 122.606 68.7312  11
   2  -4   3 6481.05 352.071  10
  -2   4  -3 6025.47 341.371  10
   2  -4   3 5788.49 323.032   4
   2  -4   3 6184.47 353.204   3
  -2   4  -3 6104.75 323.022  11
  -2   4  -4 101.651 70.6143  10
  -2   4  -4 59.1855 64.6006  11
   2  -4   4 53.0222 60.7805  10
   2  -4   4-2.92723 51.4563   4
  -2   4  -4-2.28235 52.6562   3
   2  -4   4 7.44885 57.4885   3
  -2   4  -5 4366.54 276.277   6
  -2   4  -5 4172.45 291.391  11
   2  -4   5 4143.40 288.938   4
   2  -4   5 4562.96 320.544  10
  -2   4  -5 4344.63 332.053  10
  -2   4  -5 4555.44 326.410   3
   2  -4   5 4565.54 321.394   3
  -2   4  -6 2050.69 219.572  11
  -2   4  -6 2250.95 205.610   6
  -2   4  -6 2110.10 236.954  10
  -2   4  -6 2056.90 229.340   3
   2  -4   6 2146.58 236.017  10
   2  -4   6 2081.05 229.538   3
   2  -4   7 430.078 109.568  10
  -2   4  -7 397.145 120.323  10
  -2   4  -7 315.058 99.2162  11
  -2   4  -7 395.257 105.453   6
  -2   4  -7 332.406 105.556   3
  -2   4  -7 394.637 95.2682   9
   2  -4   7 275.399 102.210   3
  -2   4  -8 3060.61 262.912   6
  -2   4  -8 2973.53 304.814  10
   2  -4   8 3092.03 300.030   3
  -2   4  -8 2713.15 217.564   9
  -2   4  -8 2789.00 272.826  11
  -2   4  -9 2054.49 216.796   6
  -2   4  -9 1637.00 222.013  11
  -2   4  -9 1573.69 167.096   9
  -2   4  -9 1892.84 266.367  10
   2  -4   9 1366.65 205.911   3
  -2   4 -10 409.100 119.580   6
  -2   4 -10 256.823 119.003  11
  -2   4 -10 374.918 90.0947   9
  -2   4 -10 186.233 90.4834  10
   2  -4  10 164.168 89.7032   3
   2  -4  11 196.544 91.4241   3
  -2   4 -11 357.925 154.403  10
  -2   4 -11 60.8044 99.2469  11
  -2   4 -12 79.5688 60.5779   4
  -2   4 -12 35.5798 82.1191  11
  -2   4 -12 38.7163 93.6070  10
   2  -4  12 175.725 104.137   3
  -2   4 -13 114.674 84.0280  11
  -2   4 -13-38.9072 71.0695   4
  -2   4 -13 116.371 119.130  10
   2  -4  13-28.1595 80.8551   3
  -2   4 -14-65.0311 76.9155   4
  -2   4 -14-86.8058 99.6273  10
  -2   4 -14 37.5686 86.5337  11
   2  -4  14 32.7370 72.8003   3
  -2   4 -15 96.0863 85.3736   4
  -2   4 -15 23.0604 94.7325  11
  -2   3  18 186.446 124.768   1
  -2   3  17 15.0523 71.2988   1
   2  -3 -17 39.7931 79.8090   8
  -2   3  16 377.468 138.854   1
   2  -3 -16 674.322 191.459   8
  -2   3  15 1355.76 231.030   1
  -2   3  15 1439.44 162.977  10
   2  -3 -15 1750.89 255.879   8
  -2   3  14 7304.23 491.755   1
   2  -3 -14 8124.94 527.097   8
  -2   3  13 1671.60 235.163   1
   2  -3 -13 2191.18 271.005   8
  -2   3  12 465.292 84.7232  10
  -2   3  12 331.844 113.280   1
   2  -3 -12 510.357 130.739   8
   2  -3 -12 461.443 136.698   7
  -2   3  11 3290.24 203.586  10
  -2   3  11 2775.26 268.328   1
   2  -3 -11 2974.89 293.651   8
   2  -3 -11 3430.36 288.765   7
   2  -3 -11 3076.88 294.373   1
  -2   3  10 5276.11 362.973   5
  -2   3  10 5222.47 239.098  10
   2  -3 -10 5248.84 362.482   8
  -2   3  10 4947.04 344.133   1
   2  -3 -10 5104.15 333.611   7
   2  -3 -10 5286.27 364.342   1
   2  -3  -9 43.5386 61.5003   1
  -2   3   9 97.1367 63.5792   5
  -2   3   9 75.8490 39.8598  10
   2  -3  -9 116.512 66.4233   8
  -2   3   9-5.65057 50.3477   1
   2  -3  -9 75.2423 68.3202   7
  -2   3   8 174.357 77.2295   5
  -2   3   8 243.284 51.7472  10
   2  -3  -8 269.356 86.8287   8
  -2   3   8 242.964 83.7801   1
   2  -3  -8 259.934 81.6439   1
   2  -3  -8 252.502 77.4385   7
   2  -3  -7 403.511 96.0547   8
  -2   3   7 477.582 113.224   1
   2  -3  -7 484.092 94.8633   7
  -2   3   6 2333.63 178.613   7
   2  -3  -6 2647.85 223.518   8
  -2   3   6 2458.06 216.565   1
   2  -3  -6 2736.06 196.633   7
   2  -3  -5 334.073 101.446   8
  -2   3   5 437.697 73.4538   7
  -2   3   5 436.442 107.256   1
   2  -3  -5 507.523 85.0959   7
  -2   3   4 1488.40 162.787   1
   2  -3  -4 1255.28 157.406   8
  -2   3   4 1309.90 117.753   7
   2  -3  -4 1166.03 117.018   7
   2  -3  -3 6794.13 267.946  11
   2  -3  -3 6774.66 330.323   8
  -2   3   3 6938.69 246.115   7
   2  -3  -3 6855.07 247.848   7
  -2   3   3 7317.75 335.514   1
   2  -3  -2 2736.03 167.816  11
  -2   3   2 2684.78 175.111  10
  -2   3   2 2751.79 208.864   1
  -2   3   2 2759.76 145.326   7
   2  -3  -2 2590.52 142.797   7
   2  -3  -2 2494.05 206.914   8
  -2   3   1 15.2111 46.2553  10
   2  -3  -1 23.7187 33.9428  11
  -2   3   1-20.2091 45.9449   1
  -2   3   1-2.48037 29.1247   7
   2  -3   0 8702.70 343.216   6
   2  -3   0 8936.47 305.500  11
  -2   3   0 8655.24 335.574  10
   2  -3   0 9059.78 376.760   3
  -2   3   0 8199.56 293.734  11
  -2   3   0 8724.73 243.154   7
  -2   3  -1 1159.74 135.206  10
   2  -3   1 1158.93 114.373  11
   2  -3   1 1310.20 146.858   3
  -2   3  -1 1025.15 91.0084   7
  -2   3  -1 1011.11 113.088  11
   2  -3   1 1219.30 134.815   6
  -2   3  -2 419.409 75.7808  11
   2  -3   2 471.006 91.5947   4
   2  -3   2 439.246 99.3123   3
  -2   3  -2 501.835 93.9957  10
  -2   3  -3 5903.59 278.402  11
  -2   3  -3 5683.55 317.739  10
   2  -3   3 6000.27 307.600   4
   2  -3   3 6120.47 324.826   3
   2  -3   3 6464.21 324.195  10
  -2   3  -4 9629.54 376.938  11
   2  -3   4 9362.98 419.178  10
   2  -3   4 9534.96 410.332   3
  -2   3  -4 9396.51 416.279  10
   2  -3   4 9085.72 390.902   4
  -2   3  -5 1548.91 162.765  11
   2  -3   5 1549.51 185.005  10
   2  -3   5 1482.20 168.455   4
  -2   3  -5 1592.89 184.410  10
   2  -3   5 1386.04 180.419   3
  -2   3  -6 201.908 73.9184   6
   2  -3   6 214.399 83.6064  10
   2  -3   6 149.939 80.9527   3
  -2   3  -6 175.546 68.2568   3
  -2   3  -6 198.253 89.9670  10
  -2   3  -6 65.3757 52.7835  11
  -2   3  -7 227.364 76.2157   6
   2  -3   7 255.056 84.7191  10
  -2   3  -7 216.813 90.8353  10
  -2   3  -7 183.872 76.6272  11
  -2   3  -7 176.764 83.6109   3
   2  -3   7 92.7483 61.3572   3
  -2   3  -8 1176.55 176.212  11
  -2   3  -8 1222.71 174.125   4
   2  -3   8 1143.11 181.166  10
  -2   3  -8 1453.15 209.716  10
  -2   3  -8 1145.00 127.049   9
  -2   3  -8 1140.64 176.487   3
   2  -3   8 1116.71 173.866   3
  -2   3  -9 2297.90 267.373  10
  -2   3  -9 2245.20 249.114  11
   2  -3   9 2077.78 246.528   3
  -2   3  -9 2024.86 221.709   4
  -2   3  -9 1910.92 158.247   9
  -2   3 -10 220.702 108.651  10
  -2   3 -10 143.523 95.5410  11
  -2   3 -10 157.127 53.1234   9
  -2   3 -10 253.082 91.2725   4
   2  -3  10 177.154 83.9346   3
  -2   3 -11-4.28831 61.6054   4
   2  -3  11 32.8664 73.9531   3
  -2   3 -11 58.3233 93.7016  10
  -2   3 -12 355.757 122.895   4
  -2   3 -12 423.438 144.905  10
   2  -3  12 337.088 112.832   3
  -2   3 -13 1069.33 215.102  10
  -2   3 -13 919.598 181.610   4
   2  -3  13 795.436 181.576   3
  -2   3 -14 123.222 88.5298   4
  -2   3 -14 22.3618 81.6792  10
   2  -3  14 2.53101 84.1505   3
  -2   3 -15 6.19702 98.4685  10
  -2   3 -15 150.031 96.4805   4
   2  -3  15-12.8497 77.6522   3
   2  -3  16 186.805 120.619   3
  -2   3 -16 36.8183 80.3453   4
  -2   3 -16 81.8194 99.5673  10
  -2   2  18 332.916 131.901   1
   2  -2 -18 512.893 165.256   8
  -2   2  17 95.3361 89.9296   1
   2  -2 -17 141.701 106.767   8
  -2   2  16 279.426 108.154   1
   2  -2 -16 428.792 142.653   8
  -2   2  15 169.373 72.8201  10
   2  -2 -15 153.965 103.487   8
  -2   2  15 109.041 66.7049   1
  -2   2  14 105.077 56.8700  10
  -2   2  14 162.073 96.0272   1
   2  -2 -14 379.718 129.372   8
  -2   2  13 17.0292 81.8277   1
  -2   2  13-0.57285 42.2590  10
   2  -2 -13 117.085 104.139   8
   2  -2 -12 829.276 162.165   8
  -2   2  12 889.385 153.696   1
   2  -2 -11-42.3970 71.6290   8
  -2   2  11-12.2699 58.3832   1
   2  -2 -11-30.1194 68.7637   7
   2  -2 -10 77.6763 68.3429   8
  -2   2  10 99.0825 66.8365   1
  -2   2  10 71.8480 45.6052  10
   2  -2 -10 118.337 79.2531   1
   2  -2 -10 116.725 67.3893   7
  -2   2   9 1221.56 131.833  10
  -2   2   9 1258.26 165.526   1
  -2   2   9 1138.09 164.022   5
   2  -2  -9 1134.93 162.022   1
   2  -2  -9 1155.92 172.934   8
   2  -2  -9 1151.51 160.376   7
  -2   2   8 1500.30 139.523  10
  -2   2   8 1371.43 170.281   1
   2  -2  -8 1678.61 188.613   8
   2  -2  -8 1534.93 171.624   7
   2  -2  -8 1525.43 181.354   1
  -2   2   7 4269.94 276.336   1
  -2   2   7 4270.98 216.342  10
   2  -2  -7 4728.36 297.700   8
   2  -2  -7 4704.38 278.648   7
  -2   2   6 3824.25 247.495   1
   2  -2  -6 4432.23 256.812   7
   2  -2  -6 3931.78 264.753   8
  -2   2   6 3956.79 243.496   7
  -2   2   5 11452.9 405.034   1
   2  -2  -5 10654.4 411.001   8
  -2   2   5 10659.6 365.426   7
   2  -2  -5 11340.1 383.324   7
  -2   2   4-27.7413 57.8553   1
   2  -2  -4 60.1445 69.4336   8
  -2   2   4-22.1868 46.5534   7
   2  -2  -4 62.0230 43.5396   7
  -2   2   3 147266. 1343.00   1
   2  -2  -3 145974. 1419.54   8
  -2   2   3 144613. 1169.01   7
   2  -2  -3 143717. 1179.77   7
  -2   2   2 31481.0 612.448   1
   2  -2  -2 30342.0 645.662   8
  -2   2   2 31159.3 523.957   7
   2  -2  -2 30516.7 505.605   7
   2  -2  -2 31120.2 457.171  11
   2  -2  -1 29.1836 34.7622   7
   2  -2  -1 96.9012 37.2169  11
  -2   2   1-65.1831 63.0984   1
   2  -2  -1-42.8819 72.4934   8
  -2   2   1 82.9005 40.3433   7
   2  -2   0 175.709 62.0217   6
  -2   2   0 198.643 64.6163  10
  -2   2   0 110.416 34.6849  11
   2  -2   0 79.8755 33.9294  11
   2  -2   0 33.5634 52.9163   3
  -2   2   0 89.7092 47.0554   7
   2  -2   1 10036.8 345.894   6
  -2   2  -1 9138.66 335.968  10
   2  -2   1 9377.61 344.810   3
  -2   2  -1 9416.02 276.584   7
  -2   2  -1 9806.66 272.958  11
   2  -2   1 9774.03 265.192  11
  -2   2  -2 7431.75 316.079  10
   2  -2   2 7307.87 313.858   4
  -2   2  -2 7617.26 254.800  11
   2  -2   2 7469.10 313.558   3
  -2   2  -3 238.405 72.7566  10
   2  -2   3 252.593 72.5375   4
   2  -2   3 200.069 70.7361   3
  -2   2  -3 238.708 60.3899  11
  -2   2  -4 16.7075 45.1474   6
  -2   2  -4-40.3100 46.2599  11
   2  -2   4 48.8132 48.5624   4
  -2   2  -4-25.8962 61.2583  10
   2  -2   4-5.31188 60.6112   3
  -2   2  -5 9530.90 360.755  11
  -2   2  -5 9678.20 412.834  10
   2  -2   5 9812.19 395.559   4
   2  -2   5 10395.7 405.006   3
  -2   2  -6 3712.37 258.736   3
   2  -2   6 3513.98 251.670   3
  -2   2  -6 3658.30 267.878  10
  -2   2  -7 206.347 86.6170  10
  -2   2  -7 126.470 66.4737   3
   2  -2   7 136.706 65.8110   3
  -2   2  -8 276.798 92.9188   4
   2  -2   8 83.2337 57.5791  10
  -2   2  -8 161.542 70.6343   3
   2  -2   8 189.844 74.7875   3
  -2   2  -8 132.268 87.1048  10
  -2   2  -9-22.0389 29.5987   9
   2  -2   9-67.2704 72.2855  10
  -2   2  -9 3.48059 70.8177  10
  -2   2  -9-85.4024 69.8461   4
  -2   2  -9 37.5547 51.4477   3
   2  -2   9 15.8726 55.7218   3
  -2   2 -10 112.606 90.1632  10
   2  -2  10 200.274 84.8748  10
  -2   2 -10 71.1598 56.4055   4
  -2   2 -10 113.477 44.3005   9
  -2   2 -10 160.721 86.5259   3
   2  -2  10 149.356 86.7124   3
  -2   2 -11 240.379 105.869  10
  -2   2 -11 357.868 103.546   4
   2  -2  11 228.871 99.0133   3
  -2   2 -12 1432.70 232.536  10
  -2   2 -12 1795.30 226.881   4
   2  -2  12 1302.37 211.061   3
  -2   2 -13 521.705 128.269   4
  -2   2 -13 557.318 141.845  10
   2  -2  13 525.125 154.330   3
   2  -2  14 1444.36 238.209   3
  -2   2 -14 1937.30 280.298  10
  -2   2 -14 1603.21 235.065   4
   2  -2  15 327.925 140.616   3
  -2   2 -15 377.543 132.176  10
  -2   2 -15 415.283 127.437   4
   2  -2  16-102.621 106.246   3
  -2   2 -16 90.2175 74.1338   4
   2  -2  17 11.7600 67.7031   3
  -2   2 -17 77.7522 90.0223  10
  -2   2 -17 192.768 116.338   4
   2  -1 -18 268.627 125.020   8
  -2   1  18-9.36358 74.6060   1
   2  -1 -17 635.581 170.246   8
  -2   1  17 426.342 147.279   1
  -2   1  16 1036.83 203.047   1
  -2   1  15 3427.91 343.762   1
  -2   1  15 3521.65 301.457  10
   2  -1 -14 172.910 30.7579   2
  -2   1  14 577.933 123.527  10
   2  -1 -14 203.989 34.0928   2
  -2   1  14 691.983 159.083   1
   2  -1 -13 20.5117 24.0420   2
  -2   1  13-38.4299 54.9894  10
  -2   1  13 24.8069 62.2602   1
  -2   1  12 506.464 118.681  10
   2  -1 -12 511.051 135.158   8
  -2   1  12 447.794 122.279   1
   2  -1 -11 1172.77 170.241   3
  -2   1  11 1043.36 141.561  10
   2  -1 -11 1100.15 176.112   8
   2  -1 -11 1190.46 172.568   7
  -2   1  11 1065.16 163.998   1
  -2   1  10-5.56668 61.0652   1
   2  -1 -10 41.3160 64.1705   3
   2  -1 -10-50.3162 72.3271   8
   2  -1 -10 2.05820 65.9137   7
  -2   1   9 2061.24 214.368   5
  -2   1   9 1776.92 196.056   1
   2  -1  -9 1577.91 183.422   8
   2  -1  -9 2193.82 215.294   7
  -2   1   8 363.703 93.5071   5
  -2   1   8 246.861 79.2936   1
   2  -1  -8 356.937 92.4529   1
   2  -1  -8 339.979 100.362   8
  -2   1   8 226.852 62.2181  10
   2  -1  -8 271.050 82.9489   7
  -2   1   7 4445.17 249.340  10
  -2   1   7 4340.40 277.990   1
   2  -1  -7 5316.82 299.770   7
   2  -1  -7 5122.61 300.511   8
   2  -1  -6 69725.0 1047.03   8
   2  -1  -6 72913.7 1042.81   7
  -2   1   6 68222.8 975.462   1
   2  -1  -6 68229.9 990.821   1
   2  -1  -5 35564.7 673.763   1
   2  -1  -5 35758.5 709.214   8
  -2   1   5 35287.7 659.296   1
   2  -1  -5 36733.3 699.460   7
   2  -1  -4 24574.9 527.326   1
  -2   1   4 24330.5 520.223   1
   2  -1  -4 24977.9 574.540   8
   2  -1  -4 25210.5 544.666   7
  -2   1   3 3579.27 197.782   1
   2  -1  -3 3693.65 220.224   8
   2  -1  -3 3928.16 204.643   7
  -2   1   2 7853.35 276.211   1
   2  -1  -2 8103.92 313.437   8
   2  -1  -2 7938.11 274.141   7
  -2   1   1 604.791 83.3133   1
   2  -1  -1 784.818 88.7320   7
   2  -1  -1 719.515 101.618   8
   2  -1  -1 590.606 49.7810  11
  -2   1   1 765.487 91.8110   7
   2  -1   0 4225.03 212.995   6
   2  -1   0 4030.93 112.782  11
  -2   1   0 4325.97 190.732   7
   2  -1   1 3695.49 210.322   6
  -2   1  -1 4015.24 131.623  11
   2  -1   1 3727.63 193.315   3
  -2   1  -1 3732.73 185.549   7
  -2   1  -2 606.737 61.7941  11
   2  -1   2 678.741 93.4818   4
  -2   1  -2 603.408 94.4137  10
   2  -1   2 578.668 86.7704   3
  -2   1  -2 566.002 88.4324   3
  -2   1  -3 1746.30 154.377  10
   2  -1   3 1860.22 149.912   4
  -2   1  -3 1527.22 137.776   3
   2  -1   3 1779.69 147.612   3
  -2   1  -4 50.3984 47.9163   3
   2  -1   4 35.2004 45.9118   3
   2  -1   4-3.16145 52.0213   4
  -2   1  -4 26.2004 63.1792  10
  -2   1  -5 2523.77 201.622  10
  -2   1  -5 2532.82 191.314   3
   2  -1   5 2473.24 187.841   3
  -2   1  -6 1189.49 154.250  10
  -2   1  -6 1190.36 138.576   3
   2  -1   6 1202.50 143.894   3
  -2   1  -7 16812.0 553.718  10
  -2   1  -7 17241.0 532.532   3
   2  -1   7 15852.7 506.354   3
  -2   1  -8 9930.07 444.702  10
  -2   1  -8 10123.5 433.498   3
   2  -1   8 10087.6 418.292   3
   2  -1   9 1021.67 151.460  10
  -2   1  -9 698.634 63.3677   9
  -2   1  -9 850.013 137.998   3
  -2   1  -9 924.267 156.623  10
  -2   1  -9 961.849 142.152   4
   2  -1   9 907.938 148.648   3
   2  -1  10 6641.55 395.364  10
  -2   1 -10 7056.64 413.261  10
  -2   1 -10 6838.11 385.357   4
  -2   1 -10 6805.47 390.648   3
   2  -1  10 6785.67 391.276   3
  -2   1 -11 211.008 97.6183  10
   2  -1  11 211.714 96.9875  10
  -2   1 -11 242.802 93.7043   4
  -2   1 -11 96.6932 51.4314   3
   2  -1  11 135.239 71.4952   3
  -2   1 -12 216.813 100.563   4
  -2   1 -12 306.307 116.191  10
   2  -1  12 241.313 97.7118   3
  -2   1 -13 205.053 113.964  10
   2  -1  13 42.7164 32.7910   2
  -2   1 -13 92.5917 81.7704   4
   2  -1  13 176.443 94.5831   3
   2  -1  14 302.802 113.219   3
  -2   1 -14 387.443 123.093   4
  -2   1 -14 401.238 133.892  10
   2  -1  14 105.861 31.2259   2
   2  -1  14 72.0165 22.2906   2
   2  -1  15 148.912 120.564   3
  -2   1 -15 129.786 98.1607  10
  -2   1 -15 265.920 125.618   4
   2  -1  16 333.907 129.475   3
  -2   1 -16 426.615 150.868   4
  -2   1 -16 450.584 156.543  10
   2  -1  17 61.9219 90.9965   3
  -2   1 -17 110.050 100.263  10
  -2   1 -17 207.140 116.368   4
  -2   1 -18 149.558 105.452  10
  -2   0  18-17.7896 91.9080   1
  -2   0  17 4.42011 88.9057   1
   2   0 -16 205.452 102.319   5
  -2   0  16 149.604 99.6480   1
   2   0 -15 429.397 133.854   5
  -2   0  15 374.635 142.584   1
   2   0 -14 154.508 88.3034   5
  -2   0  14 158.015 86.3011   1
  -2   0  13 3839.45 337.162   1
  -2   0  13 3517.84 313.740  10
   2   0 -13 3962.04 336.248   5
  -2   0  12 8466.30 471.199   1
  -2   0  12 9910.18 486.635  10
   2   0 -12 8557.53 466.678   5
  -2   0  11 14425.7 583.049   1
   2   0 -11 12310.9 302.846   2
  -2   0  11 16793.6 598.879  10
   2   0 -11 15300.2 595.918   3
   2   0 -11 16900.1 656.834   7
  -2   0  10 3794.09 293.652   1
  -2   0  10 4444.31 295.632  10
   2   0 -10 4092.56 183.790   2
   2   0 -10 4157.38 300.466   3
   2   0 -10 4246.42 319.776   7
  -2   0   9 4482.61 298.603   1
   2   0  -9 4727.54 314.705   8
   2   0  -9 4679.48 321.326   7
   2   0  -9 4768.28 307.785   3
  -2   0   8 7285.77 362.663   1
  -2   0   8 7950.20 377.711   5
   2   0  -8 7504.15 372.014   8
   2   0  -8 7718.17 360.608   3
   2   0  -8 7706.79 385.794   7
  -2   0   7 603.049 111.349   5
  -2   0   7 557.857 101.399  10
   2   0  -7 462.305 99.3227   8
  -2   0   7 662.246 113.912   1
   2   0  -7 636.446 111.450   7
  -2   0   6 324.705 78.3320   5
  -2   0   6 287.404 70.8255  10
   2   0  -6 482.723 93.7400   8
   2   0  -6 374.579 85.0565   7
   2   0  -6 334.910 79.6870   1
  -2   0   6 225.698 65.8055   1
  -2   0   5 1861.46 150.528   1
  -2   0   5 1869.85 165.935   5
   2   0  -5 1999.92 169.652   8
   2   0  -5 1707.44 144.820   1
   2   0  -5 2079.85 178.235   7
  -2   0   4 241.658 63.9402   1
   2   0  -4 277.430 70.0981   8
   2   0  -4 291.039 62.4340   1
   2   0  -4 332.539 76.7486   7
  -2   0   3 78.2240 45.1353   1
   2   0  -3 29.0065 37.6266   1
   2   0  -3 17.1978 49.2518   8
  -2   0   3 44.0562 56.7969   8
   2   0  -3 63.0827 49.1862   7
   2   0  -2 6511.28 213.452   1
  -2   0   2 6726.01 221.080   1
   2   0  -2 6876.06 266.629   8
   2   0  -2 6715.64 262.913   7
  -2   0   1 4061.69 165.078   1
   2   0  -1 4324.97 211.196   8
   2   0  -1 4419.43 167.686   1
   2   0  -1 4310.92 206.539   7
   2   0   0 18916.0 414.496   6
  -2   0   0 19008.7 340.275   1
   2   0   0 19545.2 412.549   7
   2   0   0 18457.8 329.199   1
   2   0   1 20481.8 434.472   6
   2   0   1 20789.0 361.753   3
   2   0   1 20658.2 359.836   1
  -2   0  -2 2085.50 129.546   3
   2   0   2 2082.88 122.936   3
   2   0   2 2091.17 142.842   4
   2   0   3 50.5941 47.7414   4
  -2   0  -3 33.9487 42.3485   3
   2   0   3-14.8483 41.0345   3
  -2   0  -4 12726.6 389.214  10
  -2   0  -4 13141.6 351.937   3
   2   0   4 12870.6 335.423   3
  -2   0  -5 7429.18 283.107   3
   2   0   5 7040.36 273.705   3
  -2   0  -5 7495.81 315.799  10
  -2   0  -6 1273.08 141.216  10
  -2   0  -6 1304.25 135.709   3
   2   0   6 1271.91 128.338   3
  -2   0  -7 532.643 106.473  10
  -2   0  -7 651.547 105.743   3
   2   0   7 434.132 89.7841   3
  -2   0  -8 25668.2 666.509  10
   2   0   8 25279.0 624.232   3
  -2   0  -8 26434.9 645.941   3
  -2   0  -9 16177.7 538.781   3
   2   0   9 16544.2 551.419  10
  -2   0  -9 16119.6 552.794  10
   2   0   9 15135.5 515.209   3
  -2   0 -10 1415.07 174.139   3
  -2   0 -10 1323.60 171.557  10
   2   0  10 1522.44 180.635  10
   2   0  10 1460.94 176.329   3
   2   0  11 236.371 85.1610  10
   2   0  11 193.553 49.0383   2
  -2   0 -11 280.340 88.5056   3
  -2   0 -11 138.847 80.9937  10
   2   0  11 277.208 94.7872   3
   2   0  12 1388.78 101.753   2
   2   0  12 2001.87 241.278  10
  -2   0 -12 2187.17 246.441  10
  -2   0 -12 2319.97 240.324   3
   2   0  12 2180.32 232.686   3
   2   0  13 1268.71 194.335   3
  -2   0 -13 1153.99 189.921  10
   2   0  13 572.036 59.7709   2
   2   0  14 1778.56 236.698   3
  -2   0 -14 2141.82 265.369  10
   2   0  15 8.42386 59.8958   3
  -2   0 -15 99.7179 92.9349  10
   2   0  16-53.1010 92.7717   3
  -2   0 -16 69.6417 96.9317  10
   2   0  17 134.637 104.330   3
  -2   0 -17 26.6553 88.0114  10
  -2   0 -18 133.134 95.7881  10
  -2   0 -19 403.857 148.042  10
  -2  -1  18 12.8530 96.3429   1
   2   1 -17 77.0868 98.6038   5
  -2  -1  17 81.9728 118.401   1
  -2  -1  16 845.127 204.992   1
   2   1 -16 956.603 193.449   5
   2   1 -15 1091.20 186.996   5
  -2  -1  15 1035.94 192.502   1
   2   1 -14 246.232 97.1653   5
  -2  -1  14 177.790 106.786   1
   2   1 -13 2673.20 270.641   5
  -2  -1  13 2274.86 268.224   1
  -2  -1  12 8512.72 480.387  10
   2   1 -12 8006.51 445.269   5
  -2  -1  12 7461.46 447.474   1
   2   1 -11 1804.57 202.506   5
   2   1 -11 1250.41 94.5374   2
  -2  -1  11 1479.41 212.413  10
   2   1 -11 1671.06 207.964   3
  -2  -1  11 1549.75 198.564   1
   2   1 -11 1624.12 220.352   7
  -2  -1  10 301.330 88.1798  10
   2   1 -10 352.243 56.3568   2
   2   1 -10 256.596 99.3011   5
  -2  -1  10 193.921 85.5499   1
   2   1 -10 257.583 97.2897   7
   2   1 -10 244.862 91.7482   3
   2   1  -9 1362.01 168.059   3
  -2  -1   9 1347.85 174.176   1
   2   1  -9 1525.35 114.814   2
   2   1  -9 1470.46 187.206   7
  -2  -1   9 1654.96 184.766  10
  -2  -1   8 6264.80 346.261  10
   2   1  -8 5920.87 320.176   3
   2   1  -8 6094.89 230.071   2
   2   1  -8 6365.97 359.430   7
  -2  -1   8 5500.00 309.864   1
   2   1  -7 4986.14 211.187   2
   2   1  -7 4915.46 276.349   8
   2   1  -7 5200.68 311.514   7
  -2  -1   7 4798.69 270.092   1
   2   1  -6 86.3410 48.9782   3
  -2  -1   6 83.2502 48.9737   5
   2   1  -6 80.0543 48.8009   8
   2   1  -6 108.455 44.0325   2
  -2  -1   6 25.4767 40.8825   1
   2   1  -6 166.886 84.7672   7
   2   1  -5 309.162 65.6388   3
  -2  -1   5 386.835 81.1979   5
   2   1  -5 354.082 64.6589   2
   2   1  -5 349.044 73.5158   8
  -2  -1   5 389.692 77.5156   1
   2   1  -5 468.317 104.753   7
   2   1  -4 408.456 73.4706   3
   2   1  -4 499.878 73.0368   2
  -2  -1   4 538.417 82.9041   5
   2   1  -4 532.522 90.2784   8
  -2  -1   4 501.451 78.6769   1
   2   1  -4 472.985 91.5636   7
   2   1  -3 491.967 83.3393   8
   2   1  -3 497.305 90.4578   7
  -2  -1   3 519.926 69.0427   1
   2   1  -2 21683.6 340.303  11
   2   1  -2 22806.0 435.085   8
   2   1  -2 22515.2 485.903   7
  -2  -1   2 21798.3 427.338   8
  -2  -1   2 21717.3 336.401   1
   2   1  -2 22191.7 344.580   1
  -2  -1   1 18124.9 265.834   1
   2   1  -1 18471.7 270.172   1
  -2  -1   1 18119.8 374.418   8
   2   1  -1 18758.9 380.227   8
   2   1  -1 18179.4 272.768  11
   2   1  -1 18992.2 427.505   7
   2   1   0 8612.39 263.115   6
   2   1   0 8041.48 165.406  11
   2   1   0 8560.61 161.599   1
  -2  -1   0 8466.06 163.836   1
  -2  -1   0 8931.21 261.620   8
   2   1   0 8798.00 290.627   7
  -2  -1   0 8790.19 163.158  11
  -2  -1  -1 27168.3 468.096   6
   2   1   1 27444.7 461.939   6
  -2  -1  -1 26094.9 291.515  11
   2   1   1 26553.2 397.843   4
   2   1   1 26530.5 295.788   1
   2   1   1 26736.5 292.915   3
  -2  -1  -2 11810.3 297.334   4
   2   1   2 11946.2 289.780   4
  -2  -1  -2 12571.2 225.609   3
   2   1   2 12953.4 220.165   3
  -2  -1  -3 6859.55 240.271   4
  -2  -1  -3 7281.35 198.751   3
   2   1   3 7601.59 192.224   3
  -2  -1  -4 16148.8 405.681   4
   2   1   4 16457.9 327.217   3
  -2  -1  -4 16998.1 343.480   3
  -2  -1  -5 13991.8 396.124  10
  -2  -1  -5 13783.8 340.659   3
   2   1   5 14008.7 339.986   3
   2   1   6 525.551 81.7634   2
  -2  -1  -6 583.391 93.7612  10
  -2  -1  -6 637.565 87.4281   3
   2   1   6 592.107 87.1794   3
  -2  -1  -7 823.996 115.256  10
  -2  -1  -7 812.633 102.039   3
   2   1   7 681.202 89.3844   2
   2   1   7 836.667 106.579   3
   2   1   8 411.189 69.3518   2
  -2  -1  -8 377.787 89.7594  10
  -2  -1  -8 429.605 81.7481   3
   2   1   8 407.447 85.3933   3
   2   1   9-1.62841 46.4150   3
  -2  -1  -9 138.177 68.5139  10
   2   1   9 74.5124 37.7882   2
  -2  -1  -9 110.036 59.3873   3
   2   1  10-18.4208 47.4437   3
  -2  -1 -10 104.230 72.6223  10
   2   1  10 94.4678 41.2918   2
  -2  -1 -10 26.1595 39.1952   3
   2   1  11-63.4221 51.3427   3
   2   1  11 20.5065 33.3724   2
  -2  -1 -11 0.50243 54.0726  10
  -2  -1 -11 34.4705 58.5265   3
   2   1  12 76.8041 62.9327   3
   2   1  12 35.1985 25.5124   2
  -2  -1 -12 42.7861 65.2894  10
  -2  -1 -12 58.6256 54.9205   3
   2   1  13 104.701 69.9111   3
   2   1  13 83.9075 63.9972  10
  -2  -1 -13 117.727 81.8237  10
   2   1  13-31.4135 29.4262   2
  -2  -1 -13 29.8736 66.2325   3
   2   1  14-33.4667 80.2159   3
   2   1  14 30.8499 62.1913  10
   2   1  14 1.65286 12.5251   2
  -2  -1 -14 12.4366 62.6155  10
  -2  -1 -15 2589.33 291.524  10
  -2  -1 -16 264.981 120.843  10
   2   1  16 94.9145 78.8768   1
  -2  -1 -17 179.753 111.773  10
   2   1  17 5.35924 101.549   1
   2   1  18 225.212 102.267   1
  -2  -1 -18 677.796 163.045  10
  -2  -1 -19 53.8249 83.2134  10
  -2  -1 -20 148.292 118.174  10
  -2  -1 -21 122.900 124.720  10
   2   2 -17 396.411 124.540   5
  -2  -2  17 291.516 142.083   1
   2   2 -16 688.634 163.035   5
  -2  -2  16 624.646 174.260   1
   2   2 -15 463.479 126.075   5
  -2  -2  15 413.829 157.640   1
   2   2 -14 409.320 124.903   5
  -2  -2  14 349.379 128.003   1
   2   2 -13 916.579 160.645   5
  -2  -2  13 801.406 162.217   1
   2   2 -12 208.054 89.3592   5
  -2  -2  12 277.411 109.650   1
   2   2 -11 1907.21 210.037   5
   2   2 -11 1568.56 114.910   2
  -2  -2  11 1850.37 250.516  10
   2   2 -11 1913.57 217.560   3
  -2  -2  11 1644.03 207.228   1
   2   2 -10 23.2471 45.3748   5
  -2  -2  10 121.168 85.5100  10
  -2  -2  10 28.0241 81.5952   1
   2   2 -10-6.40760 28.5160   2
   2   2 -10-93.2558 66.8487   3
   2   2 -10 63.3080 68.3730   7
   2   2  -9 268.980 80.7580   5
  -2  -2   9 373.173 101.392  10
   2   2  -9 403.663 64.3782   2
  -2  -2   9 362.483 102.994   1
   2   2  -9 527.076 107.760   3
   2   2  -9 528.156 128.169   7
   2   2  -8-15.8297 29.1863   2
  -2  -2   8-55.8089 53.6749  10
  -2  -2   8 41.6146 54.0700   1
  -2  -2   8 35.7964 63.9788   7
   2   2  -8 25.8452 36.6543   3
   2   2  -8 6.84233 47.6296   7
  -2  -2   7 307.135 90.9116  10
   2   2  -7 190.246 48.0239   2
  -2  -2   7 300.490 85.6884   1
  -2  -2   7 189.775 90.2454   7
   2   2  -7 215.014 82.8525   7
  -2  -2   6 97.1312 51.4890   1
   2   2  -6 117.995 47.5572   2
  -2  -2   6 152.865 80.4577   7
   2   2  -6 91.0999 49.8942   3
   2   2  -6 58.8134 45.7876   7
   2   2  -5 7482.77 278.224   2
  -2  -2   5 7735.93 294.530   5
   2   2  -5 8258.55 358.399   7
   2   2  -5 7312.19 293.487   3
   2   2  -5 7503.62 294.208   8
  -2  -2   5 7412.43 288.563   1
  -2  -2   4 1165.40 114.302   5
   2   2  -4 1168.60 109.159   8
   2   2  -4 1108.70 111.522   2
   2   2  -4 1171.83 107.965   3
   2   2  -4 1163.38 121.419  11
  -2  -2   4 1127.65 103.525   1
   2   2  -4 1198.63 133.086   7
   2   2  -3 3135.23 174.434  11
   2   2  -3 3100.19 185.882   2
  -2  -2   3 3108.59 163.885   5
   2   2  -3 2998.24 159.879   8
   2   2  -3 2965.92 156.081   3
   2   2  -3 3263.15 205.040   7
  -2  -2   3 2994.79 145.525   1
   2   2  -2 73857.4 713.697   8
   2   2  -2 73824.3 780.466  11
   2   2  -2 72131.2 645.130   3
   2   2  -2 74917.3 911.243   7
   2   2  -2 75276.0 881.399   2
  -2  -2   2 75250.3 596.384   1
  -2  -2   1 41221.7 338.530   1
   2   2  -1 41826.7 555.819  11
  -2  -2   1 41426.0 494.559   8
   2   2  -1 41031.1 387.788   3
   2   2  -1 41906.1 497.373   8
   2   2  -1 42541.1 655.987   7
   2   2  -1 41385.8 658.663   2
  -2  -2   1 42198.3 548.900  11
   2   2   0 13471.2 288.637   6
   2   2   0 13509.8 379.654   2
   2   2   0 14069.7 212.010   4
  -2  -2   0 13637.3 299.973  11
  -2  -2   0 13056.5 273.723   8
   2   2   0 13402.8 365.130   7
   2   2   0 13571.5 303.348  11
   2   2   1 71.9642 56.9969   2
  -2  -2  -1 34.3975 37.2018   6
  -2  -2  -1-24.7084 37.4952  11
   2   2   2 3999.03 209.510   2
  -2  -2  -2 4062.43 175.742   6
  -2  -2  -2 3878.90 158.845  11
  -2  -2  -2 4017.52 148.812   4
   2   2   2 4063.70 97.4934   1
  -2  -2  -3 2485.50 88.6472   3
   2   2   3 2457.58 168.171   2
  -2  -2  -4 5478.27 164.302   3
   2   2   4 5480.60 165.410   3
   2   2   4 5263.38 240.838   2
   2   2   5 667.293 72.1096   3
   2   2   5 543.583 86.3874   2
  -2  -2  -5 600.364 68.3826   3
   2   2   6-32.4511 32.5110   3
   2   2   6 37.8943 49.0746   2
  -2  -2  -6 1.41081 33.5393   3
  -2  -2  -7 1089.66 117.589  10
  -2  -2  -7 1137.43 115.023   3
   2   2   7 1030.31 112.922   3
  -2  -2  -7 1049.88 86.0779   9
   2   2   7 1251.54 123.373   2
  -2  -2  -8 16929.5 470.120  10
   2   2   8 16552.7 413.679   2
  -2  -2  -8 15998.6 305.177   9
  -2  -2  -8 16100.4 449.059   3
   2   2   8 17006.8 458.106   3
  -2  -2  -9 3737.77 236.847  10
  -2  -2  -9 3810.98 239.951   3
   2   2   9 3544.57 229.095   3
   2   2   9 3977.44 202.942   2
  -2  -2 -10 123.607 76.5080  10
   2   2  10 160.087 51.9853   2
  -2  -2 -10 104.111 59.2273   3
   2   2  11 131.648 45.7196   2
  -2  -2 -11 16.9673 57.2605  10
  -2  -2 -11 143.617 72.1764   3
  -2  -2 -12 43.4899 66.2489  10
   2   2  12 35.1832 35.9898   2
  -2  -2 -12-27.3702 42.9433   3
   2   2  12 64.9911 63.9399   1
  -2  -2 -13-45.3632 61.0070  10
   2   2  13-1.55472 60.1755   1
   2   2  13 1.37253 25.5474   2
  -2  -2 -13 133.823 69.1207   3
   2   2  14 1956.84 120.044   2
  -2  -2 -14 2370.65 249.381  10
   2   2  14 3302.97 313.738   1
  -2  -2 -15 2070.63 240.037  10
   2   2  15 2007.99 269.859   1
  -2  -2 -16 2567.89 288.135  10
   2   2  16 2962.13 331.551   1
  -2  -2 -17 353.408 123.285  10
   2   2  17 399.847 145.857   1
  -2  -2 -18 208.172 116.094  10
   2   2  18 216.927 144.393   1
  -2  -2 -19 203.643 108.428  10
   2   2  19 240.847 151.187   1
  -2  -2 -20-39.6095 79.1908  10
  -2  -2 -21 134.406 116.102  10
  -2  -3  17 212.061 121.055   1
   2   3 -16 579.262 145.571   5
  -2  -3  16 247.557 129.603   1
   2   3 -15 580.575 146.162   5
  -2  -3  15 160.197 115.269   1
   2   3 -14 125.656 80.4036   5
  -2  -3  14-80.0568 82.4940   1
  -2  -3  13 972.374 188.071   1
  -2  -3  13 843.831 135.396   9
   2   3 -13 1360.14 186.768   5
   2   3 -12 1355.02 179.555   5
  -2  -3  12 1540.66 216.847   1
  -2  -3  12 1326.62 167.959   9
   2   3 -11 3728.38 280.247   5
  -2  -3  11 3253.30 295.925   1
   2   3 -10 72.5139 43.0059   5
   2   3 -10 128.320 65.8556   3
   2   3 -10 193.196 97.9274   7
   2   3 -10 43.7654 38.6500   2
   2   3  -9 2803.30 217.632   5
  -2  -3   9 3255.91 296.269  10
   2   3  -9 2723.12 243.998   3
  -2  -3   9 2339.38 228.389   3
   2   3  -9 2664.28 182.550   2
   2   3  -9 2744.98 268.010  11
   2   3  -9 2872.94 268.211   7
   2   3  -8 2711.74 181.442   2
  -2  -3   8 2810.54 265.699  10
   2   3  -8 2558.34 248.720  11
   2   3  -8 2654.41 229.651   3
  -2  -3   8 2333.52 215.356   3
   2   3  -8 2613.84 242.900   7
  -2  -3   7 388.152 92.9655   3
  -2  -3   7 382.831 103.356  10
   2   3  -7 545.287 87.0292   2
  -2  -3   7 379.200 107.876   7
   2   3  -7 380.426 86.8933   3
   2   3  -7 453.223 109.324   7
   2   3  -7 404.697 98.3588  11
  -2  -3   6 872.954 125.550   3
  -2  -3   6 1072.56 117.585   2
   2   3  -6 1023.50 116.203   2
   2   3  -6 1050.98 146.958  11
  -2  -3   6 964.134 149.988   7
   2   3  -6 1110.85 144.629   7
  -2  -3   5 261.992 70.9206   3
  -2  -3   5 278.710 67.9790   2
   2   3  -5 347.522 75.3444   2
   2   3  -5 285.282 70.1530   3
  -2  -3   5 363.348 97.9223   7
   2   3  -5 289.630 85.2444  11
   2   3  -5 318.634 79.0153   7
   2   3  -4 10054.2 351.625   2
  -2  -3   4 10249.2 353.273   2
   2   3  -4 9247.16 312.175   3
  -2  -3   4 9372.04 318.553   3
   2   3  -4 10020.5 292.564   8
  -2  -3   4 9525.35 384.723   7
   2   3  -4 10415.7 384.821   7
   2   3  -4 9388.79 371.653  11
  -2  -3   3-17.0331 41.2578   3
  -2  -3   3 13.6965 53.9622   2
   2   3  -3 29.3767 46.4259  11
   2   3  -3 61.9708 45.7474   2
   2   3  -3 3.31445 33.0682   8
   2   3  -3 15.8250 27.7641   3
  -2  -3   3 40.5600 35.9459   5
  -2  -3   3 85.2403 60.9642   7
   2   3  -3 4.82328 52.9712   7
  -2  -3   2 21186.7 522.251   7
   2   3  -2 21281.1 515.183   2
   2   3  -2 21141.7 500.418  11
  -2  -3   2 21479.3 348.772   5
  -2  -3   2 19531.8 370.016   3
   2   3  -2 21571.6 334.251   8
   2   3  -2 20600.6 371.906   3
  -2  -3   2 21021.5 510.722   2
   2   3  -2 21580.4 501.094   7
  -2  -3   2 20566.2 492.049  11
   2   3  -1 12521.8 242.560   6
   2   3  -1 12468.5 368.490  11
  -2  -3   1 12264.5 392.815   2
   2   3  -1 13065.0 395.739   2
   2   3  -1 12223.3 244.900   3
  -2  -3   1 12741.7 384.200   7
  -2  -3   1 12320.3 243.094   3
   2   3  -1 12223.8 221.751   8
   2   3  -1 12045.0 363.166   7
  -2  -3   1 12023.5 359.645  11
   2   3   0 7112.95 273.896  11
  -2  -3   0 7495.85 272.465  11
  -2  -3   0 6086.80 129.231   1
   2   3   0 6457.33 151.384   3
  -2  -3   0 7043.23 146.898   3
  -2  -3   0 6945.95 157.648   8
  -2  -3   0 7242.41 278.360   7
   2   3   0 7359.02 297.547   2
   2   3   0 7308.14 278.783   7
  -2  -3  -1 154.722 47.7420   7
  -2  -3  -1 183.769 41.3776   6
  -2  -3  -1 107.105 33.5482  11
   2   3   1 175.694 54.8803  11
  -2  -3  -1 195.241 27.6057   4
   2   3   1 263.643 82.0320   2
  -2  -3  -1 146.057 32.2933   8
  -2  -3  -2-1.53304 30.1257  11
  -2  -3  -2 69.1521 58.1894   7
  -2  -3  -2 16.7776 33.4160   6
   2   3   2-11.7242 55.6811   2
   2   3   2 20.3969 14.8671   1
  -2  -3  -3 4167.33 109.911   3
   2   3   3 4124.35 228.092   2
  -2  -3  -3 4039.30 202.116  11
   2   3   3 4284.58 132.530   1
   2   3   4 1358.14 91.1053   1
  -2  -3  -4 1304.66 79.6168   3
   2   3   4 1190.59 130.968   2
   2   3   5 1376.18 110.388   1
  -2  -3  -5 1451.43 130.828   2
  -2  -3  -5 1479.85 128.784   9
  -2  -3  -5 1273.37 92.9856   3
   2   3   5 1144.22 130.357   2
  -2  -3  -6 162.181 55.9930   9
   2   3   6 192.070 63.8998   2
  -2  -3  -6 121.634 47.8828   2
   2   3   6 173.326 50.2703   1
  -2  -3  -6 178.023 47.6461   3
  -2  -3  -7 1005.74 113.423   2
  -2  -3  -7 915.469 99.3825   9
   2   3   7 973.126 113.730   2
   2   3   7 819.416 109.103   1
  -2  -3  -7 979.268 103.567   3
  -2  -3  -8 37502.8 663.683   2
  -2  -3  -8 36017.9 637.415  10
  -2  -3  -8 36438.1 565.315   9
   2   3   8 35945.1 660.646   2
  -2  -3  -8 36661.0 654.302   3
   2   3   8 35521.4 710.414   1
  -2  -3  -9 5412.20 261.349  10
  -2  -3  -9 4982.18 265.624   3
   2   3   9 5210.99 253.355   2
   2   3   9 4808.43 283.323   1
  -2  -3 -10 368.593 80.6407  10
   2   3  10 329.236 98.9535   1
   2   3  10 314.746 69.7120   2
  -2  -3 -10 335.009 81.5496   3
   2   3  11 3635.57 210.721   2
  -2  -3 -11 3389.96 234.450  10
  -2  -3 -11 3974.93 269.612   3
   2   3  11 3345.39 267.752   1
   2   3  12 2729.33 179.682   2
  -2  -3 -12 2772.43 219.553  10
  -2  -3 -12 2546.88 237.033   3
   2   3  12 2641.84 254.639   1
  -2  -3 -13 241.603 85.5213  10
   2   3  13 182.963 57.6559   2
   2   3  13 137.701 88.4555   1
  -2  -3 -13 264.211 97.5766   3
  -2  -3 -14 18.6998 56.8425  10
   2   3  14-22.2408 60.7674   1
  -2  -3 -14-120.208 77.9787   3
   2   3  15 52.5723 83.2867   1
  -2  -3 -15 38.6709 54.6650  10
  -2  -3 -16 174.535 92.4573  10
   2   3  16 273.726 120.983   1
  -2  -3 -17 154.023 61.1798  10
   2   3  17-11.1367 78.2772   1
  -2  -3 -18 536.698 147.546  10
   2   3  18 704.533 186.170   1
  -2  -3 -19 432.065 122.441  10
   2   3  19 201.177 134.450   1
  -2  -3 -20 54.8238 74.8172  10
  -2  -4  16 416.625 133.662   1
  -2  -4  15 80.3143 109.101   1
   2   4 -15-61.1708 104.603  11
   2   4 -14 49.9804 113.433  11
   2   4 -14 66.0727 80.9083   5
  -2  -4  14-4.31476 84.3271   1
   2   4 -13 565.379 120.802   5
  -2  -4  13 284.966 94.9818   9
   2   4 -13 291.696 131.476  11
  -2  -4  12 708.652 158.782   3
   2   4 -12 885.818 146.219   5
  -2  -4  12 663.924 128.571   9
   2   4 -12 666.214 173.464  11
   2   4 -11 6235.09 350.541   5
   2   4 -11 6238.69 461.360  11
  -2  -4  11 5689.45 352.493   9
  -2  -4  11 5613.45 395.221   3
  -2  -4  10 587.546 135.325   3
  -2  -4  10 449.458 110.246   9
   2   4 -10 551.431 147.888  11
  -2  -4   9 515.978 127.227   3
   2   4  -9 489.339 134.006  11
  -2  -4   9 543.956 109.397   9
   2   4  -9 451.486 112.332   3
   2   4  -9 525.736 96.8512   2
   2   4  -9 554.367 124.934   7
   2   4  -8 4557.89 262.280   2
  -2  -4   8 4954.06 374.279  10
   2   4  -8 4135.99 335.609  11
   2   4  -8 4488.50 307.078   3
  -2  -4   8 3907.44 289.288   3
   2   4  -8 4872.69 331.509   7
  -2  -4   8 4194.83 289.676   9
  -2  -4   8 4639.15 261.201   2
  -2  -4   7 691.453 126.783   3
  -2  -4   7 797.170 139.633  10
  -2  -4   7 706.514 120.169   9
  -2  -4   7 809.774 113.139   2
   2   4  -7 748.274 137.209  11
  -2  -4   7 672.400 140.393   7
   2   4  -7 790.615 124.937   3
   2   4  -7 915.111 122.141   2
   2   4  -7 908.817 142.267   7
  -2  -4   6 377.749 79.3203   2
  -2  -4   6 332.568 104.580  10
   2   4  -6 351.065 94.5098  11
  -2  -4   6 373.918 92.8928   9
   2   4  -6 494.529 94.5948   2
  -2  -4   6 364.718 96.6015   7
   2   4  -6 475.474 108.104   7
  -2  -4   6 479.254 100.206   3
   2   4  -5 1625.11 181.043  11
  -2  -4   5 1468.55 167.561   9
  -2  -4   5 1583.74 158.767   2
   2   4  -5 1531.41 153.811   2
  -2  -4   5 1444.11 158.515   3
   2   4  -5 2027.96 185.015   7
  -2  -4   5 1558.99 173.583   7
   2   4  -4-11.2405 57.6432  11
   2   4  -4-5.27672 18.9412   4
  -2  -4   4-4.57537 38.3120   2
   2   4  -4 20.1951 29.9557   8
   2   4  -4-6.11587 39.7155   2
   2   4  -4 16.5925 34.9321   3
  -2  -4   4-27.5292 59.4256   7
  -2  -4   4 3.43348 45.7527   3
   2   4  -4 2.99783 42.5042   7
   2   4  -3-3.58021 48.6847  11
  -2  -4   3 32.0562 47.7453   2
   2   4  -3-11.8205 21.3668   8
   2   4  -3-12.3185 52.0452   2
   2   4  -3 23.4874 29.2364   3
  -2  -4   3 38.9238 52.5325   7
  -2  -4   3 39.0304 45.0366   3
   2   4  -3 4.46384 35.0698   7
   2   4  -2 1151.08 136.132  11
  -2  -4   2 972.939 128.428   2
   2   4  -2 1140.37 102.124   3
  -2  -4   2 1189.34 144.986  10
  -2  -4   2 1554.16 134.607   3
   2   4  -2 1122.29 63.8565   8
   2   4  -2 1154.52 138.204   2
   2   4  -2 1162.63 121.970   7
  -2  -4   2 1133.09 126.347   7
   2   4  -1 273.031 54.9387   7
   2   4  -1 265.992 73.7880  11
  -2  -4   1 181.344 28.3524   5
  -2  -4   1 282.800 77.7388   2
  -2  -4   1 304.295 82.1578  10
   2   4  -1 206.264 44.5653   3
   2   4  -1 272.310 81.3980   2
  -2  -4   1 197.264 42.4949   3
  -2  -4   1 207.919 66.9398   7
  -2  -4   1 351.882 74.0857  11
  -2  -4   0 9142.34 231.772   3
   2   4   0 8791.46 355.489  11
  -2  -4   0 8995.73 218.540   1
  -2  -4   0 9792.43 367.126  10
  -2  -4   0 9422.36 356.237  11
  -2  -4   0 8900.81 321.139   7
   2   4   0 8885.41 312.597   7
   2   4   0 9416.42 370.482   2
  -2  -4  -1 10471.4 224.607   1
  -2  -4  -1 11065.3 382.801  11
   2   4   1 9866.57 388.048   2
  -2  -4  -1 11152.9 235.876   3
   2   4   1 10310.6 376.960  11
  -2  -4  -1 10112.9 329.362   7
  -2  -4  -2 147.036 52.3552   7
   2   4   2 365.364 93.7849   2
  -2  -4  -2 200.745 56.5701  11
  -2  -4  -2 289.147 51.1900   1
  -2  -4  -2 133.628 31.8937   3
  -2  -4  -3 4891.65 169.208   1
  -2  -4  -3 4770.54 251.576  11
   2   4   3 4825.66 164.204   1
   2   4   3 4827.25 279.166   2
  -2  -4  -3 4605.13 258.630   9
  -2  -4  -3 4742.88 226.699   7
   2   4   4 17752.0 507.001   2
  -2  -4  -4 16945.1 482.904   9
  -2  -4  -4 17339.8 487.675  11
   2   4   4 16969.0 340.820   1
  -2  -4  -4 17534.5 360.368   1
   2   4   5 197.529 45.4579   1
  -2  -4  -5 298.341 63.0284   1
  -2  -4  -5 191.436 63.5649   9
   2   4   5 274.115 87.3158   2
   2   4   6 2745.12 168.733   1
   2   4   6 2770.72 208.962   2
  -2  -4  -6 2808.96 191.390   9
  -2  -4  -7 3695.79 215.980   9
   2   4   7 3734.76 216.397   1
  -2  -4  -7 3672.07 192.630   3
   2   4   7 3848.75 241.393   2
   2   4   8 8296.29 340.870   1
  -2  -4  -8 7907.75 307.377   3
   2   4   8 7906.04 343.914   2
  -2  -4  -8 8297.27 287.615  10
  -2  -4  -8 8450.65 318.011   9
   2   4   9 5944.24 314.430   1
  -2  -4  -9 6053.15 256.401  10
   2   4   9 5809.61 295.902   2
  -2  -4  -9 5576.92 279.548   3
  -2  -4 -10 690.968 95.3385  10
   2   4  10 606.075 103.267   2
   2   4  10 678.359 121.516   1
  -2  -4 -10 555.364 99.5962   3
   2   4  11 2898.84 252.466   1
   2   4  11 2971.35 214.777   2
  -2  -4 -11 3228.18 210.348  10
  -2  -4 -11 2946.50 230.457   3
   2   4  12 1785.87 210.491   1
   2   4  12 1929.01 177.744   2
  -2  -4 -12 1720.19 165.674  10
  -2  -4 -12 2024.15 204.941   3
  -2  -4 -13 54.2114 60.9623  10
   2   4  13 14.1407 58.1262   1
   2   4  13 77.8959 48.5291   2
  -2  -4 -13 22.1364 48.1765   3
  -2  -4 -14 253.664 81.1345  10
   2   4  14 402.467 119.677   1
  -2  -4 -14 312.764 103.463   3
  -2  -4 -15 185.336 74.6985  10
   2   4  15 329.717 122.628   1
   2   4  16 688.164 177.204   1
  -2  -4 -16 552.003 127.171  10
  -2  -4 -17 149.605 79.3764  10
   2   4  17 270.049 114.450   1
  -2  -4 -18-17.1753 54.9880  10
   2   4  18 149.038 99.6654   1
  -2  -4 -19 109.791 118.074   5
   2   4  19 389.538 154.922   1
  -2  -5  15 220.154 114.244   1
  -2  -5  14 48.0584 68.3750   3
   2   5 -14-70.6932 85.4721  11
   2   5 -14 176.447 98.2649   4
  -2  -5  13 529.030 157.842   3
   2   5 -13 687.576 132.084   4
   2   5 -13 459.517 170.688  11
  -2  -5  12 879.710 182.625   3
   2   5 -12 902.701 153.827   4
   2   5 -12 829.820 209.139  11
  -2  -5  11 322.612 112.773   3
   2   5 -11 468.179 107.799   4
   2   5 -11 503.916 164.554  11
  -2  -5  11 408.631 112.717   9
  -2  -5  10 246.406 102.077   3
  -2  -5  10 120.218 62.7687   2
  -2  -5  10 125.832 72.8948   9
   2   5 -10 162.989 60.0669   4
   2   5 -10 98.6866 88.2909  11
  -2  -5   9 133.192 72.6498   3
  -2  -5   9 196.497 69.2141   2
   2   5  -9 288.703 119.163  11
  -2  -5   9 208.269 74.0096   9
   2   5  -9 309.165 102.575   3
   2   5  -9 139.982 81.3019   7
   2   5  -8 263.867 66.7101   4
  -2  -5   8 325.030 87.4129   2
   2   5  -8 230.815 111.195  11
  -2  -5   8 157.584 70.4998   9
   2   5  -8 165.636 69.5667   3
   2   5  -8 213.913 87.9051   7
  -2  -5   8 89.7160 61.3163   3
   2   5  -7 129.467 88.1931  11
   2   5  -7-3.69685 30.6957   4
  -2  -5   7-11.6976 52.8567   2
  -2  -5   7 53.9199 67.8604   9
   2   5  -7-47.2196 50.0130   3
   2   5  -7 92.2219 49.3079   2
   2   5  -7 30.2097 46.3216   7
  -2  -5   7 15.2162 49.2629   3
   2   5  -6 922.209 157.248  11
  -2  -5   6 947.051 139.948   2
   2   5  -6 947.137 92.0008   4
  -2  -5   6 1002.69 170.405  10
  -2  -5   6 1160.60 165.251   9
   2   5  -6 834.150 121.701   3
  -2  -5   6 818.982 138.652   7
   2   5  -6 951.147 138.569   2
   2   5  -6 1032.33 135.316   7
  -2  -5   6 951.243 139.905   3
  -2  -5   5 7030.51 360.178   2
   2   5  -5 6494.05 349.907   2
  -2  -5   5 7333.40 423.808  10
   2   5  -5 6666.52 388.380  11
  -2  -5   5 6508.16 368.323   9
  -2  -5   5 6067.50 318.822   3
   2   5  -5 6419.40 324.828   3
  -2  -5   5 6203.50 343.795   7
   2   5  -5 6627.09 343.414   7
   2   5  -4 1926.18 210.139  11
  -2  -5   4 2132.04 199.600   2
   2   5  -4 1938.22 192.514   2
  -2  -5   4 1998.52 202.321   9
  -2  -5   4 1714.72 167.796   3
  -2  -5   4 2286.47 235.556  10
  -2  -5   4 1731.02 181.309   7
   2   5  -4 1932.59 177.581   7
   2   5  -3 722.170 124.138  11
  -2  -5   3 984.642 154.527  10
  -2  -5   3 721.307 121.035   2
  -2  -5   3 824.012 133.777   9
   2   5  -3 538.113 49.5932   8
   2   5  -3 778.275 101.220   3
   2   5  -3 672.163 121.186   2
  -2  -5   3 624.522 112.769   7
  -2  -5   3 662.292 102.641   3
  -2  -5   3 520.249 102.443  11
   2   5  -3 588.832 105.542   7
   2   5  -2 547.327 96.8803   7
  -2  -5   2 657.862 123.627  11
   2   5  -2 638.049 118.761  11
  -2  -5   2 890.365 141.506  10
  -2  -5   2 697.536 119.524   2
   2   5  -2 715.529 90.8055   3
   2   5  -2 702.204 128.461   2
  -2  -5   2 577.366 95.3548   3
  -2  -5   2 651.013 114.888   7
   2   5  -1 33718.4 779.487  11
  -2  -5   1 34652.8 785.652  11
   2   5  -1 33421.2 766.053   2
  -2  -5   1 35142.0 772.162  10
   2   5  -1 32104.7 566.757   3
  -2  -5   1 31472.9 547.856   1
  -2  -5   1 32975.1 570.372   3
  -2  -5   1 33493.4 671.879   7
   2   5  -1 34180.2 647.301   7
  -2  -5   1 34401.3 790.788   2
   2   5   0-4.31674 42.6579   7
   2   5   0 52.7590 57.2263   2
   2   5   0 59.1665 48.2908  11
  -2  -5   0-24.5540 53.2099  10
  -2  -5   0 12.6381 51.6191   2
  -2  -5   0 19.3705 26.8026   1
  -2  -5   0-83.8341 59.7002   3
  -2  -5   0 58.9816 41.5449   7
  -2  -5  -1 334.423 91.0577  10
  -2  -5  -1 125.357 44.0713   3
   2   5   1 168.959 79.8535   2
   2   5   1 167.781 84.7760  11
  -2  -5  -1 179.247 73.6684   7
  -2  -5  -1 64.1177 31.5321   1
  -2  -5  -2 3097.38 109.620   6
   2   5   2 4047.80 271.198   2
  -2  -5  -2 3716.13 237.612  10
  -2  -5  -2 3489.31 167.868   3
  -2  -5  -2 3041.91 162.970   1
  -2  -5  -2 2795.72 191.364   7
  -2  -5  -3 12564.7 322.920   1
   2   5   3 12143.2 460.813   2
  -2  -5  -3 11974.1 297.094   3
   2   5   3 12511.0 312.072   1
  -2  -5  -3 12402.0 466.475   9
  -2  -5  -3 11930.9 373.361   7
  -2  -5  -4 1257.25 106.560   1
  -2  -5  -4 1193.06 118.834   7
  -2  -5  -4 1362.68 153.975   9
   2   5   4 1275.97 112.174   1
   2   5   4 1429.15 175.105   2
  -2  -5  -5 6317.09 262.569   1
   2   5   5 5914.91 330.134   2
   2   5   5 5852.07 240.589   1
  -2  -5  -5 6036.03 318.710   9
   2   5   6 12795.8 475.018   2
  -2  -5  -6 13898.3 503.747   2
  -2  -5  -6 13486.1 470.471   9
   2   5   6 12560.0 377.819   1
  -2  -5  -6 13211.5 399.003   1
   2   5   7 9810.94 353.301   1
   2   5   7 9616.76 416.244   2
  -2  -5  -7 10277.1 405.817   9
  -2  -5  -7 10549.2 436.625   2
  -2  -5  -7 10055.7 372.485   1
  -2  -5  -8 744.990 125.440   2
   2   5   8 516.574 87.3571   1
   2   5   8 468.257 100.538   2
  -2  -5  -9 700.698 102.127   3
  -2  -5  -9 593.463 75.7414  10
  -2  -5  -9 666.879 117.448   2
   2   5   9 539.109 102.264   2
   2   5   9 619.026 109.359   1
  -2  -5 -10 375.571 87.3111   3
  -2  -5 -10 395.817 95.1882   2
  -2  -5 -10 479.323 78.7138  10
   2   5  10 357.455 86.1484   1
   2   5  10 401.576 105.091   2
  -2  -5 -11 282.389 77.1635   3
   2   5  11 369.381 96.3871   1
  -2  -5 -11 424.828 70.6542  10
  -2  -5 -11 367.302 87.1943   2
   2   5  11 441.516 109.940   2
  -2  -5 -12 195.912 70.3549   3
  -2  -5 -12 173.456 69.4230   2
   2   5  12 265.908 93.8345   1
  -2  -5 -12 207.208 54.0389  10
   2   5  12 217.317 76.4109   2
   2   5  13 196.689 84.3799   1
  -2  -5 -13 158.213 56.4153  10
  -2  -5 -13 134.467 70.1281   2
  -2  -5 -13 328.565 96.1382   3
  -2  -5 -14 207.165 69.0301   2
  -2  -5 -14 312.477 75.8021  10
  -2  -5 -14 183.763 88.2722   3
   2   5  14 198.432 89.1146   1
  -2  -5 -15 151.723 70.1539  10
   2   5  15 84.8359 75.5148   1
  -2  -5 -16 1627.42 181.551  10
   2   5  16 2064.62 272.750   1
  -2  -5 -17 1209.96 167.345  10
  -2  -5 -17 1610.91 247.490   5
   2   5  17 1554.42 241.572   1
  -2  -5 -18 2456.77 333.065   5
   2   5  18 2289.00 304.678   1
  -2  -5 -19 307.212 136.330   5
   2   5  19 213.721 147.718   1
  -2  -6  14 225.518 137.549   3
  -2  -6  13 743.416 185.637   3
   2   6 -13 427.373 176.902  11
  -2  -6  12 492.870 152.996   3
   2   6 -12 932.542 225.375  11
  -2  -6  11 60.4569 66.9651   3
   2   6 -11-95.2629 88.1457  11
   2   6 -11 65.0366 52.0272   4
  -2  -6  10 318.809 118.392   3
   2   6 -10 559.685 155.754  11
   2   6 -10 279.801 80.7337   4
   2   6  -9 2337.81 290.077  11
  -2  -6   9 1919.95 246.038   3
  -2  -6   9 2553.22 238.599   2
   2   6  -8 3023.83 320.835  11
  -2  -6   8 2743.30 245.651   2
  -2  -6   8 2179.25 238.664   3
   2   6  -8 2895.28 268.690   7
   2   6  -7 731.984 162.768  11
  -2  -6   7 847.567 142.239   2
  -2  -6   7 834.156 155.814   9
   2   6  -7 751.346 131.597   3
  -2  -6   7 862.331 152.938   3
   2   6  -7 888.597 149.778   7
   2   6  -6 112.799 93.5712  11
  -2  -6   6-94.7383 63.2133   2
  -2  -6   6 70.5241 71.9811   9
   2   6  -6-38.7093 40.1976   3
  -2  -6   6 25.4866 52.2536   3
   2   6  -6 88.8826 59.7722   7
   2   6  -5 1266.23 194.684  11
  -2  -6   5 1692.13 224.236  10
   2   6  -5 1364.21 164.323   3
  -2  -6   5 1360.84 179.975   2
  -2  -6   5 1385.99 193.242   9
   2   6  -5 1381.26 163.413   7
  -2  -6   5 1490.42 184.884   7
   2   6  -5 1262.68 172.063   2
  -2  -6   5 1159.35 160.534   3
  -2  -6   4 775.936 140.322  10
  -2  -6   4 1023.06 156.260   2
   2   6  -4 1119.85 168.460  11
  -2  -6   4 954.332 162.111   9
   2   6  -4 782.713 64.9553   8
   2   6  -4 1181.63 142.161   3
  -2  -6   4 881.821 140.480   7
   2   6  -4 1042.90 154.893   2
  -2  -6   4 779.261 127.288   3
   2   6  -4 944.885 129.495   7
   2   6  -3 69.6841 49.5653   7
   2   6  -3 73.7826 54.6064  11
  -2  -6   3 103.145 52.8545  10
  -2  -6   3 31.8325 44.6449   2
  -2  -6   3 117.199 62.0265   9
   2   6  -3 28.3938 62.1523   2
  -2  -6   3 81.1912 45.4355   3
  -2  -6   3 28.2260 46.2876   7
  -2  -6   3-55.1952 90.8266  11
  -2  -6   2 2685.21 252.275  11
  -2  -6   2 3318.17 269.708   2
   2   6  -2 2901.91 258.346   2
  -2  -6   2 3257.98 269.582  10
  -2  -6   2 2729.50 201.082   3
  -2  -6   2 2785.64 195.328   1
  -2  -6   2 3259.93 274.939   9
   2   6  -2 2871.32 265.080  11
  -2  -6   2 3049.16 220.673   7
   2   6  -2 2867.71 201.082   7
  -2  -6   1 2386.43 221.673  10
  -2  -6   1 2323.52 227.580   2
   2   6  -1 2101.99 219.290   2
  -2  -6   1 1982.26 212.244  11
  -2  -6   1 2118.13 162.505   1
  -2  -6   1 2241.81 230.136   9
  -2  -6   1 1691.06 137.583   3
  -2  -6   1 2085.65 176.020   7
   2   6  -1 2171.57 219.381  11
   2   6  -1 2072.15 166.615   7
  -2  -6   0 5183.55 305.098  10
   2   6   0 4837.42 325.683  11
   2   6   0 4642.04 316.713   2
  -2  -6   0 4578.36 226.419   1
  -2  -6   0 5025.30 325.153  11
  -2  -6   0 4718.62 237.583   3
  -2  -6   0 4838.83 322.181   9
  -2  -6   0 5530.53 346.232   2
  -2  -6   0 4692.00 253.065   7
   2   6   1 482.496 107.946  11
  -2  -6  -1 760.102 104.967   1
  -2  -6  -1 756.003 138.516   2
   2   6   1 619.926 127.717   2
  -2  -6  -1 644.301 112.520  10
  -2  -6  -1 508.214 82.6280   3
  -2  -6  -1 627.881 103.439   7
  -2  -6  -1 898.719 152.272  11
  -2  -6  -2 3139.69 257.392  11
  -2  -6  -2 2988.89 254.729   2
  -2  -6  -2 2876.58 175.473   1
   2   6   2 3006.46 252.852   2
  -2  -6  -2 3156.89 218.057  10
  -2  -6  -2 3044.48 182.946   3
  -2  -6  -2 3262.70 259.194   9
  -2  -6  -2 2639.55 172.024   7
  -2  -6  -3 259.271 72.5589   7
  -2  -6  -3 280.095 83.1301  11
  -2  -6  -3 212.025 34.4848   5
  -2  -6  -3 101.768 39.4069   1
  -2  -6  -3 272.093 72.4915  10
  -2  -6  -3 235.595 68.3381   9
  -2  -6  -3 185.074 46.6160   3
   2   6   3 249.555 91.2013   2
  -2  -6  -4 622.461 71.4655   5
  -2  -6  -4 511.043 79.4294   7
  -2  -6  -4 632.506 119.734  11
  -2  -6  -4 828.758 96.4072   3
  -2  -6  -4 765.261 111.051  10
  -2  -6  -4 580.056 116.283   9
  -2  -6  -4 577.797 56.9906   8
   2   6   4 676.849 126.034   2
   2   6   4 583.313 84.1473   1
  -2  -6  -4 539.695 74.7247   1
  -2  -6  -5 94.3532 54.9887   7
  -2  -6  -5 76.7360 41.0151   5
  -2  -6  -5 185.189 74.1183  11
  -2  -6  -5 138.867 47.1174  10
  -2  -6  -5 161.869 77.9977   2
   2   6   5 124.754 44.7798   1
   2   6   5 203.054 92.1209   2
  -2  -6  -5 132.720 78.2511   9
  -2  -6  -5 116.297 51.3474   1
   2   6   6 118.038 43.3331   1
  -2  -6  -6 166.356 66.5846   2
  -2  -6  -6 219.030 69.3643  11
  -2  -6  -6 311.331 89.3026   1
  -2  -6  -6 41.4917 44.1363   9
  -2  -6  -6 152.187 62.4353   5
   2   6   6 182.914 82.7567   2
  -2  -6  -7 3244.27 265.242   2
   2   6   7 2908.00 207.677   1
   2   6   7 2756.74 245.562   2
  -2  -6  -7 2761.99 250.567  11
  -2  -6  -7 3044.89 222.125   1
  -2  -6  -8 842.197 138.876   2
  -2  -6  -8 773.201 127.595   1
   2   6   8 622.626 98.6807   1
   2   6   8 828.002 143.198   2
  -2  -6  -9 261.127 86.3193   2
  -2  -6  -9 237.745 80.8897   1
   2   6   9 240.091 77.6410   1
   2   6   9 301.388 91.5711   2
  -2  -6 -10 116.260 40.3484  10
   2   6  10 141.345 70.8023   1
  -2  -6 -10 91.1099 54.8109   2
   2   6  10-45.5485 61.4586   2
  -2  -6 -11 7703.66 408.920   2
  -2  -6 -11 7480.07 262.061  10
   2   6  11 7222.53 396.268   1
  -2  -6 -11 7466.45 380.541   3
  -2  -6 -12 358.392 94.2665   3
   2   6  12 339.897 107.947   1
  -2  -6 -12 120.989 36.6323  10
  -2  -6 -12 319.461 95.6595   2
  -2  -6 -13 200.498 87.7905   3
  -2  -6 -13 168.945 85.6764   5
   2   6  13 87.3043 57.5771   1
  -2  -6 -13 76.1634 44.5782  10
  -2  -6 -13 46.8597 61.8612   2
   2   6  14 478.112 131.022   1
  -2  -6 -14 479.479 108.181   2
  -2  -6 -14 577.046 87.4364  10
  -2  -6 -14 453.203 128.573   5
  -2  -6 -15 748.026 149.506   5
  -2  -6 -15 826.537 140.614   2
  -2  -6 -15 690.101 95.9456  10
   2   6  15 746.460 165.593   1
   2   6  16 2261.90 282.174   1
  -2  -6 -16 3143.81 326.275   5
  -2  -6 -17-8.08368 77.4388   5
   2   6  17 91.0780 81.2259   1
  -2  -6 -18-42.6688 95.2453   5
   2   6  18 26.2941 89.0485   1
   2   6  19 420.686 161.254   1
  -2  -7  13 140.066 105.525   3
  -2  -7  12 79.7199 81.0359   3
  -2  -7  11 123.446 107.428   3
   2   7 -11 33.2529 84.5868  11
   2   7 -10-54.0665 100.780  11
  -2  -7  10 275.896 115.777   3
   2   7  -9 695.916 191.360  11
  -2  -7   9 346.227 124.057   3
   2   7  -8 579.496 176.643  11
  -2  -7   8 389.010 115.060   2
  -2  -7   8 405.053 124.902   3
   2   7  -8 532.541 116.978   7
   2   7  -7 563.413 152.230  11
  -2  -7   7 587.227 122.052   2
  -2  -7   7 380.508 120.421   3
   2   7  -7 298.151 99.2048   7
   2   7  -6 1360.22 209.161  11
   2   7  -6 1542.94 195.968   3
  -2  -7   6 1354.02 193.340   2
   2   7  -6 1455.81 176.807   7
  -2  -7   6 1248.88 186.775   3
  -2  -7   5 2602.76 266.426   2
   2   7  -5 2465.77 231.587   3
  -2  -7   5 1877.39 210.937   3
   2   7  -5 2047.24 109.982   8
   2   7  -5 2391.37 274.906  11
   2   7  -5 2444.95 213.187   7
  -2  -7   4 6243.42 402.708   2
   2   7  -4 5801.19 344.183   3
  -2  -7   4 5437.11 334.694   7
   2   7  -4 5638.13 311.200   7
   2   7  -4 5957.20 424.746  11
  -2  -7   4 5390.15 334.712   3
   2   7  -3-11.2343 51.1161   7
  -2  -7   3 51.1875 63.5343   2
   2   7  -3 83.6701 53.4547   3
  -2  -7   3 165.721 94.6477  10
   2   7  -3 18.7230 86.8883  11
  -2  -7   3 32.6516 42.4711   1
  -2  -7   3 43.6680 56.8550   7
  -2  -7   3 16.6256 56.9566   3
  -2  -7   2 2017.77 228.436   2
  -2  -7   2 2262.68 241.264  10
  -2  -7   2 1934.61 184.875   1
  -2  -7   2 1935.87 181.623   3
  -2  -7   2 2164.64 187.659   7
   2   7  -2 2133.87 174.643   7
   2   7  -2 2109.53 245.112  11
  -2  -7   1 4912.15 336.103  10
   2   7  -1 4702.86 347.124   2
  -2  -7   1 4396.99 261.082   1
   2   7  -1 4314.77 339.955  11
  -2  -7   1 4721.45 350.772   9
  -2  -7   1 4051.60 260.562   3
  -2  -7   1 4358.75 334.058   2
  -2  -7   1 4436.31 263.115   7
  -2  -7   1 4423.54 343.944  11
  -2  -7   0-8.00061 37.7994  11
   2   7   0-59.5071 71.9146  11
  -2  -7   0-12.7531 50.8254  10
  -2  -7   0 19.4842 60.9684   9
  -2  -7   0 115.091 77.4558   2
  -2  -7   0 20.9409 48.7152   3
  -2  -7   0-22.1600 41.2201   1
   2   7   0-22.1196 64.2311   2
  -2  -7   0 45.6853 47.3379   7
  -2  -7  -1 2020.85 232.139  11
  -2  -7  -1 2038.97 238.378   2
  -2  -7  -1 1670.15 157.425   1
  -2  -7  -1 1925.84 202.729  10
  -2  -7  -1 1680.60 161.491   3
  -2  -7  -1 2076.83 232.931   9
  -2  -7  -1 1639.61 162.824   7
   2   7   1 1767.93 218.069   2
   2   7   1 1767.48 224.492  11
  -2  -7  -2 7002.45 429.418   2
   2   7   2 6837.85 411.352   2
  -2  -7  -2 7253.71 357.931  10
  -2  -7  -2 6634.38 307.279   3
  -2  -7  -2 7476.18 430.630   9
  -2  -7  -2 6778.09 307.526   1
  -2  -7  -2 7647.49 438.887  11
  -2  -7  -2 6323.12 288.015   7
  -2  -7  -3 7882.92 447.986   2
   2   7   3 8185.96 453.314   2
  -2  -7  -3 8524.36 367.760  10
  -2  -7  -3 7749.57 320.907   3
  -2  -7  -3 8491.26 451.785   9
  -2  -7  -3 7786.42 327.389   1
  -2  -7  -3 7391.97 298.087   7
  -2  -7  -3 8567.74 455.216  11
  -2  -7  -4 229.788 57.1404   7
  -2  -7  -4 379.671 99.6798  11
  -2  -7  -4 325.216 78.5953  10
  -2  -7  -4 239.147 38.4899   1
  -2  -7  -4 337.075 105.497   2
  -2  -7  -4 247.352 32.8443   8
  -2  -7  -4 338.005 62.7248   3
   2   7   4 264.227 96.9647   2
   2   7   5 395.031 95.3229   1
  -2  -7  -5 98.8016 44.0667   7
  -2  -7  -5 97.7956 41.1425   1
  -2  -7  -5 200.502 88.2322  11
  -2  -7  -5 144.686 54.1349   5
  -2  -7  -5 162.688 64.4632   3
  -2  -7  -5 148.105 73.3005  10
  -2  -7  -5 94.8167 71.7490   2
  -2  -7  -5 87.8621 40.0719   8
   2   7   5 363.396 143.025   2
  -2  -7  -6 6402.22 328.595   1
  -2  -7  -6 6584.08 405.918  11
  -2  -7  -6 6422.12 405.521   2
  -2  -7  -6 5849.92 255.529   5
  -2  -7  -6 5966.72 269.200  10
   2   7   6 6164.90 392.836   2
   2   7   6 5782.91 298.301   1
  -2  -7  -6 5691.41 231.850   8
  -2  -7  -6 5693.07 284.264   7
  -2  -7  -7 1886.52 195.098   1
  -2  -7  -7 2108.85 232.652  11
  -2  -7  -7 1866.58 219.220   2
   2   7   7 2232.99 237.392   2
  -2  -7  -7 1694.70 136.895  10
   2   7   7 1968.03 178.445   1
  -2  -7  -7 1821.31 158.234   5
  -2  -7  -7 1660.16 143.600   8
  -2  -7  -8 2512.68 253.261   2
   2   7   8 2554.24 211.206   1
   2   7   8 2628.98 262.525   2
  -2  -7  -8 2385.37 157.352  10
  -2  -7  -8 2365.26 199.603   5
  -2  -7  -8 2565.21 230.308   1
  -2  -7  -9 1878.92 222.500   2
  -2  -7  -9 1371.59 116.324  10
  -2  -7  -9 1445.28 168.675   5
  -2  -7  -9 1648.09 195.723   1
   2   7   9 1459.50 165.882   1
  -2  -7 -10 5397.99 371.763   2
   2   7  10 5116.82 326.568   1
  -2  -7 -10 5578.78 200.714  10
  -2  -7 -10 5712.22 365.960   1
  -2  -7 -10 4781.27 315.567   5
  -2  -7 -11 2245.97 243.010   2
  -2  -7 -11 1648.93 204.385   5
  -2  -7 -11 1581.37 104.351  10
   2   7  11 1702.94 200.882   1
  -2  -7 -11 1691.63 220.154   1
  -2  -7 -12 1107.70 87.0193  10
   2   7  12 1487.78 196.189   1
  -2  -7 -12 1776.10 205.066   3
  -2  -7 -12 1443.65 197.708   5
  -2  -7 -12 1710.52 210.895   2
  -2  -7 -13 554.620 121.216   3
  -2  -7 -13 334.615 48.6942  10
  -2  -7 -13 607.549 146.825   5
  -2  -7 -13 655.359 138.117   2
   2   7  13 850.098 162.311   1
  -2  -7 -14 266.712 108.828   5
  -2  -7 -14 356.840 101.642   2
   2   7  14 320.719 108.763   1
   2   7  15 627.409 158.670   1
  -2  -7 -15 724.626 166.762   5
  -2  -7 -16 1.93034 71.8586   5
   2   7  16 83.2963 77.4903   1
  -2  -7 -17 210.962 93.9631   5
   2   7  17-46.7708 85.2310   1
   2   7  18 138.061 109.654   1
  -2  -7 -18 10.2420 87.8303   5
  -2  -8  11-117.132 109.212   3
  -2  -8  10-48.5652 65.8873   3
   2   8  -9 243.323 122.043  11
  -2  -8   9 143.931 80.6534   3
   2   8  -8 1063.07 231.887  11
  -2  -8   8 582.768 148.911   3
   2   8  -7 613.186 173.083  11
  -2  -8   7 337.419 117.403   3
   2   8  -6 1109.25 214.805  11
  -2  -8   6 992.792 171.560   3
   2   8  -6 908.689 140.771   7
   2   8  -5 298.347 81.7680   7
   2   8  -5 352.361 123.697  11
  -2  -8   5 226.217 87.4198   1
  -2  -8   5 244.489 96.9693   3
   2   8  -4 27.4932 68.8011  11
   2   8  -4 84.7492 39.9122   7
  -2  -8   4 71.1197 56.2456   1
   2   8  -4 210.696 79.5303   3
  -2  -8   4 69.0756 66.2903   3
   2   8  -3 95.8620 51.6671   7
   2   8  -3 43.7484 82.1660  11
  -2  -8   3-22.2317 53.9548   1
  -2  -8   3 89.2588 57.3950   3
   2   8  -2 2984.71 305.308  11
  -2  -8   2 2633.81 230.561   1
  -2  -8   2 2487.33 228.368   3
  -2  -8   2 2803.68 219.561   7
  -2  -8   1 1130.59 147.417   1
  -2  -8   1 1282.23 191.335  10
  -2  -8   1 1151.35 140.292   7
  -2  -8   1 1002.91 148.841   3
   2   8  -1 1185.41 188.459  11
   2   8   0 215.620 99.3799  11
  -2  -8   0 234.644 65.7703   1
  -2  -8   0 295.145 91.2230  10
  -2  -8   0 204.321 74.4501   3
  -2  -8   0 314.623 82.5279   7
  -2  -8  -1 24.8142 60.0129  10
  -2  -8  -1 94.9567 26.3705   4
  -2  -8  -1 129.931 60.1871   3
   2   8   1 286.540 111.408  11
  -2  -8  -1 8.65891 54.0932   7
  -2  -8  -1 168.076 64.6265   1
  -2  -8  -2 2061.72 186.908   1
  -2  -8  -2 2427.60 219.260  10
  -2  -8  -2 2050.33 187.478   3
  -2  -8  -2 2117.33 165.984   7
  -2  -8  -3 2090.91 185.783   1
  -2  -8  -3 2050.00 199.628  10
  -2  -8  -3 1814.14 172.419   3
  -2  -8  -3 1974.68 155.803   7
  -2  -8  -4-103.849 70.7124   1
  -2  -8  -4 95.5056 81.0457  10
  -2  -8  -4-38.7284 39.3369   3
  -2  -8  -4 7.89311 36.3115   7
  -2  -8  -5 348.470 85.0983   3
  -2  -8  -5 234.932 40.9822   1
  -2  -8  -5 463.443 100.990  10
  -2  -8  -5 326.911 44.3838   8
  -2  -8  -5 333.954 72.0120   7
  -2  -8  -6 112.885 70.1218   1
  -2  -8  -6 8.05503 29.6468   7
   2   8   6 45.9769 36.5412   1
  -2  -8  -6 59.4654 38.8583   3
  -2  -8  -6 47.7571 55.3320  10
  -2  -8  -6-17.8934 27.1896   8
  -2  -8  -7 1533.75 187.865   1
   2   8   7 1550.97 169.891   1
  -2  -8  -7 1381.00 130.940  10
  -2  -8  -7 1463.57 129.477   8
  -2  -8  -7 1253.99 135.250   7
  -2  -8  -8 78.4148 52.5566   5
  -2  -8  -8 68.8028 36.1286  10
  -2  -8  -8 229.945 56.0934   8
  -2  -8  -8 110.799 79.9535   1
   2   8   8 87.0598 67.7579   1
  -2  -8  -9 1097.45 140.862   5
  -2  -8  -9 1264.58 105.707  10
   2   8   9 1278.88 167.064   1
  -2  -8  -9 1243.37 154.369   8
  -2  -8  -9 1336.64 186.938   1
  -2  -8 -10 1331.48 88.4984  10
  -2  -8 -10 1300.92 174.662   5
  -2  -8 -10 935.463 87.9084  10
   2   8  10 1476.57 183.808   1
  -2  -8 -10 1406.39 164.920   8
  -2  -8 -10 1494.39 195.341   1
  -2  -8 -11 76.9996 19.6529  10
   2   8  11 8.98157 65.1645   1
  -2  -8 -11 22.9903 53.6875   5
  -2  -8 -11 229.575 102.340   1
  -2  -8 -11 58.0884 15.7087  10
  -2  -8 -12 214.228 96.2103   5
   2   8  12 313.141 104.917   1
  -2  -8 -13 28.6838 66.3280   5
   2   8  13 17.3990 86.1624   1
  -2  -8 -14 183.766 103.430   5
   2   8  14 139.163 83.7797   1
  -2  -8 -15 628.229 159.894   5
   2   8  15 619.001 145.700   1
   2   8  16-80.3115 67.7897   1
  -2  -8 -16 58.8881 105.747   5
   2   8  17 258.343 128.079   1
  -2  -8 -17 277.664 117.990   5
  -2  -8 -18 573.868 166.458   5
   2   8  18 472.901 144.269   1
  -2  -9  10-28.2354 85.7060   3
  -2  -9   9 204.677 93.8356   3
  -2  -9   8 102.660 100.118   3
   2   9  -7-25.1290 82.7386  11
  -2  -9   7 139.060 87.1182   3
   2   9  -6 70.1800 129.519  11
  -2  -9   6 36.1316 61.6911   3
   2   9  -5-24.9188 99.8159  11
  -2  -9   5 172.122 96.1341   3
   2   9  -4 4.81796 115.598  11
  -2  -9   4 22.2744 53.2689   3
   2   9  -3 89.1268 90.3684  11
  -2  -9   3 133.427 63.0153   3
  -2  -9   2 3474.03 284.391   1
  -2  -9   2 3409.06 291.388   3
   2   9  -2 3502.13 352.531  11
  -2  -9   1 1160.96 165.685   1
   2   9  -1 1299.46 211.590  11
  -2  -9   1 1058.16 160.866   3
   2   9   0 597.368 168.752  11
  -2  -9   0 564.474 111.946   1
  -2  -9   0 1062.42 129.247   7
  -2  -9   0 980.288 162.006   3
  -2  -9  -1 1430.70 174.878   1
  -2  -9  -1 1291.28 102.843   4
   2   9   1 1182.02 214.125  11
  -2  -9  -1 1290.76 184.938  10
  -2  -9  -1 1482.21 185.804   3
  -2  -9  -1 1600.50 137.717   7
  -2  -9  -2 4040.06 287.995   1
  -2  -9  -2 4422.43 322.649  10
  -2  -9  -2 4330.57 296.846   3
  -2  -9  -2 4675.85 231.291   7
  -2  -9  -3 1628.66 188.290   1
  -2  -9  -3 1682.25 192.016  10
  -2  -9  -3 1867.06 188.325   3
  -2  -9  -3 1875.06 142.901   7
  -2  -9  -4-70.9424 94.2255   1
  -2  -9  -4 10.3551 38.9178  10
  -2  -9  -4 24.6034 53.5380   3
  -2  -9  -4 37.2388 29.5796   7
  -2  -9  -5-166.787 91.5775   1
  -2  -9  -5 128.533 76.6326  10
  -2  -9  -5 97.8806 64.3643   3
  -2  -9  -5 68.9979 37.2476   7
  -2  -9  -6 1739.82 198.457   1
  -2  -9  -6 1663.22 164.660  10
  -2  -9  -6 1679.31 184.022   3
  -2  -9  -6 1680.81 110.626   8
  -2  -9  -6 1548.33 141.956   7
  -2  -9  -7 86.5204 59.4083   7
  -2  -9  -7 148.685 63.2822  10
  -2  -9  -7 25.4944 49.1510   3
  -2  -9  -7 57.6189 35.5138   8
   2   9   7 98.9637 67.2598   1
  -2  -9  -7 267.914 98.0053   1
  -2  -9  -8 1165.19 135.789   7
  -2  -9  -8 1265.17 135.180   8
   2   9   8 1538.73 187.128   1
  -2  -9  -8 1489.20 205.245   1
  -2  -9  -9 2578.75 262.037   1
  -2  -9  -9 2235.17 187.401   8
   2   9   9 2268.94 236.397   1
   2   9  10 4781.14 351.842   1
  -2  -9 -10 4751.80 294.912   8
   2   9  11 1326.02 196.988   1
  -2  -9 -11 1108.32 155.550   8
  -2  -9 -12 187.506 83.4057   5
   2   9  12 299.115 117.934   1
  -2  -9 -12 362.345 111.807   8
   2   9  13 1029.17 188.841   1
  -2  -9 -13 964.953 173.442   5
  -2  -9 -13 1014.44 168.512   8
   2   9  14 1254.32 212.852   1
  -2  -9 -14 1056.67 189.878   5
  -2  -9 -14 995.544 182.027   8
  -2  -9 -15-72.2832 85.2794   5
  -2  -9 -15 232.115 112.935   8
   2   9  15 63.2239 82.1757   1
  -2  -9 -16 8.51105 73.3770   5
  -2  -9 -16-134.365 109.335   8
   2   9  16 60.1613 82.9361   1
  -2  -9 -17 27.9686 77.6346   5
  -2  -9 -17 155.699 105.541   8
   2   9  17 59.1965 88.1146   1
  -2  -9 -18 638.992 172.863   8
  -2 -10   7 95.5061 92.7637   3
  -2 -10   6 267.800 126.393   3
  -2 -10   5 248.580 109.771   3
   2  10  -4 458.727 167.370  11
  -2 -10   4 321.419 108.827   3
   2  10  -3 797.698 198.126  11
  -2 -10   3 425.137 133.896   3
   2  10  -2-4.03338 88.8486  11
  -2 -10   2 148.882 81.2618   3
   2  10  -1 169.619 118.997  11
  -2 -10   1-32.8719 68.2985   3
   2  10   0 321.802 103.626  11
  -2 -10   0 636.895 144.753   3
  -2 -10  -1 342.521 106.650   3
  -2 -10  -2 2378.24 239.267   3
  -2 -10  -3 2078.81 216.281   3
  -2 -10  -4-0.47226 42.4099   3
  -2 -10  -5 930.727 145.983   3
  -2 -10  -6 441.284 97.0334   3
  -2 -10  -7 167.087 47.6903   3
  -2 -10  -8 55.9556 47.0979   3
   2  10   8 104.531 66.8850   1
   2  10   9 211.034 89.7803   1
  -2 -10  -9 91.2186 62.8410   3
   2  10  10 738.259 146.176   1
   2  10  11 442.955 132.635   1
   2  10  12 379.291 117.545   1
   2  10  13 1192.72 207.992   1
   2  10  14 680.791 173.025   1
   2  10  15 91.8996 79.8603   1
   2  10  16 112.344 106.579   1
  -2 -11   4 61.6199 66.8315   3
  -2 -11   3 3903.33 362.258   3
  -2 -11   2 1109.59 194.442   3
  -2 -11   1 199.083 98.1147   3
  -2 -11   0 14.0472 61.0733   3
  -2 -11  -1 371.497 133.341   3
  -2 -11  -2 239.421 100.359   3
  -2 -11  -3-85.0684 65.4537   3
  -2 -11  -4-85.1395 71.0882   3
  -2 -11  -5 1148.97 172.712   3
  -2 -11  -6 817.920 145.756   3
  -2 -11  -7 417.546 103.340   3
  -2 -11  -8 347.065 102.178   3
  -2 -11  -9 529.716 128.926   3
  -2 -11 -10 312.338 91.9053   3
   2  11  10 437.042 129.549   1
   2  11  11 464.239 141.265   1
  -2 -11 -11 209.868 94.4591   3
   2  11  12 204.490 104.439   1
   2  11  13 901.936 187.096   1
   2  11  14 755.997 168.415   1
   3 -10  -8 76.8149 73.3995   6
   3 -10  -7-26.5450 92.5682   6
   3 -10  -6-78.8959 78.4713   6
   3  -9 -10 26.2078 107.251   8
   3  -9  -9 642.827 166.253   8
   3  -9  -7 137.565 109.385   6
   3  -9  -6 1607.89 241.285   6
   3  -9  -5 1004.11 176.055   6
   3  -9  -5 1269.87 243.736   3
   3  -9  -4 122.915 102.825   6
   3  -9  -4-54.4373 104.248   3
   3  -9  -3 71.0286 88.2506   6
   3  -9  -3-72.8410 77.2451   3
   3  -9  -2 304.063 120.000   6
   3  -9  -2 225.427 121.323   3
  -3   9   1-63.0658 88.4061  10
  -3   9   1-62.2596 90.1979   9
  -3   9   0 111.165 85.5225  10
  -3   9   0 165.425 135.727   9
  -3   9  -1 99.3107 115.199   9
  -3   9  -1 188.131 91.7544  10
  -3   9  -2 391.030 124.227  10
  -3   9  -2 234.083 133.538   9
  -3   9  -3 726.939 180.809  11
  -3   9  -3 393.831 127.298  10
  -3   9  -3 379.308 165.541   9
  -3   9  -4-45.1429 72.3058  11
  -3   9  -4 97.0398 121.235  10
  -3   9  -5-40.9044 98.0029  11
  -3   9  -5 105.202 112.766  10
   3  -8 -12 115.822 111.181   8
   3  -8 -11 2239.57 302.651   8
  -3   8  10 511.793 165.932   1
   3  -8 -10 423.882 115.647   8
  -3   8   9 2096.27 305.738   1
   3  -8  -9 1848.51 263.137   8
  -3   8   8 294.761 134.719   1
   3  -8  -8 264.286 103.376   8
   3  -8  -7-118.036 109.957   8
  -3   8   7-19.3770 90.9840   1
   3  -8  -6 72.0025 80.2153   3
  -3   8   6 82.0963 82.0893   1
   3  -8  -5 851.156 169.446   6
  -3   8   5 805.702 121.551  10
   3  -8  -5 907.626 202.677   3
   3  -8  -4-27.6685 84.6890   6
  -3   8   4 0.72468 36.9473  10
   3  -8  -4 161.965 97.9409   3
   3  -8  -3 71.2757 90.5195   6
  -3   8   3 111.314 70.9350  10
   3  -8  -3 135.098 79.9292   3
   3  -8  -2 531.393 124.333   6
  -3   8   2 576.969 124.981  10
   3  -8  -2 411.450 139.427   3
   3  -8  -1 385.528 120.506   6
  -3   8   1 405.452 124.611  10
   3  -8  -1 604.236 162.330   3
  -3   8   0 1.22399 55.2070  10
   3  -8   0-13.8465 83.7982   3
   3  -8   1 86.3758 88.3731   3
  -3   8  -1 113.960 88.7893  10
  -3   8  -2 487.027 134.975  11
  -3   8  -2 396.782 154.562   9
  -3   8  -2 475.834 132.435  10
   3  -8   2 649.197 189.276   3
  -3   8  -3 75.8655 61.7401  11
  -3   8  -3 228.068 107.374  10
  -3   8  -3 33.5409 78.0285   9
   3  -8   3 79.6136 76.5431   3
  -3   8  -4 4.70024 69.0107  11
  -3   8  -4-31.1833 89.0322  10
  -3   8  -4 19.4109 86.1860   9
   3  -8   4 11.0879 78.0802   3
  -3   8  -5 2.09052 79.7202  11
  -3   8  -5 51.2615 82.8843  10
  -3   8  -5-84.2711 87.6607   9
  -3   8  -6 167.189 93.2650  11
  -3   8  -6 59.3734 119.255  10
  -3   8  -6 124.563 101.362   9
  -3   8  -7-11.6917 71.7642  11
  -3   8  -7 107.325 101.408  10
  -3   8  -7 64.8457 84.7598   9
  -3   8  -8 59.6277 93.3934  11
  -3   8  -8 180.063 106.037   9
  -3   7  13 562.950 172.805   1
   3  -7 -13 499.127 159.020   8
  -3   7  12 3371.62 375.258   1
   3  -7 -12 2839.71 350.735   8
  -3   7  11 3774.56 385.871   1
   3  -7 -11 3255.44 356.728   8
  -3   7  10 3903.67 388.105   1
   3  -7 -10 4034.75 391.068   8
  -3   7   9 818.297 180.853   1
   3  -7  -9 948.947 200.014   8
  -3   7   8 690.400 174.449   1
   3  -7  -8 592.343 138.448   8
  -3   7   7 168.584 98.6237   1
  -3   7   7 72.3771 42.5031  10
   3  -7  -7 64.7356 77.5444   8
  -3   7   6 1881.28 267.594   1
   3  -7  -6 1935.94 230.989  11
  -3   7   6 1329.74 140.689  10
   3  -7  -6 1688.73 242.787   8
   3  -7  -5 210.661 91.6309  11
  -3   7   5 193.582 63.2390  10
   3  -7  -5-22.9312 101.803   3
  -3   7   5 244.256 107.070   1
   3  -7  -4 1230.36 192.984   6
   3  -7  -4 832.568 179.899   3
   3  -7  -4 1080.67 175.620  11
  -3   7   4 1164.18 148.994  10
   3  -7  -3 56.9499 71.0740   6
   3  -7  -3-99.2133 86.1971  11
  -3   7   3 37.3397 47.7441  10
   3  -7  -3 131.236 83.1702   3
   3  -7  -2 1680.44 208.209  11
  -3   7   2 1827.75 208.421  10
   3  -7  -2 1484.96 206.287   6
   3  -7  -2 1655.70 235.218   3
   3  -7  -1 2099.90 236.838   6
  -3   7   1 1968.62 226.896  10
   3  -7  -1 1930.40 227.109  11
   3  -7  -1 2077.75 277.736   3
   3  -7   0 148.725 80.6415   6
  -3   7   0 169.390 100.741  10
   3  -7   0-65.0375 84.0999   3
   3  -7   0 206.819 92.3313  11
  -3   7  -1 1262.08 195.074  11
   3  -7   1 1180.74 215.802   3
  -3   7  -1 1162.53 195.773  10
  -3   7  -2 8915.74 503.791  11
  -3   7  -2 9096.67 536.727  10
   3  -7   2 9685.42 577.045   3
  -3   7  -3 305.575 117.148  10
  -3   7  -3 460.562 126.249  11
   3  -7   3 488.037 141.632   3
  -3   7  -4 150.299 97.5133   9
  -3   7  -4 212.346 98.3358  10
  -3   7  -4 151.182 88.7520  11
   3  -7   4 135.734 89.9218   3
  -3   7  -5 175.613 106.553  11
  -3   7  -5 84.7515 83.9646  10
  -3   7  -5 200.845 96.9559   9
   3  -7   5 91.9624 111.798   3
  -3   7  -6-4.16526 73.8122  11
  -3   7  -6-58.4781 96.2755  10
  -3   7  -6 42.1943 84.2384   9
  -3   7  -7 18.1948 78.8660  10
  -3   7  -7-73.6474 82.4040   9
   3  -7   7-40.4386 85.0005   3
  -3   7  -7 101.210 90.9552  11
  -3   7  -8 242.556 113.949  11
  -3   7  -8 422.928 169.520  10
  -3   7  -8 126.552 74.1022   9
  -3   7  -9 75.9014 88.5675  11
  -3   7  -9 6.94477 80.9296   9
  -3   7 -10-94.5719 120.430  11
  -3   6  14 1805.20 286.366   1
   3  -6 -14 1522.68 262.915   8
  -3   6  13 130.758 101.687   1
   3  -6 -13-29.2497 75.4000   8
  -3   6  12 8.42180 70.0573   1
   3  -6 -12 73.6343 104.965   8
  -3   6  11 41.4692 70.9794   1
   3  -6 -11 149.058 92.4993   8
   3  -6 -11 156.053 87.9746   7
  -3   6  10 169.062 96.1958   1
   3  -6 -10 196.767 97.7080   8
  -3   6  10 33.6811 20.7783  10
   3  -6 -10 35.2674 60.9648   7
  -3   6   9-55.7187 76.4303   1
   3  -6  -9-69.8351 54.4749  11
  -3   6   9 21.9937 28.4494  10
   3  -6  -9 71.8034 99.6839   8
   3  -6  -9-49.0266 58.7784   7
  -3   6   8 462.591 137.539   1
  -3   6   8 716.241 87.0741  10
   3  -6  -8 960.926 187.629   8
   3  -6  -8 722.490 145.616  11
   3  -6  -8 428.971 89.9225   7
   3  -6  -7 84.0230 58.4500   7
   3  -6  -7-16.0489 50.6110  11
  -3   6   7 25.5201 28.7191  10
  -3   6   7 24.5096 84.8780   1
   3  -6  -7 36.5639 71.4342   8
  -3   6   6 1821.53 158.706  10
   3  -6  -6 1887.00 243.267   8
   3  -6  -6 1677.91 151.789   7
   3  -6  -6 2078.36 227.638  11
  -3   6   6 1871.68 243.823   1
   3  -6  -5 115.672 69.7651  11
  -3   6   5 161.908 58.3459  10
   3  -6  -5 161.349 95.3861   8
  -3   6   5 98.4281 84.1360   1
  -3   6   4-35.6831 56.9077   1
   3  -6  -4-86.9466 65.0671  11
   3  -6  -4-34.1005 70.9149   3
  -3   6   4-13.8897 56.7043  10
   3  -6  -3 454.565 104.825  11
   3  -6  -3 460.886 128.238   3
  -3   6   3 521.359 108.421  10
   3  -6  -3 306.622 101.075   6
   3  -6  -2 546.691 128.607   6
   3  -6  -2 609.057 122.921  11
  -3   6   2 636.832 121.987  10
   3  -6  -2 400.716 131.060   3
   3  -6  -1 647.762 134.179   6
   3  -6  -1 731.837 129.381  11
   3  -6  -1 522.237 127.281   3
  -3   6   1 672.403 128.181  10
  -3   6   1 536.186 55.3496   7
   3  -6   0 787.365 138.488  11
  -3   6   0 773.107 140.042  10
   3  -6   0 811.881 171.048   3
   3  -6   0 666.235 134.418   6
  -3   6   0 679.514 61.8518   7
  -3   6  -1 56.1808 47.5937  11
  -3   6  -1-78.4807 77.6745  10
   3  -6   1 66.0133 79.6872   3
  -3   6  -1-4.77767 15.6472   7
   3  -6   1-8.82808 45.6345  11
  -3   6  -2 2462.05 271.867  10
   3  -6   2 2653.86 290.601   3
  -3   6  -2 2597.26 254.329  11
  -3   6  -2 2157.67 129.491   7
  -3   6  -3 1020.70 166.987  11
  -3   6  -3 1192.44 192.339  10
   3  -6   3 1129.67 200.555   3
  -3   6  -3 887.797 92.7364   7
  -3   6  -4-15.4760 30.8205   7
  -3   6  -4-8.04082 75.0116  11
  -3   6  -4 125.597 89.0425  10
   3  -6   4 41.0935 63.0427   3
  -3   6  -5 371.997 78.5279   7
  -3   6  -5 627.229 142.713  11
  -3   6  -5 599.153 170.431  10
   3  -6   5 594.097 157.378   3
  -3   6  -6 990.185 174.811  11
  -3   6  -6 1008.77 210.113  10
  -3   6  -6 868.721 175.990   9
   3  -6   6 914.025 188.885   3
  -3   6  -7 117.493 77.8713  11
  -3   6  -7 365.945 145.279  10
  -3   6  -7 147.264 83.1368   9
   3  -6   7 117.552 93.8160   3
  -3   6  -8 387.694 132.538  11
  -3   6  -8 643.273 193.789  10
  -3   6  -8 457.261 114.578   9
   3  -6   8 388.747 141.964   3
  -3   6  -9 133.939 118.916  10
  -3   6  -9 117.701 87.2208   9
  -3   6  -9 113.583 105.214  11
   3  -6   9 10.3722 80.3823   3
  -3   6 -10-3.07543 64.7929  11
  -3   6 -10-92.6427 110.016  10
  -3   6 -10 28.4144 61.2164   9
   3  -6  10 0.20504 80.2632   3
  -3   6 -11 79.1470 107.460  11
  -3   6 -12 168.469 116.251  11
   3  -5 -15 455.695 162.745   8
  -3   5  15 570.384 175.179   1
   3  -5 -14 2752.40 340.546   8
  -3   5  14 2025.84 293.211   1
   3  -5 -13 1264.04 231.609   8
  -3   5  13 1062.70 198.795   1
  -3   5  12 580.536 174.539   1
   3  -5 -12 508.276 161.643   8
  -3   5  11 1584.01 240.904   1
  -3   5  11 1224.18 112.688  10
   3  -5 -11 1847.47 269.568   8
   3  -5 -11 1458.65 198.276   7
  -3   5  10 933.411 108.929  10
  -3   5  10 1311.52 207.711   1
   3  -5 -10 1555.31 235.054   8
   3  -5 -10 1339.35 183.176   7
  -3   5   9 808.938 175.630   1
   3  -5  -9 812.290 169.880   8
   3  -5  -9 852.249 133.921   7
   3  -5  -8 263.695 93.7637  11
  -3   5   8 280.825 61.6196  10
  -3   5   8 458.785 142.911   1
   3  -5  -8 283.147 123.904   8
   3  -5  -8 319.589 85.5830   7
   3  -5  -7 994.672 152.172  11
   3  -5  -7 722.267 155.888   8
  -3   5   7 822.564 107.530  10
  -3   5   7 868.774 169.624   1
   3  -5  -7 914.394 123.418   7
   3  -5  -6 3198.88 251.588  11
  -3   5   6 2948.17 202.106  10
  -3   5   6 2898.33 280.476   1
   3  -5  -6 2906.34 285.358   8
   3  -5  -6 2743.33 202.991   7
   3  -5  -5 1741.64 183.212  11
  -3   5   5 1847.28 167.729  10
  -3   5   5 1678.51 213.406   8
   3  -5  -5 1567.30 211.163   8
  -3   5   5 1801.77 158.001   7
  -3   5   5 1714.53 216.690   1
   3  -5  -5 1776.75 157.688   7
  -3   5   4 2606.21 203.160  10
  -3   5   4 2832.13 269.250   1
  -3   5   4 2942.90 277.022   8
   3  -5  -4 2717.00 270.370   8
   3  -5  -4 2463.09 213.191  11
  -3   5   4 2613.28 180.664   7
   3  -5  -4 2097.67 171.239   7
   3  -5  -3 8917.07 402.901  11
  -3   5   3 10075.1 503.708   1
  -3   5   3 9740.38 406.324  10
  -3   5   3 10628.4 503.469   8
  -3   5   3 9821.39 323.186   7
   3  -5  -3 9532.21 493.985   1
   3  -5  -2 12279.6 533.164   6
   3  -5  -2 12761.8 475.945  11
   3  -5  -2 14158.4 608.972   1
  -3   5   2 13235.0 494.934  10
   3  -5  -2 12661.6 581.896   3
  -3   5   2 13979.7 578.992   8
  -3   5   2 13813.9 361.000   7
   3  -5  -1 2562.55 241.954   6
  -3   5   1 2645.58 232.209  10
   3  -5  -1 2530.84 260.438   1
   3  -5  -1 2675.61 268.010   3
   3  -5  -1 2508.29 210.204  11
  -3   5   1 2596.35 244.851   8
  -3   5   1 2489.11 147.059   7
   3  -5   0 154.631 84.0328   6
  -3   5   0 216.088 87.6154  10
   3  -5   0 4.89073 81.4053   3
  -3   5   0 297.344 100.943   8
  -3   5   0 95.5200 33.8209   7
   3  -5   0 193.641 68.8830  11
   3  -5   1 3330.50 272.080   6
   3  -5   1 3837.82 268.753  11
  -3   5  -1 3582.83 290.310  10
   3  -5   1 4130.52 329.644   3
  -3   5  -1 4026.89 307.094   8
  -3   5  -1 3611.07 180.845   7
  -3   5  -1 3900.66 274.080  11
  -3   5  -2 330.817 88.7642  11
  -3   5  -2 420.544 112.030  10
   3  -5   2 575.637 142.040   3
  -3   5  -2 347.844 90.7382   8
  -3   5  -2 458.404 70.9488   7
  -3   5  -3 61.3271 37.3581   7
  -3   5  -3 104.500 56.3215  11
  -3   5  -3 198.636 103.996  10
   3  -5   3 129.679 87.5818   3
  -3   5  -3 10.4950 51.1240   8
  -3   5  -4-99.9836 67.6786  11
  -3   5  -4-50.0531 33.5165   7
  -3   5  -4-53.0816 73.8825  10
   3  -5   4 30.4786 91.1964   3
  -3   5  -5-145.302 89.3400  11
  -3   5  -5 13.9124 72.9350  10
   3  -5   5 64.7320 82.4750   3
  -3   5  -6 104.122 83.5452  10
   3  -5   6 185.600 117.920   3
  -3   5  -6 272.772 91.6576  11
  -3   5  -7-1.09686 61.0165  11
  -3   5  -7-130.191 74.6077  10
   3  -5   7-85.4660 76.7650   3
  -3   5  -8 53.5496 55.5795  11
  -3   5  -8 2.80900 86.4969  10
  -3   5  -8 9.16065 50.2042   9
  -3   5  -9 2637.24 299.314  11
   3  -5   9 2695.05 316.033   3
  -3   5  -9 1758.47 204.555   9
  -3   5  -9 2520.36 320.245  10
  -3   5 -10 18.6920 69.8078  11
  -3   5 -10 291.033 129.687  10
  -3   5 -10 105.277 52.7710   9
   3  -5  10 46.6195 85.5500   3
  -3   5 -11-11.8806 69.1812  11
  -3   5 -11 63.2162 57.4947   9
  -3   5 -11 159.391 110.224  10
   3  -5  11 156.513 95.5450   3
  -3   5 -12 63.0752 90.7336  11
  -3   5 -12 119.475 114.834  10
   3  -5  12 234.082 120.124   3
  -3   5 -13-168.373 104.082  11
  -3   4  16-44.5582 67.9295   1
   3  -4 -16 29.9132 86.0640   8
   3  -4 -15 324.585 144.055   8
  -3   4  15 53.4585 87.1225   1
   3  -4 -14 21.4610 87.9288   8
  -3   4  14 155.034 108.606   1
   3  -4 -13-54.6423 75.3461   8
  -3   4  13-6.35323 81.4896   1
   3  -4 -12 11.8769 77.4585   8
  -3   4  12 153.554 102.365   1
  -3   4  11 6209.82 436.690   1
  -3   4  11 5204.44 268.475  10
   3  -4 -11 5809.01 433.641   8
   3  -4 -11 5327.72 371.871   7
  -3   4  10 70.4273 76.9990   1
   3  -4 -10 196.198 107.028   8
  -3   4  10 127.798 50.6752  10
   3  -4 -10 139.270 77.2454   7
  -3   4   9 490.328 135.184   1
   3  -4  -9 480.739 129.450   8
   3  -4  -9 583.499 118.807   7
  -3   4   8 3682.42 315.333   1
   3  -4  -8 3722.29 323.817   8
   3  -4  -8 3333.00 260.060   7
   3  -4  -7 16604.0 647.164   1
  -3   4   7 16838.8 644.598   5
  -3   4   7 16409.0 632.555   1
   3  -4  -7 15663.0 639.783   8
  -3   4   7 15568.8 528.373   7
   3  -4  -7 15009.1 518.126   7
   3  -4  -6 164.287 79.2572   1
   3  -4  -6 131.330 66.7272  11
  -3   4   6 81.4620 63.1052   8
   3  -4  -6-6.93788 74.0352   8
  -3   4   6-8.49553 63.6456   1
   3  -4  -6-18.5432 43.8119   7
   3  -4  -5 8.81229 37.8660  11
  -3   4   5 24.8535 54.7013   1
   3  -4  -5 68.3878 63.0070   1
  -3   4   5 67.5649 67.8857   8
   3  -4  -5 71.8157 77.4101   8
   3  -4  -5 59.9365 53.2516   7
   3  -4  -4 64.8048 46.8597   7
   3  -4  -4 39.2117 37.7444  11
  -3   4   4 2.24269 42.8002  10
   3  -4  -4-55.5506 58.5012   1
  -3   4   4 6.31336 56.7283   1
  -3   4   4 59.5106 80.0171   8
   3  -4  -4-29.4800 64.6163   8
  -3   4   4 25.8235 35.1992   7
  -3   4   3 1497.01 157.044  10
  -3   4   3 1301.60 166.270   8
   3  -4  -3 1335.60 138.195  11
  -3   4   3 1365.46 178.486   1
   3  -4  -3 1382.33 191.901   8
  -3   4   3 1341.32 128.005   7
   3  -4  -3 1376.97 173.354   1
   3  -4  -3 1124.37 133.424   7
   3  -4  -2 2567.47 235.740   6
  -3   4   2 2717.84 212.985  10
   3  -4  -2 2475.93 183.366  11
   3  -4  -2 2561.90 250.829   3
  -3   4   2 2522.27 241.996   1
  -3   4   2 2773.42 245.992   8
   3  -4  -2 2731.56 247.853   1
  -3   4   2 2689.12 174.975   7
   3  -4  -1 497.176 119.747   6
   3  -4  -1 590.780 95.3799  11
   3  -4  -1 485.930 108.510   1
  -3   4   1 575.632 107.814  10
   3  -4  -1 440.291 119.996   3
  -3   4   1 584.163 118.805   8
  -3   4   1 537.051 78.9429   7
   3  -4   0 1.00620 60.1241   6
   3  -4   0 125.009 47.4845  11
  -3   4   0 151.469 77.0595  10
   3  -4   0 135.763 65.6360   1
   3  -4   0 196.729 72.9839   3
  -3   4   0 143.348 74.8906   8
  -3   4   0 132.775 41.5382   7
   3  -4   1 3498.95 271.674   6
  -3   4  -1 3556.75 281.825  10
   3  -4   1 3569.98 293.585   1
   3  -4   1 3633.57 287.381   3
  -3   4  -1 3880.34 291.938   8
  -3   4  -1 3304.65 223.247  11
  -3   4  -1 3436.04 191.633   7
  -3   4  -2 6964.68 331.542  11
  -3   4  -2 7073.76 400.220  10
   3  -4   2 7320.17 402.506   4
  -3   4  -2 7417.77 411.809   8
   3  -4   2 7671.32 423.126   1
   3  -4   2 6839.61 396.867   3
  -3   4  -2 6870.06 277.852   7
  -3   4  -3 1950.53 188.838  11
  -3   4  -3 2147.27 237.626  10
   3  -4   3 2128.69 220.216   4
   3  -4   3 2115.30 239.608   1
   3  -4   3 2097.57 227.733   3
  -3   4  -3 2036.01 213.673   8
  -3   4  -3 1961.17 160.951   7
  -3   4  -4 95.0356 45.0968  11
   3  -4   4 21.8118 45.8971   1
  -3   4  -4 4.42452 69.7185  10
   3  -4   4 108.164 85.1044   3
  -3   4  -4 178.510 85.3257   8
   3  -4   4 36.0950 59.2564   4
  -3   4  -5 132.044 76.1058   6
  -3   4  -5 119.963 55.3116  11
  -3   4  -5 51.7827 82.3599  10
   3  -4   5 213.905 87.0188   4
   3  -4   5 69.2405 84.0450   3
  -3   4  -6 14.6362 46.9364   6
  -3   4  -6 63.1639 47.2828  11
  -3   4  -6-64.2618 69.2601  10
   3  -4   6-7.47594 57.5846   3
  -3   4  -7 2215.97 238.995   6
  -3   4  -7 2167.13 265.358  10
   3  -4   7 2237.02 259.313   3
  -3   4  -7 2074.40 229.435  11
  -3   4  -8 4071.62 376.187  10
  -3   4  -8 4094.36 325.826  11
   3  -4   8 3981.40 347.290   3
  -3   4  -9 1144.70 222.330  10
  -3   4  -9 1116.77 155.241   9
  -3   4  -9 1148.12 187.549  11
   3  -4   9 1085.41 197.863   3
  -3   4 -10 2993.90 342.476  10
  -3   4 -10 2535.64 281.698  11
  -3   4 -10 2181.57 206.275   9
   3  -4  10 2807.12 311.281   3
  -3   4 -11-136.136 107.979  11
  -3   4 -11 103.165 121.133  10
  -3   4 -11 25.3945 51.7823   9
   3  -4  11 130.590 72.0229   3
  -3   4 -12 200.926 116.890  11
  -3   4 -12 448.404 159.511  10
   3  -4  12 488.896 153.145   3
  -3   4 -13 473.807 154.313  11
  -3   4 -13 543.105 184.776  10
   3  -4  13 407.500 145.495   3
  -3   4 -14 226.626 123.106  11
  -3   4 -15-57.8070 84.9268  11
  -3   3  17 518.529 173.190   1
  -3   3  16 91.9424 123.177   1
   3  -3 -16 78.1065 94.9899   8
  -3   3  15 1328.00 235.854   1
   3  -3 -15 1361.96 240.188   8
  -3   3  14 350.847 131.899   1
   3  -3 -14 448.583 146.800   8
  -3   3  13 150.413 62.7258  10
  -3   3  13 140.270 87.6992   1
   3  -3 -13 261.525 133.908   8
  -3   3  12-1.89114 37.5791  10
  -3   3  12 101.356 67.7269   1
   3  -3 -12-22.6534 70.1949   8
   3  -3 -11-41.5945 79.4685   8
  -3   3  11-3.38056 74.2064   1
  -3   3  10 6676.81 437.179   1
   3  -3 -10 7593.57 471.684   8
   3  -3 -10 7477.64 434.910   7
   3  -3  -9 610.725 141.245   8
   3  -3  -9 812.901 152.038   1
  -3   3   9 869.457 159.473   1
   3  -3  -9 637.004 127.145   7
   3  -3  -8 2071.16 231.432   1
  -3   3   8 2195.95 235.874   5
  -3   3   8 1874.25 214.798   1
   3  -3  -8 1700.56 211.735   8
  -3   3   8 1852.41 204.279   7
   3  -3  -8 1784.73 200.394   7
   3  -3  -7 6366.92 379.662   1
  -3   3   7 6495.23 390.755   5
  -3   3   7 6034.50 368.258   1
   3  -3  -7 5908.52 383.889   8
  -3   3   7 5804.43 328.638   7
   3  -3  -7 6574.63 353.714   7
   3  -3  -6 2281.76 231.898   1
  -3   3   6 2452.11 230.850   1
  -3   3   6 2418.48 240.806   8
   3  -3  -6 2132.46 236.407   8
   3  -3  -6 2539.09 212.000   7
   3  -3  -5 2036.21 205.408   1
  -3   3   5 1941.56 202.993   1
  -3   3   5 1939.19 212.254   8
   3  -3  -5 1882.49 216.538   8
   3  -3  -5 1763.54 169.941   7
   3  -3  -4 28.8616 37.6065   7
  -3   3   4-45.0812 75.9140   1
   3  -3  -4-11.3291 32.5106  11
   3  -3  -4-33.3867 45.1516   1
   3  -3  -4 28.7337 58.0610   8
   3  -3  -3 338.649 76.1170   7
   3  -3  -3 392.210 70.3927  11
   3  -3  -3 378.450 88.0646   1
   3  -3  -3 440.937 111.395   8
  -3   3   3 431.435 103.637   1
  -3   3   3 505.631 87.5716   7
   3  -3  -2 77.0083 49.0155   7
  -3   3   2 166.568 73.0136   1
   3  -3  -2 88.3222 41.1328  11
   3  -3  -2 215.037 87.6352   8
  -3   3   2 101.654 49.6219   7
   3  -3  -2 108.146 74.2780   1
   3  -3  -1 838.465 127.515   6
   3  -3  -1 849.745 92.9922  11
   3  -3  -1 1027.93 141.490   1
  -3   3   1 984.203 133.349  10
   3  -3  -1 881.155 130.903   3
  -3   3   1 853.986 100.437   7
   3  -3   0 2850.42 236.916   6
   3  -3   0 3089.94 177.027  11
  -3   3   0 3196.33 236.183  10
   3  -3   0 3028.91 244.059   3
   3  -3   0 3384.25 251.972   1
  -3   3   0 3176.45 190.022   7
   3  -3   1 1712.05 185.071   6
  -3   3  -1 1672.74 136.385  11
  -3   3  -1 1797.73 187.342  10
   3  -3   1 1821.37 186.989   3
  -3   3  -1 2065.31 209.513   8
   3  -3   1 2063.57 197.950   1
  -3   3  -1 1714.76 141.997   7
   3  -3   2 11160.3 453.538   6
  -3   3  -2 11579.2 471.643  10
   3  -3   2 11703.8 478.723   4
   3  -3   2 12103.9 485.181   1
   3  -3   2 11865.6 476.852   3
  -3   3  -2 12189.6 499.531   8
  -3   3  -2 11464.5 371.000  11
  -3   3  -2 11817.5 377.370   7
  -3   3  -3 3914.26 226.346  11
  -3   3  -3 3951.03 292.291  10
   3  -3   3 4264.41 295.735   1
   3  -3   3 3829.72 279.343   3
   3  -3   3 4047.75 286.298   4
  -3   3  -3 4032.91 294.475   8
  -3   3  -3 3565.90 216.986   7
  -3   3  -4 246.816 79.6756   6
  -3   3  -4 184.165 60.6500  11
  -3   3  -4 163.509 87.9650  10
   3  -3   4 154.909 76.6934   4
  -3   3  -4 158.943 84.3290   3
   3  -3   4 183.406 80.8248   3
   3  -3   4 155.001 73.6249   1
  -3   3  -5 3337.93 271.417   6
  -3   3  -5 3151.50 226.046  11
   3  -3   5 3213.33 269.028   4
  -3   3  -5 3155.31 284.857  10
  -3   3  -5 3315.59 280.620   3
   3  -3   5 3068.09 271.516   3
  -3   3  -6 840.446 141.231   6
  -3   3  -6 784.206 124.706  11
   3  -3   6 973.211 160.237   4
  -3   3  -6 913.256 151.430   3
  -3   3  -6 956.944 173.372  10
   3  -3   6 918.549 160.717   3
  -3   3  -7 247.507 76.5043   6
  -3   3  -7 183.182 70.8828  11
  -3   3  -7 276.709 96.4486   3
   3  -3   7 166.537 78.7293   3
  -3   3  -7 335.556 115.238  10
  -3   3  -8 194.322 123.402  10
  -3   3  -8 338.981 105.845  11
   3  -3   8 258.139 100.102   3
  -3   3  -8 412.889 114.777   6
  -3   3  -9-21.1679 49.5774  11
   3  -3   9 1.35875 59.7228   3
  -3   3 -10 277.117 109.834  11
  -3   3 -10 401.076 143.296  10
  -3   3 -10 111.642 55.3190   9
   3  -3  10 22.5347 60.5655   3
  -3   3 -11 46.0894 73.4376  11
  -3   3 -11-106.514 101.871  10
  -3   3 -11 67.8822 59.3738   9
   3  -3  11 0.62060 75.9269   3
  -3   3 -12 345.995 108.539  11
  -3   3 -12 274.761 142.408  10
  -3   3 -12 195.446 64.2345   9
   3  -3  12 323.580 139.090   3
  -3   3 -13 138.742 97.0093  11
  -3   3 -13 36.3954 80.1689   4
  -3   3 -13 90.1200 95.9734  10
   3  -3  13 69.6658 82.4204   3
  -3   3 -14 178.209 133.775  10
  -3   3 -14 280.679 118.647  11
  -3   3 -14 244.804 118.334   4
   3  -3  14 76.6311 97.1000   3
  -3   3 -15 303.274 129.150  11
  -3   3 -15-66.7762 76.4126   4
  -3   3 -15 154.882 147.694  10
   3  -3  15-22.5415 84.9757   3
  -3   3 -16 313.375 151.718  11
   3  -2 -17 2628.90 348.107   8
  -3   2  17 2094.05 301.899   1
  -3   2  16 864.542 205.201   1
   3  -2 -16 655.294 174.026   8
  -3   2  15-11.5887 85.3432   1
   3  -2 -15 26.9677 85.1541   8
  -3   2  14 90.8392 82.6688   1
  -3   2  14-6.82240 49.7765  10
   3  -2 -14 97.0474 98.7513   8
  -3   2  13-9.85762 76.9130   1
  -3   2  13 12.6087 57.7553  10
   3  -2 -13-25.6292 72.5082   8
  -3   2  12 886.544 160.188   1
  -3   2  12 760.279 132.273  10
   3  -2 -12 889.960 177.145   8
  -3   2  11 1942.30 197.765  10
  -3   2  11 1499.35 211.567   1
   3  -2 -11 1964.49 242.310   8
  -3   2  10 65.7372 62.8468  10
  -3   2  10 38.6108 57.7018   1
   3  -2 -10 2.94723 59.6511   1
   3  -2 -10-113.177 90.4074   8
   3  -2 -10 47.4307 76.9838   7
  -3   2   9 290.603 102.613   5
  -3   2   9 116.982 76.4965   1
   3  -2  -9 292.838 94.0996   1
   3  -2  -9 125.862 76.1603   8
  -3   2   9 294.930 93.5136   7
   3  -2  -9 359.095 104.603   7
  -3   2   8 142.809 74.6853   5
   3  -2  -8 80.7878 63.3767   8
  -3   2   8 80.6448 53.6066   1
   3  -2  -8 172.250 87.1823   1
  -3   2   8 125.723 70.3606   7
   3  -2  -8 144.561 75.4831   7
   3  -2  -7 1824.53 197.107   1
  -3   2   7 1703.75 191.485   1
  -3   2   7 1903.61 211.527   5
   3  -2  -7 1627.50 204.864   8
  -3   2   7 1851.48 197.823   7
   3  -2  -7 1962.05 201.798   7
  -3   2   6 507.686 109.159   1
  -3   2   6 823.542 136.938   5
  -3   2   6 957.712 147.835   8
   3  -2  -6 922.468 157.428   8
  -3   2   6 667.756 120.455   7
   3  -2  -6 742.192 121.079   7
   3  -2  -6 636.566 121.848   1
  -3   2   5 292.294 90.5319   1
   3  -2  -5 263.737 88.6592   8
   3  -2  -5 301.508 84.4945   1
   3  -2  -5 443.356 95.6561   7
  -3   2   4 2557.66 207.848   1
   3  -2  -4 2418.51 221.387   8
   3  -2  -4 2781.21 207.993   7
  -3   2   3 4499.62 270.171   1
   3  -2  -3 4220.79 284.347   8
  -3   2   3 4147.06 240.909   7
   3  -2  -3 4104.19 172.560  11
   3  -2  -3 4160.12 241.444   7
  -3   2   2 1954.75 184.057   1
   3  -2  -2 2080.22 205.382   8
  -3   2   2 2017.00 163.749   7
   3  -2  -2 1851.16 165.246   7
   3  -2  -2 1888.89 110.135  11
   3  -2  -1 7982.38 369.575   6
   3  -2  -1 7778.09 211.963  11
  -3   2   1 7850.13 348.239   1
  -3   2   1 8166.93 319.527   7
   3  -2   0 1869.41 180.018   6
   3  -2   0 1684.49 165.169   3
  -3   2   0 1678.62 145.937   7
   3  -2   1 13318.6 476.300   6
  -3   2  -1 13666.9 309.535  11
  -3   2  -1 13518.2 467.189  10
   3  -2   1 12892.5 449.122   3
  -3   2  -1 13052.6 400.441   7
   3  -2   2 15250.9 506.981   6
  -3   2  -2 15316.6 356.820  11
  -3   2  -2 14834.0 508.463  10
   3  -2   2 15607.2 500.825   3
  -3   2  -2 14523.2 440.298   7
   3  -2   2 15454.6 514.282   4
  -3   2  -3 5215.17 310.928  10
   3  -2   3 5347.58 308.301   4
   3  -2   3 4951.93 287.434   3
   3  -2   3 5384.69 306.393   1
  -3   2  -3 4992.63 222.057  11
  -3   2  -4 22.3315 49.5466   6
  -3   2  -4 93.4534 46.4551  11
  -3   2  -4 93.0237 63.2049   3
  -3   2  -4 8.81473 57.8515  10
   3  -2   4 72.2871 72.9146   4
   3  -2   4 68.8718 54.4020   3
  -3   2  -5 1886.20 196.941   6
  -3   2  -5 1672.25 194.649  10
   3  -2   5 1699.42 181.439   4
  -3   2  -5 1906.35 196.692   3
   3  -2   5 1944.51 200.137   3
  -3   2  -5 1868.53 159.272  11
  -3   2  -6 435.297 106.268   6
  -3   2  -6 530.930 119.935  10
  -3   2  -6 598.661 116.776   3
   3  -2   6 655.991 126.735   3
  -3   2  -6 490.583 97.0145  11
  -3   2  -7-24.0336 60.2336   6
  -3   2  -7 101.886 83.6736  10
  -3   2  -7-13.3885 41.3276  11
  -3   2  -7 4.92709 44.4403   3
   3  -2   7-85.0817 70.7365   3
  -3   2  -8 888.521 151.435   6
  -3   2  -8 811.898 146.843   3
  -3   2  -8 960.177 178.279  10
   3  -2   8 676.571 136.961   3
  -3   2  -9 131.521 83.3181   4
  -3   2  -9 117.443 80.9294  10
  -3   2  -9 51.3972 48.9863   3
  -3   2  -9 190.870 86.7964   6
   3  -2   9 151.569 78.7306   3
  -3   2 -10 1963.84 246.142  10
   3  -2  10 2049.48 236.470   3
  -3   2 -10 1988.88 236.098   4
  -3   2 -11 674.758 165.495  10
  -3   2 -11 308.376 66.5685   9
  -3   2 -11 441.160 135.969   4
   3  -2  11 215.150 113.618   3
  -3   2 -12 114.911 89.3974   4
  -3   2 -12 52.1380 86.5371  10
  -3   2 -12 26.1497 30.9868   9
   3  -2  12 43.6623 100.704   3
  -3   2 -13 59.4370 77.1893   4
  -3   2 -13-30.2577 83.8631  10
  -3   2 -14 312.797 123.261   4
  -3   2 -14 516.829 157.257  10
   3  -2  14 392.242 150.446   3
  -3   2 -15 25.8678 70.1264   4
  -3   2 -15 187.593 128.275  10
   3  -2  15 156.985 127.805   3
  -3   2 -16 441.174 151.542   4
  -3   2 -16 584.830 161.025  10
   3  -2  16 479.226 165.316   3
  -3   1  17 92.1494 77.5962   1
   3  -1 -17-63.4916 114.670   8
  -3   1  16-26.3650 67.7342   1
   3  -1 -16 110.116 83.6304   8
  -3   1  15 20.5837 76.4742   1
   3  -1 -15 306.499 149.961   8
  -3   1  14 15.1642 60.9516   1
   3  -1 -14 38.4193 26.3428   2
   3  -1 -14 72.0378 92.3583   8
  -3   1  13 74.0898 74.1276   1
  -3   1  13-13.1724 60.2399  10
   3  -1 -13-34.8595 91.4906   8
  -3   1  12 2721.46 279.266   1
  -3   1  12 3098.53 277.300  10
   3  -1 -12 2835.44 295.370   8
  -3   1  11 4017.56 319.967   1
  -3   1  11 4838.40 325.840  10
   3  -1 -11 5272.75 389.671   8
  -3   1  10 1829.01 212.659   1
  -3   1  10 1759.97 192.427  10
  -3   1  10 1974.22 230.922   5
   3  -1 -10 1816.61 225.659   8
   3  -1 -10 2180.86 253.590   7
  -3   1   9 456.486 117.733   5
  -3   1   9 427.822 107.407   1
  -3   1   9 278.308 86.3353  10
   3  -1  -9 529.440 121.007   1
   3  -1  -9 390.777 115.924   8
  -3   1   9 329.235 109.456   7
   3  -1  -9 505.792 119.153   7
  -3   1   8 887.504 150.041   5
  -3   1   8 764.936 127.357   1
   3  -1  -8 819.653 138.821   1
   3  -1  -8 826.065 147.218   8
  -3   1   8 725.722 141.437   7
   3  -1  -8 894.456 147.046   7
  -3   1   7 15746.0 530.826   1
  -3   1   7 16989.9 597.902   5
   3  -1  -7 16547.5 588.633   8
  -3   1   7 15881.3 563.394   7
   3  -1  -7 17643.6 595.098   7
   3  -1  -7 16898.4 559.232   1
  -3   1   6 345.000 95.8895   5
   3  -1  -6 192.046 83.0795   8
  -3   1   6 202.162 69.6864   1
  -3   1   6 216.921 81.3727   7
   3  -1  -6 285.272 93.7309   7
  -3   1   5 33.1126 51.3611   8
   3  -1  -5-34.8675 67.4872   8
  -3   1   5-24.9913 48.4039   1
   3  -1  -5-8.30013 43.4810   7
   3  -1  -4 1346.82 142.573   1
  -3   1   4 1806.10 165.286   1
   3  -1  -4 1767.56 185.237   8
   3  -1  -4 2014.99 179.617   7
   3  -1  -3 21102.8 524.882   1
  -3   1   3 22321.7 538.109   1
   3  -1  -3 23366.7 623.705   8
   3  -1  -3 23103.3 573.677   7
   3  -1  -2 3852.21 120.554  11
   3  -1  -2 5656.90 262.330   1
  -3   1   2 5197.51 263.888   1
   3  -1  -2 5321.36 294.642   8
  -3   1   2 5577.63 281.738   7
   3  -1  -2 5535.86 274.131   7
   3  -1  -1 1149.40 143.420   6
  -3   1   1 1232.96 140.852   7
   3  -1  -1 1379.84 145.354   7
  -3   1   1 1360.56 132.089   1
   3  -1  -1 1148.47 119.780   1
   3  -1   0 24959.9 620.649   6
   3  -1   0 25145.0 549.719   1
   3  -1   0 25185.3 563.651   3
  -3   1   0 25051.9 571.114   7
  -3   1  -1 7424.57 160.831  11
   3  -1   1 10537.6 402.173   6
   3  -1   1 10223.4 356.969   1
   3  -1   1 10155.9 363.461   3
  -3   1  -1 10052.7 361.217   7
   3  -1   2 5667.82 297.957   6
   3  -1   2 5098.39 282.755   4
   3  -1   2 5434.52 269.806   1
   3  -1   2 5296.89 261.002   3
  -3   1  -2 5223.37 164.774  11
  -3   1  -2 5260.04 267.588   7
  -3   1  -3 1026.92 144.075  10
   3  -1   3 994.639 130.203   4
  -3   1  -3 1039.24 86.5543  11
   3  -1   3 977.400 121.387   3
   3  -1   4 1632.82 167.961   4
  -3   1  -4 1372.24 165.723  10
  -3   1  -4 1435.11 150.845   3
   3  -1   4 1544.44 156.682   3
  -3   1  -5 2350.07 215.853  10
   3  -1   5 2709.96 223.836   4
  -3   1  -5 2244.67 196.818   3
   3  -1   5 2460.08 195.314   3
  -3   1  -6 1917.61 201.258  10
  -3   1  -6 2142.27 195.668   3
   3  -1   6 2008.49 186.516   3
  -3   1  -7 75.2043 66.2362  10
  -3   1  -7 113.143 78.5523   4
  -3   1  -7 102.926 56.2515   3
   3  -1   7 149.198 75.5875   3
  -3   1  -7 168.198 83.1087   6
  -3   1  -8 19.2605 52.7561   4
  -3   1  -8 135.570 79.1482  10
  -3   1  -8 68.9559 71.0231   3
   3  -1   8-45.7070 54.9170   3
  -3   1  -9 72.2177 53.0156   4
  -3   1  -9 150.486 92.6008  10
  -3   1  -9 212.349 82.6733   3
   3  -1   9 121.271 81.0084   3
  -3   1 -10 3003.98 291.442  10
  -3   1 -10 3457.92 297.451   4
  -3   1 -10 3148.44 280.576   3
   3  -1  10 3174.44 282.678   3
  -3   1 -11 11105.3 569.366  10
  -3   1 -11 11009.2 540.673   4
   3  -1  11 10968.5 528.223   3
  -3   1 -12 7682.12 494.406  10
  -3   1 -12 8122.35 480.243   4
   3  -1  12 7303.26 456.045   3
  -3   1 -13 36.1113 87.1576   4
  -3   1 -13 216.465 128.736  10
   3  -1  13 101.126 78.7058   3
   3  -1  14 22.2261 34.8565   2
  -3   1 -14 16.2416 64.5616   4
  -3   1 -14 113.551 92.1915  10
   3  -1  14 140.968 105.190   3
   3  -1  15 115.126 91.6520   3
  -3   1 -15 453.441 134.649   4
  -3   1 -15 269.202 125.380  10
   3  -1  16 230.097 117.116   3
  -3   1 -16 132.442 120.851  10
  -3   1 -16 304.019 126.094   4
   3  -1  17 42.7579 74.8700   3
  -3   1 -17 236.027 140.698  10
  -3   0  17 118.940 106.617   1
   3   0 -17 139.340 85.6601   8
  -3   0  16 65.0610 74.8742   1
   3   0 -16-32.4116 104.549   8
  -3   0  15 85.4239 70.8190   1
   3   0 -15 503.172 152.505   8
  -3   0  14 247.878 92.0089   1
   3   0 -14 171.173 43.8689   2
   3   0 -14 413.998 148.085   8
   3   0 -13 49.5103 35.2909   2
  -3   0  13-117.536 93.9302   1
   3   0 -13 29.3218 70.3023   8
  -3   0  12 23.9392 59.6833   1
   3   0 -12 27.1016 27.8897   2
  -3   0  12-27.7582 52.8923  10
   3   0 -12-15.9053 74.3916   8
  -3   0  11 425.412 112.676   1
   3   0 -11 368.022 70.9686   2
  -3   0  11 353.606 110.664  10
   3   0 -11 443.943 127.996   8
   3   0 -10 45.9558 42.7294   3
  -3   0  10 145.625 74.7718   5
  -3   0  10-15.9172 55.5917   1
  -3   0  10 153.740 79.2229  10
   3   0 -10 100.371 83.8724   8
  -3   0  10 84.7784 74.8991   7
   3   0  -9 208.975 75.6583   3
  -3   0   9 234.840 87.3999   1
  -3   0   9 252.004 98.7314   5
  -3   0   9 201.967 81.6966  10
   3   0  -9 203.272 85.0767   8
  -3   0   9 152.828 88.0604   7
   3   0  -9 309.310 101.437   7
  -3   0   8 5813.81 352.884   5
  -3   0   8 5469.09 331.580  10
   3   0  -8 5890.73 355.299   8
  -3   0   8 5088.19 308.474   1
   3   0  -8 5338.67 320.844   3
  -3   0   8 5528.03 361.450   7
   3   0  -8 6465.90 385.899   7
  -3   0   7 216.898 86.6174   5
  -3   0   7 119.094 64.4947   1
  -3   0   7 33.6942 46.7919  10
   3   0  -7 162.493 73.9224   8
  -3   0   7 113.365 81.7201   7
   3   0  -7 29.9097 55.9299   7
  -3   0   6 8211.96 388.752   5
   3   0  -6 7950.13 382.324   8
  -3   0   6 7634.44 335.210   1
   3   0  -6 8425.94 404.050   7
  -3   0   5 2800.78 193.490   1
   3   0  -5 2955.76 233.097   8
   3   0  -5 2838.54 226.694   7
   3   0  -5 2731.09 195.553   1
   3   0  -4 9938.24 346.178   1
  -3   0   4 10465.8 352.065   1
  -3   0   4 10957.0 417.274   8
   3   0  -4 10516.2 411.148   8
   3   0  -4 10527.8 415.351   7
   3   0  -3 1901.45 145.464   1
  -3   0   3 2036.52 153.510   1
  -3   0   3 2044.86 175.091   8
   3   0  -3 1893.52 175.769   8
   3   0  -3 2099.34 185.042   7
   3   0  -2 1611.60 129.029   1
  -3   0   2 1653.26 130.957   1
  -3   0   2 1470.12 147.676   8
   3   0  -2 1882.70 169.719   8
   3   0  -2 1735.35 161.235   7
   3   0  -1 588.365 97.8489   7
   3   0  -1 453.898 94.3936   6
   3   0  -1 456.823 71.5735   1
  -3   0   1 421.446 83.5484   8
   3   0  -1 607.287 102.656   8
  -3   0   1 684.003 86.1220   1
   3   0   0 2060.58 178.175   6
   3   0   0 1943.86 133.903   1
  -3   0   0 2226.82 183.348   8
   3   0   0 2003.85 167.356   7
   3   0   1 526.012 93.3919   6
   3   0   1 720.135 88.6352   3
   3   0   1 587.507 78.4892   1
   3   0   2 430.850 94.9172   6
   3   0   2 333.853 74.1955   4
   3   0   2 275.128 58.9580   3
   3   0   2 292.666 58.6275   1
   3   0   3 129.222 58.5228   4
  -3   0  -3 148.038 48.9033   3
   3   0   3 187.512 59.4586   3
   3   0   4 3735.38 236.951   4
  -3   0  -4 3744.67 212.698   3
   3   0   4 3842.35 209.862   3
  -3   0  -5 10556.9 425.631  10
  -3   0  -5 10347.6 414.312   4
  -3   0  -5 10979.5 382.983   3
   3   0   5 10432.2 357.759   3
  -3   0  -6 1794.87 190.290  10
  -3   0  -6 1525.89 174.358   4
  -3   0  -6 1582.16 159.752   3
   3   0   6 1622.24 153.205   3
  -3   0  -7 1708.85 189.641  10
  -3   0  -7 1639.28 185.444   4
  -3   0  -7 1553.99 162.764   3
   3   0   7 1846.14 170.579   3
  -3   0  -8 356.709 104.462  10
  -3   0  -8 527.801 109.883   4
  -3   0  -8 441.181 92.8205   3
   3   0   8 590.490 112.717   3
  -3   0  -9 5451.23 357.331  10
  -3   0  -9 5745.98 352.893   4
  -3   0  -9 5743.05 336.481   3
   3   0   9 5547.89 327.245   3
  -3   0 -10 10740.5 517.410  10
  -3   0 -10 11624.5 499.579   3
  -3   0 -10 10779.3 506.425   4
   3   0  10 10257.2 462.370   3
  -3   0 -11 38.8781 70.7259  10
  -3   0 -11 17.7019 81.6521   4
  -3   0 -11 151.115 81.1145   3
   3   0  11 102.284 72.4961   3
   3   0  12 801.048 110.673   2
  -3   0 -12 1148.83 192.956  10
  -3   0 -12 1239.54 197.252   4
   3   0  12 1260.59 187.665   3
   3   0  13 2030.18 164.909   2
  -3   0 -13 2884.91 307.985  10
   3   0  13 2712.81 279.717   3
  -3   0 -13 2723.11 282.477   4
   3   0  14 715.482 161.753   3
   3   0  14 545.351 85.2312   2
  -3   0 -14 1178.70 191.904   4
  -3   0 -14 1013.34 200.690  10
   3   0  15 149.371 98.2256   3
  -3   0 -15 115.111 75.1193   4
  -3   0 -15 226.380 110.914  10
   3   0  16 290.675 127.065   3
  -3   0 -16 458.901 145.946   4
  -3   0 -16 469.677 156.277  10
   3   0  17 432.374 152.543   3
  -3   0 -17 461.825 146.113   4
  -3   0 -17 303.804 128.537  10
   3   0  18 84.6275 82.9534   3
  -3   0 -18 195.070 122.733  10
   3   1 -17-194.634 106.175   8
  -3  -1  17 20.7826 78.1271   1
   3   1 -16 170.689 128.055   8
  -3  -1  16 143.892 118.222   1
   3   1 -15 422.091 144.867   8
  -3  -1  15 320.970 132.944   1
   3   1 -14 252.717 110.957   8
  -3  -1  14 257.871 120.908   1
   3   1 -13 131.566 38.6226   2
   3   1 -13 261.646 114.078   8
  -3  -1  13 98.1151 67.3679   1
  -3  -1  12 5554.45 393.130   1
   3   1 -12 4591.40 237.162   2
   3   1 -12 6130.40 422.768   8
  -3  -1  11 4055.26 321.791   1
   3   1 -11 3850.22 222.768   2
  -3  -1  11 4218.28 340.127  10
   3   1 -11 4214.80 335.784   8
  -3  -1  10 2043.97 222.823   1
   3   1 -10 2252.25 173.590   2
  -3  -1  10 2516.15 256.021  10
   3   1 -10 1828.18 216.525   3
   3   1 -10 2072.36 230.055   8
  -3  -1  10 1824.01 241.720   7
   3   1  -9 780.989 108.627   2
  -3  -1   9 631.783 138.207  10
  -3  -1   9 734.120 133.613   5
   3   1  -9 800.540 142.798   8
  -3  -1   9 717.296 153.982   7
   3   1  -9 739.073 147.724   7
  -3  -1   9 644.349 127.949   1
   3   1  -9 673.276 120.669   3
  -3  -1   8 784.952 125.727   1
   3   1  -8 705.388 124.683   3
  -3  -1   8 964.635 153.227   5
   3   1  -8 878.007 116.004   2
  -3  -1   8 1139.25 159.818  10
   3   1  -8 760.176 125.849   8
  -3  -1   8 956.331 172.602   7
   3   1  -8 1045.89 161.156   7
  -3  -1   7 2035.78 184.686   1
  -3  -1   7 2321.86 213.491   5
  -3  -1   7 2065.00 213.223  10
   3   1  -7 2251.50 177.978   2
   3   1  -7 2141.08 191.547   3
   3   1  -7 2142.71 204.892   8
   3   1  -7 2175.74 220.205   7
   3   1  -6 526.519 95.5403   2
  -3  -1   6 603.747 112.969   5
   3   1  -6 429.574 93.6882   8
  -3  -1   6 502.346 93.7984   1
   3   1  -6 650.393 122.158   7
  -3  -1   5 1408.59 131.416   1
  -3  -1   5 1479.69 154.099   5
   3   1  -5 1324.51 138.726   3
   3   1  -5 1452.68 155.719   8
   3   1  -5 1543.40 173.083   7
  -3  -1   4 10207.3 386.045   8
   3   1  -4 10701.3 391.552   8
  -3  -1   4 10000.5 321.723   1
   3   1  -4 10278.8 421.603   7
   3   1  -4 10298.1 328.235   1
   3   1  -3 5922.32 199.958  11
  -3  -1   3 6049.62 232.032   1
  -3  -1   3 6079.60 287.008   8
   3   1  -3 6328.05 292.560   8
   3   1  -3 5739.65 305.621   7
   3   1  -3 6118.32 233.237   1
   3   1  -2 1623.54 112.738   1
  -3  -1   2 1449.63 114.074   1
   3   1  -2 1497.44 89.4218  11
  -3  -1   2 1787.11 153.529   8
   3   1  -2 1729.93 153.274   8
   3   1  -2 1448.65 156.615   7
   3   1  -1 4280.97 234.480   6
   3   1  -1 3912.95 158.466   1
   3   1  -1 3165.89 114.231  11
  -3  -1   1 3864.87 165.373   1
  -3  -1   1 4042.02 224.014   8
   3   1  -1 4225.10 231.114   8
   3   1  -1 4045.64 245.202   7
   3   1   0 565.776 98.3693   7
   3   1   0 709.850 105.475   6
   3   1   0 562.673 59.8117   1
  -3  -1   0 650.896 93.1582   8
   3   1   1 4817.66 246.735   6
   3   1   1 4679.27 219.815   4
  -3  -1  -1 3262.43 93.4894  11
   3   1   1 4751.27 172.357   3
  -3  -1  -1 5156.62 255.329   8
   3   1   1 4626.83 169.081   1
   3   1   2-9.27893 69.1636   4
  -3  -1  -2-15.6330 44.0672   6
   3   1   2 20.4149 45.6715   1
   3   1   2-48.9813 26.2115   3
  -3  -1  -3 28022.1 625.332   6
   3   1   3 27690.3 562.434   4
  -3  -1  -3 28083.7 459.408   3
   3   1   3 28076.8 445.034   3
  -3  -1  -4 43787.0 751.837   4
  -3  -1  -4 44130.1 622.053   3
   3   1   4 44245.8 597.230   3
  -3  -1  -5 250.737 76.0673   4
  -3  -1  -5 293.512 59.7541   3
   3   1   5 265.534 58.7427   3
  -3  -1  -6 1822.43 178.062  10
  -3  -1  -6 1852.17 174.049   4
  -3  -1  -6 1966.67 157.349   3
   3   1   6 1751.86 139.630   3
  -3  -1  -7 2663.68 218.348   4
  -3  -1  -7 3033.67 235.079  10
  -3  -1  -7 2965.90 202.360   3
   3   1   7 2901.86 195.408   3
   3   1   8 1806.14 169.974   2
  -3  -1  -8 1735.50 187.378   4
  -3  -1  -8 1638.71 179.847  10
  -3  -1  -8 1848.10 174.344   3
   3   1   8 1830.86 169.905   3
   3   1   9 215.973 70.9928   2
  -3  -1  -9 261.940 84.1591  10
  -3  -1  -9 356.874 100.444   4
  -3  -1  -9 325.679 89.8160   3
   3   1   9 275.564 73.4880   3
   3   1  10 316.967 78.3878   2
  -3  -1 -10 252.380 95.0865  10
  -3  -1 -10 238.696 83.4751   4
  -3  -1 -10 317.205 84.5183   3
   3   1  10 264.917 78.5481   3
   3   1  11 1865.85 162.865   2
  -3  -1 -11 2384.52 246.886  10
  -3  -1 -11 2205.24 241.344   4
  -3  -1 -11 2034.01 216.302   3
   3   1  11 2172.76 218.999   3
   3   1  12 937.695 153.271   3
  -3  -1 -12 1065.35 174.907  10
   3   1  12 1016.34 121.468   2
  -3  -1 -12 1185.07 190.548   4
  -3  -1 -12 1205.94 172.090   3
   3   1  13 57.6384 59.1209   3
  -3  -1 -13 92.5505 71.3591  10
  -3  -1 -13 124.982 84.3818   4
   3   1  13 19.0390 44.0144   2
   3   1  14 29.2139 73.4645   3
  -3  -1 -14 38.8432 63.0746  10
  -3  -1 -14-26.1995 88.2726   4
   3   1  14-17.6865 43.8664   2
   3   1  15 158.258 100.914   3
  -3  -1 -15 65.1691 92.6565  10
  -3  -1 -15 75.6141 104.050   4
   3   1  15 9.17534 35.3517   2
   3   1  16 136.722 102.119   3
  -3  -1 -16 3.52274 75.5742  10
  -3  -1 -16 231.021 123.996   4
  -3  -1 -17 138.558 99.0458  10
  -3  -1 -17 86.6505 81.6397   4
  -3  -1 -18 160.695 80.5275   4
  -3  -1 -18 250.393 129.838  10
  -3  -1 -19 27.6416 84.3802  10
  -3  -1 -20-60.4117 86.1090  10
   3   2 -17 66.7677 100.265   8
  -3  -2  17 96.3643 116.397   1
   3   2 -16 192.094 114.598   8
  -3  -2  16 24.7828 79.3077   1
   3   2 -15 703.893 178.922   8
  -3  -2  15 375.380 140.193   1
   3   2 -14 407.664 125.826   8
  -3  -2  14 542.272 138.196   1
   3   2 -13 954.952 102.906   2
   3   2 -13 1787.32 243.421   8
  -3  -2  13 1119.26 193.041   1
   3   2 -12 1816.42 148.576   2
   3   2 -12 2614.86 274.885   8
  -3  -2  12 1971.86 241.134   1
   3   2 -11-22.7836 37.0321   2
   3   2 -11 1.88470 57.5570   8
  -3  -2  11 79.0997 67.3101   1
   3   2 -10 393.158 77.7720   2
   3   2 -10 390.328 109.823   8
  -3  -2  10 332.779 102.660   7
  -3  -2  10 300.289 96.6778   1
   3   2 -10 255.411 94.4039   3
  -3  -2   9 2185.48 219.859   1
   3   2  -9 2340.74 183.745   2
   3   2  -9 2545.60 239.134   3
   3   2  -9 2435.60 232.675   8
  -3  -2   9 2787.62 266.663  10
  -3  -2   9 2580.03 270.193   7
   3   2  -9 2653.33 270.154   7
  -3  -2   8 3293.99 246.996   1
   3   2  -8 3796.45 235.272   2
  -3  -2   8 3792.02 300.696  10
   3   2  -8 3244.70 250.215   3
   3   2  -8 3726.48 272.715   8
  -3  -2   8 3377.45 295.462   7
   3   2  -8 3775.51 304.465   7
   3   2  -7 1423.20 147.141   2
  -3  -2   7 1357.76 161.230   5
  -3  -2   7 1424.53 193.840  10
   3   2  -7 1363.59 161.777   8
  -3  -2   7 1245.65 143.679   1
  -3  -2   7 1364.72 189.916   7
   3   2  -7 1436.27 191.114   7
   3   2  -6 289.454 74.1471  11
   3   2  -6 341.516 85.2121   2
  -3  -2   6 329.827 103.094  10
   3   2  -6 347.002 83.2088   8
  -3  -2   6 436.152 94.9742   5
  -3  -2   6 291.972 75.6753   1
  -3  -2   6 424.727 100.418   7
   3   2  -6 453.912 107.694   7
   3   2  -5 1209.34 130.197  11
  -3  -2   5 1329.30 126.969   1
   3   2  -5 1443.86 150.040   2
  -3  -2   5 1433.80 147.767   5
   3   2  -5 1283.51 133.071   3
   3   2  -5 1236.06 135.941   8
   3   2  -5 1383.51 169.274   7
  -3  -2   4 1073.42 102.949   1
   3   2  -4 904.231 104.019  11
   3   2  -4 943.069 126.454   2
   3   2  -4 945.415 104.350   3
   3   2  -4 941.044 114.141   8
   3   2  -4 1171.37 149.825   7
   3   2  -3 14.7665 26.1902   3
   3   2  -3-25.4731 42.5278  11
  -3  -2   3-5.35312 26.6722   1
   3   2  -3-26.9012 57.4336   2
  -3  -2   3 10.0239 43.0623   8
   3   2  -3 56.9685 53.0498   8
   3   2  -3 25.7089 44.2494   7
   3   2  -2 2554.95 148.413  11
   3   2  -2 2433.26 193.158   2
  -3  -2   2 2347.40 115.094   1
   3   2  -2 2324.67 131.560   3
  -3  -2   2 2558.54 170.978   8
   3   2  -2 2657.80 174.731   8
   3   2  -2 2613.57 204.623   7
   3   2  -1 1258.83 144.965   7
   3   2  -1 1338.08 102.379  11
   3   2  -1 1323.91 150.795   2
  -3  -2   1 1114.98 71.1588   1
   3   2  -1 1256.54 118.970   6
  -3  -2   1 1346.57 128.648   8
   3   2   0 5825.86 253.926   6
   3   2   0 5880.97 197.452  11
   3   2   0 5973.18 206.979   4
  -3  -2   0 6107.19 194.580  11
  -3  -2   0 5796.89 247.304   8
   3   2   0 6463.56 308.576   7
   3   2   0 6429.09 319.229   2
   3   2   0 5746.05 129.913   1
  -3  -2  -1 923.631 76.6550  11
   3   2   1 886.138 107.458   6
   3   2   1 911.452 87.3524   4
   3   2   1 835.221 127.780   2
   3   2   1 717.949 50.3804   3
   3   2   1 644.240 45.2044   1
  -3  -2  -1 795.517 94.4095   8
  -3  -2  -2 472.249 59.3987  11
   3   2   2 404.203 41.3838   1
   3   2   2 408.145 99.2826   2
   3   2   2 484.922 75.7488   4
  -3  -2  -2 411.210 74.6327   6
   3   2   2 385.383 35.8864   3
  -3  -2  -3 1240.11 134.110   6
   3   2   3 1331.61 77.6933   3
   3   2   3 1184.17 160.224   2
  -3  -2  -4 12245.7 410.132   6
   3   2   4 12163.4 427.723   2
  -3  -2  -4 11710.1 362.256   4
  -3  -2  -4 11957.6 263.811   3
   3   2   4 12141.6 255.921   3
  -3  -2  -5 6017.25 277.234   4
  -3  -2  -5 6047.89 213.897   3
   3   2   5 6041.52 206.579   3
   3   2   5 5724.00 298.069   2
  -3  -2  -6 135.964 64.0115   4
   3   2   6 6.53814 54.3885   2
  -3  -2  -6 2.10803 37.2806   3
   3   2   6 13.9589 27.0164   3
   3   2   7 443.380 93.5280   2
  -3  -2  -7 452.119 96.3490   4
  -3  -2  -7 418.201 71.5434   3
   3   2   7 378.315 67.7253   3
   3   2   8 218.817 60.1052   3
   3   2   8 156.181 56.0132   2
  -3  -2  -8 348.988 104.580   4
  -3  -2  -8 197.702 62.3610   3
  -3  -2  -8 287.038 82.5740  10
   3   2   9 2.98216 35.4991   3
  -3  -2  -9 3.27866 49.3537  10
   3   2   9-19.7646 45.4461   2
  -3  -2  -9-8.56839 38.1357   3
   3   2  10 232.675 70.4545   3
  -3  -2 -10 276.716 86.1628  10
   3   2  10 261.825 74.0464   2
  -3  -2 -10 349.476 82.5497   3
   3   2  11 1754.53 161.546   2
  -3  -2 -11 1859.69 206.517  10
  -3  -2 -11 1210.03 87.1374   9
  -3  -2 -11 2043.70 198.150   3
   3   2  11 1956.57 194.652   3
   3   2  12 1243.73 168.528   3
  -3  -2 -12 1140.35 172.720  10
   3   2  12 1180.42 132.031   2
  -3  -2 -12 1062.17 156.843   3
   3   2  13 1356.86 186.811   3
  -3  -2 -13 1327.67 183.832  10
   3   2  13 1358.44 140.404   2
  -3  -2 -13 1654.13 204.756   3
  -3  -2 -14-32.1065 62.3250  10
   3   2  14 36.4554 43.5457   2
   3   2  15 295.765 66.4760   2
  -3  -2 -15 229.352 98.7122  10
  -3  -2 -16-8.91789 80.8839  10
   3   2  16 40.7383 93.7582   1
  -3  -2 -17 813.534 190.926  10
   3   2  17 1003.10 207.003   1
  -3  -2 -18-6.49956 75.0205  10
   3   2  18 16.3752 90.3536   1
  -3  -2 -19 2.57592 82.1406  10
  -3  -2 -20-53.0927 94.8844  10
   3   3 -17 159.663 117.265   8
  -3  -3  17 506.110 171.030   1
   3   3 -16 85.4590 114.422  11
  -3  -3  16 210.888 122.866   1
   3   3 -16 311.670 134.111   8
   3   3 -15-7.49242 94.0303  11
   3   3 -15 32.9670 79.1707   8
  -3  -3  15 120.491 89.4927   1
   3   3 -14 49.8389 62.4337   8
  -3  -3  14-7.35063 66.4520   1
   3   3 -14-53.2399 72.8749  11
   3   3 -13 3.61972 76.1003  11
   3   3 -13 165.474 84.0949   8
  -3  -3  13 143.795 101.228   1
   3   3 -13 81.4236 46.1198   2
   3   3 -12-38.3961 88.7277  11
   3   3 -12 155.758 83.7217   8
  -3  -3  12 24.2784 79.6544   1
   3   3 -12 73.5952 39.4371   2
   3   3 -11 706.011 138.557   8
  -3  -3  11 660.983 148.293   1
   3   3 -11 658.615 96.3137   2
   3   3 -11 699.632 158.853  11
   3   3 -10 358.045 103.057  11
   3   3 -10 482.410 116.696   8
   3   3 -10 417.474 86.6557   2
  -3  -3  10 272.109 92.7454   1
   3   3 -10 349.259 101.536   3
   3   3  -9 539.557 136.665  11
   3   3  -9 687.933 110.381   2
   3   3  -9 596.117 118.094   8
  -3  -3   9 423.350 102.803   1
  -3  -3   9 667.852 149.671   7
   3   3  -9 728.617 129.093   3
   3   3  -8 4748.88 274.587   2
  -3  -3   8 5602.16 383.487  10
   3   3  -8 5118.64 341.465  11
   3   3  -8 4874.50 306.777   3
   3   3  -8 4921.00 301.645   8
  -3  -3   8 5209.00 374.264   7
   3   3  -8 5299.95 368.582   7
  -3  -3   8 4649.30 291.963   1
   3   3  -7 1881.40 198.245  11
  -3  -3   7 1881.62 232.478  10
   3   3  -7 1684.09 169.820   2
   3   3  -7 1740.72 174.002   3
   3   3  -7 1939.95 182.416   8
   3   3  -7 1977.32 215.902   7
  -3  -3   7 1780.61 216.168   7
  -3  -3   7 1792.01 171.767   1
   3   3  -6 6370.45 339.141  11
  -3  -3   6 6975.80 317.286   5
  -3  -3   6 7234.37 421.252  10
   3   3  -6 6754.60 311.621   8
   3   3  -6 6554.76 329.097   2
  -3  -3   6 6411.44 382.857   7
   3   3  -6 7282.94 393.427   7
  -3  -3   6 6453.95 296.285   1
   3   3  -5 6629.67 322.480  11
  -3  -3   5 6839.12 297.695   5
   3   3  -5 6525.04 285.972   3
   3   3  -5 6680.74 290.994   8
   3   3  -5 6803.16 330.893   2
  -3  -3   5 6750.92 376.829   7
   3   3  -5 6926.18 368.928   7
  -3  -3   5 6353.89 270.223   1
   3   3  -4 5741.47 286.729  11
   3   3  -4 5307.93 294.408   2
  -3  -3   4 5499.81 262.491   5
   3   3  -4 5475.50 238.596   3
   3   3  -4 5831.98 256.876   8
  -3  -3   4 5814.68 338.812   7
   3   3  -4 5991.59 331.495   7
  -3  -3   4 5736.38 229.884   1
  -3  -3   3 13900.2 309.189   1
   3   3  -3 12819.1 458.788   2
   3   3  -3 13852.8 423.182  11
   3   3  -3 13156.1 329.159   3
   3   3  -3 14236.5 379.218   8
  -3  -3   3 14820.3 523.064   7
   3   3  -3 14794.8 500.354   7
  -3  -3   2 1327.00 78.5244   1
   3   3  -2 1343.06 152.419   2
   3   3  -2 1317.23 92.1060   3
   3   3  -2 1425.14 116.314   8
   3   3  -2 1287.35 129.835  11
  -3  -3   2 1528.57 174.206   7
   3   3  -2 1441.82 162.718   7
   3   3  -1 178.641 72.5732   7
   3   3  -1 133.740 46.3794   6
  -3  -3   1 285.287 63.9093  11
   3   3  -1 169.645 49.7631  11
   3   3  -1 162.897 31.2356   4
   3   3  -1 251.853 82.7897   2
  -3  -3   1 226.484 59.0553   8
   3   3  -1 170.702 26.9668   3
  -3  -3   1 379.003 99.3000   7
   3   3   0 4028.35 205.066  11
   3   3   0 3925.18 193.953   6
  -3  -3   0 3912.19 197.487  11
  -3  -3   0 3921.87 183.253   8
   3   3   0 4008.44 257.249   2
  -3  -3   0 3946.06 246.572   7
   3   3   0 4102.38 249.960   7
  -3  -3  -1 108.039 73.0365   7
  -3  -3  -1 207.493 60.1969  11
   3   3   1 224.265 80.8968   2
  -3  -3  -1 162.756 56.6493   8
  -3  -3  -2 4074.18 212.071   6
  -3  -3  -2 4157.66 210.964  11
   3   3   2 4678.66 285.176   2
   3   3   3 9866.38 171.015   1
  -3  -3  -3 10806.6 350.088   6
  -3  -3  -3 10501.9 295.065   4
  -3  -3  -3 10532.3 332.237  11
   3   3   3 11461.8 430.241   2
  -3  -3  -4 11511.6 378.487   6
  -3  -3  -4 11745.5 337.114   4
  -3  -3  -4 9815.28 185.110   3
   3   3   4 11527.5 431.487   2
   3   3   4 11556.0 247.247   1
   3   3   5 2554.97 212.507   2
  -3  -3  -5 2571.51 177.440   4
  -3  -3  -5 2770.83 123.457   3
   3   3   5 2565.10 143.287   1
   3   3   6 1252.55 154.213   2
  -3  -3  -6 1477.77 104.780   3
   3   3   6 1320.28 118.403   1
   3   3   7 3338.84 233.091   2
  -3  -3  -7 3461.86 180.989   3
   3   3   7 3309.95 207.739   1
  -3  -3  -8 2869.36 181.096   3
   3   3   8 2571.09 207.575   2
   3   3   8 2652.54 199.602   1
  -3  -3  -9 506.020 104.194  10
   3   3   9 465.724 101.018   2
  -3  -3  -9 484.089 78.2372   9
  -3  -3  -9 651.872 96.6311   3
   3   3   9 503.716 99.2763   1
  -3  -3 -10-77.5199 47.3977  10
   3   3  10-18.2963 51.4506   2
  -3  -3 -10-16.1910 34.8191   9
   3   3  10 40.5709 62.2537   1
  -3  -3 -10 7.02501 35.2125   3
  -3  -3 -11 110.242 77.9119  10
   3   3  11-2.39276 52.1142   1
  -3  -3 -11-7.59841 29.6633   9
   3   3  11 15.9081 47.2395   2
  -3  -3 -11 7.65412 39.7922   3
  -3  -3 -12 2105.25 219.199  10
  -3  -3 -12 2024.85 202.602   3
   3   3  12 1961.58 179.395   2
   3   3  12 1945.19 222.541   1
  -3  -3 -13 642.035 125.812  10
   3   3  13 611.172 141.651   1
   3   3  13 589.511 100.060   2
  -3  -3 -13 774.561 139.514   3
  -3  -3 -14 394.189 121.249  10
   3   3  14 314.144 123.960   1
   3   3  14 273.418 71.8104   2
  -3  -3 -14 403.168 112.929   3
   3   3  15 2755.82 197.821   2
  -3  -3 -15 3118.61 293.349  10
   3   3  15 3375.18 331.951   1
  -3  -3 -16 567.604 140.879  10
   3   3  16 449.643 131.864   1
   3   3  16 432.922 76.7920   2
  -3  -3 -17-63.1205 71.7470  10
   3   3  17 195.651 125.680   1
  -3  -3 -18 8.29807 68.1116  10
   3   3  18 66.8921 84.1948   1
  -3  -3 -19 309.018 125.631  10
   3   3  19 256.000 153.843   1
  -3  -3 -20 1.71551 76.0768  10
   3   4 -16 75.9795 74.5540   8
  -3  -4  16-89.4752 95.2411   1
   3   4 -15 198.039 126.057  11
   3   4 -15 138.489 90.7020   8
  -3  -4  15 87.9466 114.240   1
   3   4 -14-1.91451 79.7046  11
   3   4 -14 316.434 120.401   8
  -3  -4  14 218.769 95.1762   1
   3   4 -13 318.866 147.628  11
   3   4 -13 632.209 144.247   8
  -3  -4  13 639.932 163.889   1
   3   4 -12 1664.54 253.640  11
   3   4 -12 1801.74 173.280   2
   3   4 -12 2125.89 241.243   8
  -3  -4  12 1697.71 237.860   1
   3   4 -11 948.018 191.601  11
  -3  -4  11 695.085 151.511   1
   3   4 -11 1012.46 159.600   8
   3   4 -11 773.591 121.224   2
   3   4 -10 989.239 183.229  11
  -3  -4  10 927.395 152.970   1
   3   4 -10 954.537 152.540   8
   3   4 -10 845.442 124.732   2
   3   4  -9 788.470 148.955  11
  -3  -4   9 611.413 129.368   1
   3   4  -9 913.820 136.124   8
   3   4  -9 737.193 123.939   2
   3   4  -9 908.845 151.216   3
  -3  -4   9 675.039 150.058   7
   3   4  -8 2614.52 268.631  11
   3   4  -8 3026.92 234.061   2
   3   4  -8 2870.77 240.466   3
   3   4  -8 2966.68 226.541   8
  -3  -4   8 2760.61 290.196   7
   3   4  -8 3234.57 291.989   7
  -3  -4   8 2641.52 229.778   1
   3   4  -7 423.415 112.997  11
  -3  -4   7 436.945 95.2360   1
   3   4  -7 522.286 107.970   2
   3   4  -7 361.360 81.9247   8
   3   4  -7 280.925 73.8080   3
  -3  -4   7 369.288 123.274   7
   3   4  -7 450.484 109.335   7
   3   4  -6 599.313 125.213  11
  -3  -4   6 478.464 118.563  10
   3   4  -6 477.865 100.551   2
   3   4  -6 531.806 84.6685   8
  -3  -4   6 509.204 127.366   7
  -3  -4   6 595.397 100.415   1
   3   4  -6 595.386 124.227   7
   3   4  -5 4.70969 53.5698  11
  -3  -4   5 5.24810 47.9663  10
   3   4  -5-52.2716 56.5840   2
   3   4  -5-31.3903 41.2196   8
   3   4  -5-19.7876 38.0078   3
  -3  -4   5-30.3850 65.7225   7
  -3  -4   5 17.6387 42.9855   1
   3   4  -5 88.3270 69.8030   7
  -3  -4   4 534.446 78.4385   5
  -3  -4   4 718.031 132.363  10
   3   4  -4 515.686 107.257  11
   3   4  -4 656.059 114.664   2
   3   4  -4 579.701 75.9646   8
   3   4  -4 576.169 80.6731   3
  -3  -4   4 531.354 118.956   7
  -3  -4   4 575.624 84.6835   1
   3   4  -4 605.636 116.581   7
  -3  -4   3 1747.13 188.087   2
   3   4  -3 1853.93 178.910  11
   3   4  -3 2043.76 196.260   2
  -3  -4   3 2277.93 145.976   5
  -3  -4   3 2162.90 216.331  10
   3   4  -3 1923.78 134.113   3
   3   4  -3 2042.59 130.278   8
  -3  -4   3 1771.43 189.747   7
   3   4  -3 2231.42 196.933   7
  -3  -4   3 2003.45 126.323   1
   3   4  -2 1288.92 146.003   7
   3   4  -2 1173.03 100.107   6
   3   4  -2 1118.61 131.622  11
  -3  -4   2 930.532 137.619   2
   3   4  -2 1064.12 88.9974   3
   3   4  -2 1110.59 151.226   2
  -3  -4   2 1057.80 147.888   7
  -3  -4   2 1172.53 81.8041   1
   3   4  -1 715.241 113.059   7
   3   4  -1 629.060 71.5839   6
   3   4  -1 758.578 111.417  11
  -3  -4   1 635.723 115.886   2
  -3  -4   1 473.772 42.9272   1
   3   4  -1 675.552 61.1157   3
   3   4  -1 569.126 115.033   2
  -3  -4   1 594.715 97.8656  11
  -3  -4   1 671.991 120.237   7
  -3  -4   1 650.751 46.4182   1
   3   4   0 197.856 70.7073   7
  -3  -4   0 123.715 58.7148  11
   3   4   0 91.1625 50.1023  11
  -3  -4   0 167.667 65.2418   2
   3   4   0 73.5257 63.1075   2
  -3  -4   0 130.310 39.5052   8
  -3  -4   0 222.104 73.7373   7
  -3  -4  -1 693.789 98.6301  11
   3   4   1 723.695 119.659   2
  -3  -4  -1 677.528 70.1490   8
  -3  -4  -1 639.910 106.447   7
  -3  -4  -2 902.741 119.154   7
  -3  -4  -2 964.619 98.8585   6
  -3  -4  -2 1066.93 118.818  11
   3   4   2 1000.99 133.989   2
  -3  -4  -2 1037.44 89.2176   8
  -3  -4  -3 71.4949 59.8410   7
  -3  -4  -3 56.5863 36.8049   4
  -3  -4  -3 33.6129 49.4516  11
   3   4   3 89.9234 56.7387   2
  -3  -4  -3 45.5959 36.7726   6
  -3  -4  -4 1157.20 144.189   7
  -3  -4  -4 1072.67 98.4082   4
   3   4   4 966.088 66.7050   1
  -3  -4  -4 1145.60 127.572  11
   3   4   4 1205.91 158.850   2
   3   4   5 2092.13 117.642   1
  -3  -4  -5 2121.19 200.066   2
   3   4   5 2164.75 198.360   2
  -3  -4  -5 1924.38 92.7286   3
   3   4   6 2643.10 155.048   1
  -3  -4  -6 2760.11 222.543   2
  -3  -4  -6 2726.78 131.225   3
   3   4   6 2556.67 218.266   2
   3   4   7 12074.1 368.862   1
  -3  -4  -7 12130.3 461.755   2
   3   4   7 11692.4 458.359   2
  -3  -4  -7 11651.8 409.063   9
  -3  -4  -7 11379.7 309.242   3
  -3  -4  -8 130.543 62.3216   9
   3   4   8 118.323 63.0823   2
   3   4   8 103.911 54.9376   1
  -3  -4  -8 156.915 50.7335   3
   3   4   9 2775.89 214.966   1
   3   4   9 2936.71 234.588   2
  -3  -4  -9 2955.98 216.046  10
  -3  -4  -9 2847.48 199.656   9
  -3  -4  -9 2709.12 184.653   3
  -3  -4 -10 375.833 83.7116  10
  -3  -4 -10 385.182 79.9178   9
   3   4  10 412.778 96.1200   2
   3   4  10 410.644 96.2316   1
  -3  -4 -10 466.841 91.2946   3
  -3  -4 -11 1205.25 149.119  10
  -3  -4 -11 1276.46 124.178   9
   3   4  11 1207.52 150.823   2
   3   4  11 1095.47 157.942   1
  -3  -4 -11 1173.14 143.893   3
  -3  -4 -12 155.746 67.8675  10
   3   4  12 232.872 77.5024   2
   3   4  12 99.9435 76.1362   1
  -3  -4 -12 217.456 71.2864   3
  -3  -4 -13 116.228 80.0693  10
   3   4  13 175.912 87.1256   1
   3   4  13 160.549 77.6757   2
  -3  -4 -13 143.510 75.5890   3
  -3  -4 -14-22.0250 53.6016  10
   3   4  14 85.2675 84.7233   1
   3   4  14 70.5383 57.1835   2
  -3  -4 -14-114.232 69.9799   3
  -3  -4 -15 79.3634 75.8819  10
   3   4  15-1.83916 67.0388   1
   3   4  15 84.3413 54.3913   2
  -3  -4 -16 306.901 107.541  10
   3   4  16 49.4540 82.9980   1
   3   4  16 349.007 85.1576   2
  -3  -4 -17 217.173 96.3989  10
   3   4  17-34.5263 86.9272   1
  -3  -4 -18 29.9749 82.0570  10
   3   4  18 66.4858 102.930   1
  -3  -4 -19 111.067 68.6850  10
   3   4  19 196.181 95.9775   1
  -3  -5  15 164.772 114.503   1
   3   5 -14 77.0868 106.275  11
  -3  -5  14 77.9074 85.4291   1
   3   5 -14 51.1780 55.7441   8
   3   5 -13 110.418 104.161  11
  -3  -5  13 10.4168 68.6660   1
   3   5 -13-8.56574 58.0866   8
   3   5 -12 43.0138 85.0845  11
  -3  -5  12 44.1421 89.0535   1
   3   5 -12 180.118 87.6452   8
   3   5 -11 1329.42 239.958  11
  -3  -5  11 1358.56 211.926   1
   3   5 -11 1639.66 199.123   8
   3   5 -10 530.091 145.630  11
   3   5 -10 452.254 107.870   8
   3   5 -10 430.493 100.715   2
  -3  -5  10 486.968 137.282   1
   3   5  -9 7677.89 400.174   2
   3   5  -9 7273.19 477.382  11
   3   5  -9 7557.07 427.678   3
   3   5  -9 7878.49 376.184   8
  -3  -5   8 1124.63 171.599   3
   3   5  -8 1151.24 193.394  11
   3   5  -8 1224.29 112.317   4
   3   5  -8 976.263 130.977   8
   3   5  -8 1420.99 177.840   3
   3   5  -8 1204.63 162.193   2
  -3  -5   8 877.649 184.433   7
  -3  -5   7 328.424 93.3143   3
   3   5  -7 245.075 112.604  11
   3   5  -7 303.277 52.9586   4
  -3  -5   7 400.096 121.886   9
   3   5  -7 242.828 67.1472   8
   3   5  -7 202.766 87.4949   2
   3   5  -7 304.411 83.3940   3
  -3  -5   7 333.815 118.856   7
   3   5  -7 271.052 94.6050   7
  -3  -5   6 955.967 142.013   3
   3   5  -6 1046.49 157.944  11
  -3  -5   6 1090.54 156.143   2
   3   5  -6 1092.58 79.0765   4
   3   5  -6 1052.88 112.184   8
   3   5  -6 1094.40 158.097   2
   3   5  -6 1074.77 135.690   3
  -3  -5   6 942.252 164.133   7
   3   5  -6 1356.66 180.332   7
  -3  -5   5 249.014 78.1810   3
   3   5  -5 161.807 73.0488  11
  -3  -5   5 151.803 77.2170   2
  -3  -5   5 77.5577 65.9635  10
   3   5  -5 188.871 49.1810   8
   3   5  -5 200.665 73.8919   2
  -3  -5   5 191.361 89.1102   7
   3   5  -5 149.078 52.2228   7
  -3  -5   4 3.56541 34.1324   3
   3   5  -4 15.8463 51.3635  11
  -3  -5   4 46.8617 50.2555   2
  -3  -5   4 46.3541 56.7047  10
   3   5  -4 90.9002 74.0966   2
   3   5  -4 33.6432 27.5984   8
   3   5  -4 1.99888 39.8721   3
  -3  -5   4 14.2708 56.8190   7
   3   5  -4 122.397 68.5848   7
   3   5  -3 445.241 90.1440   7
  -3  -5   3 339.615 71.2318   3
   3   5  -3 472.610 55.7913   6
   3   5  -3 463.120 110.147  11
  -3  -5   3 428.072 99.8660   2
  -3  -5   3 330.968 103.609  10
   3   5  -3 513.407 112.852   2
   3   5  -3 396.958 67.0995   3
   3   5  -3 423.073 50.6738   8
  -3  -5   3 334.916 92.2830   7
  -3  -5   2 286.705 87.1416  11
   3   5  -2 300.341 87.0047   7
   3   5  -2 302.787 88.7846  11
  -3  -5   2 319.554 81.3251   2
  -3  -5   2 347.000 101.589  10
   3   5  -2 335.092 82.8138   2
   3   5  -2 361.145 55.8178   3
  -3  -5   2 250.967 43.2787   5
  -3  -5   2 325.440 89.8393   7
  -3  -5   2 312.159 62.4041   3
   3   5  -1 5053.72 319.856   2
   3   5  -1 4724.77 297.514  11
  -3  -5   1 4428.60 157.398   5
  -3  -5   1 5294.05 326.735  10
  -3  -5   1 4421.44 157.831   1
  -3  -5   1 4720.81 301.190  11
   3   5  -1 4548.22 179.951   3
  -3  -5   1 4876.93 185.296   3
  -3  -5   1 5133.55 305.305   7
   3   5  -1 4802.57 280.181   7
  -3  -5   1 4861.46 317.628   2
  -3  -5   0 3539.92 247.844  11
  -3  -5   0 3556.57 272.429   2
   3   5   0 3570.61 257.371  11
   3   5   0 3385.05 264.953   2
  -3  -5   0 2918.25 112.322   1
  -3  -5   0 3270.88 129.048   3
  -3  -5   0 3373.38 243.341   7
   3   5   0 3439.51 233.632   7
   3   5   1 2841.62 254.121   2
  -3  -5  -1 2295.31 91.4161   1
  -3  -5  -1 3384.93 276.218   2
  -3  -5  -1 2937.33 109.309   3
  -3  -5  -1 2654.47 102.354   8
   3   5   1 2504.20 224.870  11
  -3  -5  -1 3571.39 258.345   7
   3   5   2 14894.7 543.904   2
  -3  -5  -2 14381.0 526.592   9
  -3  -5  -2 13988.7 188.686   3
  -3  -5  -2 13682.0 254.187   8
  -3  -5  -2 14184.8 477.655   7
  -3  -5  -2 13469.8 207.175   1
  -3  -5  -3 9599.33 292.170   6
   3   5   3 10073.6 450.229   2
  -3  -5  -3 9578.30 230.616   4
  -3  -5  -3 8603.94 150.187   3
  -3  -5  -3 9795.05 436.381   9
  -3  -5  -3 9581.47 395.587   7
   3   5   4 12082.5 495.831   2
   3   5   4 11698.5 247.507   1
  -3  -5  -4 11028.6 203.619   3
  -3  -5  -4 12475.7 479.194   9
  -3  -5  -4 11801.8 200.202   3
  -3  -5  -4 11932.7 436.627   7
  -3  -5  -5 899.304 131.408   7
  -3  -5  -5 962.624 134.710  11
   3   5   5 1019.58 84.7140   1
  -3  -5  -5 855.442 137.032   2
  -3  -5  -5 1153.22 152.127   9
  -3  -5  -5 960.899 71.3434   3
   3   5   5 960.477 149.563   2
   3   5   6 969.764 92.4981   1
  -3  -5  -6 917.997 133.871  11
  -3  -5  -6 1029.20 145.125   2
  -3  -5  -6 1146.12 149.897   9
  -3  -5  -6 967.676 83.9320   3
   3   5   6 976.167 148.996   2
   3   5   7 210.979 55.2119   1
  -3  -5  -7 194.138 80.0642   2
  -3  -5  -7 235.659 74.7840   9
   3   5   7 240.431 85.8893   2
  -3  -5  -7 216.060 51.1469   3
   3   5   8 2561.76 184.490   1
  -3  -5  -8 2494.31 228.668   2
   3   5   8 2711.82 236.977   2
  -3  -5  -8 2917.92 227.028   9
  -3  -5  -8 2539.35 165.011   3
   3   5   9 1737.19 167.731   1
  -3  -5  -9 1852.60 197.955   2
  -3  -5  -9 1742.56 175.323   9
  -3  -5  -9 1633.74 145.672   3
   3   5   9 1661.46 187.888   2
   3   5  10 5365.14 305.852   1
  -3  -5 -10 5324.59 330.977   2
   3   5  10 5459.83 335.726   2
  -3  -5 -10 5462.46 287.314  10
  -3  -5 -10 5383.75 295.690   9
  -3  -5 -10 5540.84 281.685   3
   3   5  11 4455.51 301.149   1
  -3  -5 -11 4830.41 315.414   2
   3   5  11 4364.02 302.386   2
  -3  -5 -11 4399.03 266.339  10
  -3  -5 -11 4677.01 277.664   3
   3   5  12 931.288 149.359   2
   3   5  12 1002.34 159.729   1
  -3  -5 -12 1071.40 146.898   3
  -3  -5 -12 1032.54 142.303  10
  -3  -5 -13-20.0513 55.7644  10
   3   5  13 16.2859 52.1349   2
   3   5  13 147.509 89.2763   1
  -3  -5 -13 44.9708 53.2872   3
  -3  -5 -14 900.834 151.704  10
   3   5  14 917.239 144.331   2
   3   5  14 695.969 152.185   1
  -3  -5 -14 618.500 130.601   3
  -3  -5 -15 995.276 159.733  10
   3   5  15 917.794 148.032   2
   3   5  15 924.707 179.058   1
  -3  -5 -16-3.12685 61.1876  10
   3   5  16 122.708 84.2167   1
   3   5  16 34.3628 47.3805   2
  -3  -5 -17 150.275 89.6068  10
   3   5  17 178.613 92.0965   1
  -3  -5 -18 188.470 104.587  10
   3   5  18 138.364 110.247   1
   3   5  19 539.258 159.797   1
  -3  -6  14-127.611 100.101   1
  -3  -6  13 120.949 80.1013   1
   3   6 -12 56.8059 88.9924  11
  -3  -6  12 226.241 100.461   1
   3   6 -11-217.512 117.199  11
   3   6 -11 85.3626 58.8347   8
  -3  -6  10 632.669 148.047   3
   3   6 -10 734.548 173.602  11
   3   6 -10 819.461 126.435   8
   3   6  -9 2176.30 276.778  11
   3   6  -9 2435.12 245.410   2
   3   6  -9 1973.04 183.764   8
  -3  -6   9 1705.87 222.689   3
  -3  -6   8 342.013 111.085   3
  -3  -6   8 535.419 130.395   2
   3   6  -8 405.884 132.141  11
   3   6  -8 347.095 75.6903   8
   3   6  -8 304.850 90.8433   3
  -3  -6   8 409.023 130.010   7
   3   6  -8 383.585 104.409   2
  -3  -6   7 73.1524 60.6647   3
   3   6  -7 110.826 90.2870  11
  -3  -6   7 137.170 72.5323   2
   3   6  -7 97.7437 41.5901   8
   3   6  -7 205.553 84.7652   3
   3   6  -7 105.748 65.0860   2
  -3  -6   7 212.285 97.2807   7
  -3  -6   6 1011.14 144.518   3
   3   6  -6 1175.30 184.966  11
  -3  -6   6 1027.56 157.020   2
   3   6  -6 1082.30 101.112   8
   3   6  -6 1002.00 140.746   3
   3   6  -6 1094.26 170.396   2
  -3  -6   6 814.643 164.471   7
   3   6  -6 1021.71 170.821   7
   3   6  -5 3600.64 319.646  11
  -3  -6   5 3588.66 295.945   2
   3   6  -5 3967.92 308.568   2
   3   6  -5 3533.56 245.657   3
  -3  -6   5 3373.29 248.024   3
   3   6  -5 3673.79 163.061   8
  -3  -6   5 3191.75 289.551   7
   3   6  -5 3561.32 285.004   7
   3   6  -4 3686.00 119.035   6
   3   6  -4 4707.46 350.823  11
  -3  -6   4 4522.76 335.713   2
   3   6  -4 4603.11 336.052   2
  -3  -6   4 4048.75 253.665   3
   3   6  -4 4048.47 139.103   8
  -3  -6   4 4420.11 320.345   7
   3   6  -4 4790.57 309.490   7
   3   6  -3 2089.77 227.552  11
  -3  -6   3 2251.00 234.855   2
   3   6  -3 2300.25 231.918   2
  -3  -6   3 2567.65 259.621  10
   3   6  -3 2069.25 164.285   3
  -3  -6   3 2040.92 229.791   9
  -3  -6   3 1919.64 167.669   3
  -3  -6   3 2222.53 222.207   7
   3   6  -3 2541.84 221.417   7
   3   6  -2 459.075 95.0440   7
   3   6  -2 499.419 111.804  11
  -3  -6   2 294.510 103.028   2
  -3  -6   2 448.492 124.271  10
  -3  -6   2 562.637 141.060   9
   3   6  -2 421.742 72.1662   3
   3   6  -2 557.927 127.838   2
  -3  -6   2 370.658 67.5036   1
  -3  -6   2 412.798 101.736   7
  -3  -6   2 343.748 100.427  11
  -3  -6   2 251.900 62.6623   3
   3   6  -1 1195.83 148.040   7
  -3  -6   1 807.441 148.053  11
   3   6  -1 1085.88 165.036  11
  -3  -6   1 955.535 90.9302   1
  -3  -6   1 1000.58 170.744   2
  -3  -6   1 971.742 147.619  10
  -3  -6   1 1064.63 106.423   3
  -3  -6   1 930.997 149.732   9
   3   6  -1 831.065 146.033   2
  -3  -6   1 1072.24 151.941   7
  -3  -6   0 107.702 59.7129  11
   3   6   0 36.0874 60.5767  11
  -3  -6   0 192.968 97.1404   2
  -3  -6   0 224.643 90.5702  10
  -3  -6   0 197.641 85.3194   9
   3   6   0 64.5330 74.0887   2
  -3  -6   0 50.8323 28.8747   3
  -3  -6   0 67.2689 36.2835   1
  -3  -6   0 304.425 101.380   7
  -3  -6  -1 4028.14 286.820  11
  -3  -6  -1 4134.65 309.455   2
   3   6   1 3662.49 276.844  11
  -3  -6  -1 3618.17 151.943   1
   3   6   1 3886.83 296.174   2
  -3  -6  -1 4124.30 292.596  10
  -3  -6  -1 3429.62 289.510   9
  -3  -6  -1 3819.02 161.627   3
  -3  -6  -1 3622.22 250.823   7
  -3  -6  -2 2065.82 114.645   1
  -3  -6  -2 2288.52 220.891  11
  -3  -6  -2 2004.07 218.742   2
   3   6   2 1773.62 212.437   2
  -3  -6  -2 2410.34 213.117  10
  -3  -6  -2 2315.14 119.890   3
  -3  -6  -2 2032.74 223.527   9
  -3  -6  -2 1966.58 187.482   7
  -3  -6  -3 3530.52 151.797   1
  -3  -6  -3 3504.34 157.181   6
  -3  -6  -3 3836.74 299.172   2
   3   6   3 3639.46 287.542   2
  -3  -6  -3 3655.32 144.181   3
  -3  -6  -3 3568.34 284.473   9
  -3  -6  -3 2972.05 95.0803   8
  -3  -6  -3 3579.73 242.180   7
  -3  -6  -3 3758.46 282.312  11
  -3  -6  -4 673.513 105.579   7
  -3  -6  -4 757.665 86.4082   6
  -3  -6  -4 754.796 132.657  11
  -3  -6  -4 757.178 141.243   2
  -3  -6  -4 746.687 135.649   9
  -3  -6  -4 678.968 69.8473   1
  -3  -6  -4 740.427 66.4231   3
   3   6   4 832.717 142.553   2
  -3  -6  -5 35.2362 48.2143   7
   3   6   5-36.3005 30.1312   1
  -3  -6  -5-26.8486 57.0589  11
  -3  -6  -5 14.0979 52.3640   2
  -3  -6  -5 21.8525 29.1206   3
  -3  -6  -5 30.9684 56.5074   9
   3   6   5-24.7017 59.3400   2
  -3  -6  -5 123.120 60.3976   1
  -3  -6  -6 1093.98 142.442   7
  -3  -6  -6 1172.73 166.694  11
   3   6   6 1092.68 105.294   1
  -3  -6  -6 1133.88 162.749   2
  -3  -6  -6 1165.21 160.869   9
   3   6   6 1039.68 165.367   2
  -3  -6  -7 904.933 97.0208   3
  -3  -6  -7 928.255 154.830  11
  -3  -6  -7 843.392 142.193   2
  -3  -6  -7 766.305 140.325   9
   3   6   7 774.471 137.311   2
   3   6   7 854.016 104.752   1
  -3  -6  -8-1.34800 30.4262   3
  -3  -6  -8 65.9452 49.3037   2
  -3  -6  -8-41.3296 62.9758   9
   3   6   8 38.8661 35.4232   1
   3   6   8 82.1987 69.2181   2
  -3  -6  -9 100.072 52.5176   3
   3   6   9-1.64964 40.1469   1
  -3  -6  -9 121.121 64.7491   9
   3   6   9 146.941 77.1800   2
  -3  -6  -9 84.1176 67.4203   2
  -3  -6 -10-15.7557 43.0979   2
   3   6  10 44.2299 46.2267   1
   3   6  10 61.1792 58.0599   2
  -3  -6 -10 14.5190 52.0067   3
   3   6  11 16.9109 47.9926   1
  -3  -6 -11 84.4271 57.3467  10
  -3  -6 -11 27.6072 46.4051   2
   3   6  11-44.7755 60.9551   2
  -3  -6 -11-23.1582 38.9030   3
   3   6  12 181.763 82.8144   1
  -3  -6 -12 340.673 111.827   2
  -3  -6 -12 214.417 71.6835  10
   3   6  12 226.647 93.1108   2
  -3  -6 -12 252.900 75.2867   3
   3   6  13 54.7321 51.2176   1
  -3  -6 -13 39.2139 48.8232   2
  -3  -6 -13 288.896 87.7230  10
   3   6  13 221.419 85.5705   2
  -3  -6 -13 78.7750 43.0472   3
  -3  -6 -14 154.626 70.1018   2
   3   6  14 130.252 94.1778   1
  -3  -6 -14 244.325 85.8386  10
   3   6  14 224.089 85.8736   2
  -3  -6 -14 145.404 77.5646   3
   3   6  15 1986.90 253.261   1
  -3  -6 -15 2117.73 202.645  10
   3   6  15 2158.25 234.031   2
   3   6  16 59.5976 83.4544   1
  -3  -6 -16-32.6942 70.5716  10
   3   6  17 826.235 183.883   1
   3   6  18 1281.72 246.412   1
   3   6  19 574.422 163.472   1
  -3  -7  12 154.779 104.207   3
  -3  -7  11-11.5652 71.4266   3
   3   7 -11 52.2730 86.7131  11
  -3  -7  10 162.110 102.955   3
   3   7 -10 103.902 76.4540  11
  -3  -7   9 19.9526 56.7461   3
   3   7  -9 78.9762 79.1759  11
  -3  -7   8 37.7130 56.0374   3
   3   7  -8-36.6421 68.6447  11
  -3  -7   7 561.818 136.505   3
   3   7  -7 625.769 151.479  11
   3   7  -7 855.712 87.4559   8
   3   7  -7 800.725 139.203   3
   3   7  -7 907.500 163.242   2
   3   7  -6 48.2754 73.0569  11
   3   7  -6 317.560 96.5981   3
   3   7  -6 181.932 33.7712   8
  -3  -7   6 211.904 103.680   7
   3   7  -6 120.098 58.6664   2
  -3  -7   6 136.440 49.3637   3
   3   7  -6 240.206 82.6353   7
   3   7  -5 31.1943 47.3278   7
   3   7  -5 44.7950 87.6199  11
   3   7  -5 18.2816 60.4082   3
  -3  -7   5 111.008 85.8999   7
   3   7  -5 17.0145 64.3341   2
  -3  -7   5 95.4606 69.5483   3
   3   7  -4 2142.94 258.393  11
   3   7  -4 2207.39 244.529   2
   3   7  -4 2327.11 200.586   3
  -3  -7   4 2077.61 194.633   3
  -3  -7   4 2291.72 240.274   7
   3   7  -4 2359.29 226.629   7
   3   7  -3 321.812 90.5283   7
  -3  -7   3 130.794 54.7408   1
   3   7  -3 224.438 94.8448  11
   3   7  -3 168.248 77.5089   2
  -3  -7   3 89.5408 70.0345   7
  -3  -7   3 186.811 72.8702   3
   3   7  -2 3295.23 300.531  11
   3   7  -2 2872.50 276.546   2
  -3  -7   2 2828.30 193.194   1
  -3  -7   2 3387.76 230.077   3
  -3  -7   2 2799.05 241.690   7
   3   7  -2 3138.62 243.634   7
  -3  -7   1 1181.78 184.366  11
   3   7  -1 1318.08 188.376  11
  -3  -7   1 1178.40 118.184   1
  -3  -7   1 1566.00 201.682  10
  -3  -7   1 1047.70 119.371   3
   3   7  -1 975.457 164.397   2
  -3  -7   1 1359.64 168.903   7
  -3  -7   0 128.359 74.6102  11
   3   7   0-3.34429 62.7964  11
  -3  -7   0 5.85228 46.0622   2
  -3  -7   0 92.9972 77.7905  10
   3   7   0 85.1878 80.3275   2
  -3  -7   0-4.40905 33.3386   3
  -3  -7   0 13.4993 54.7237   7
  -3  -7   0-46.1664 36.8847   1
   3   7   1 3131.43 273.928  11
  -3  -7  -1 2862.58 165.579   1
   3   7   1 3031.96 282.525   2
  -3  -7  -1 3060.92 265.988  10
  -3  -7  -1 2863.97 169.885   3
  -3  -7  -1 2761.66 228.454   7
  -3  -7  -1 2942.36 275.276  11
  -3  -7  -1 3115.63 286.772   2
  -3  -7  -2 127.902 69.7369  11
  -3  -7  -2 302.830 73.3902   1
  -3  -7  -2 248.946 101.029   2
  -3  -7  -2 203.985 75.0422  10
  -3  -7  -2 141.069 67.7699   9
  -3  -7  -2 266.597 71.8175   3
   3   7   2 126.332 93.7637   2
  -3  -7  -2 166.989 73.5473   7
  -3  -7  -3 1971.99 143.588   1
  -3  -7  -3 1779.57 212.693  11
  -3  -7  -3 2037.46 235.496   2
  -3  -7  -3 1588.09 82.6829   5
  -3  -7  -3 1865.10 189.215  10
  -3  -7  -3 1869.89 132.883   3
  -3  -7  -3 1956.77 222.860   9
   3   7   3 1717.57 214.658   2
  -3  -7  -3 1652.38 165.140   7
  -3  -7  -4 203.658 71.8758   7
  -3  -7  -4 172.430 44.2947   6
  -3  -7  -4 231.568 84.8297  11
  -3  -7  -4 322.610 110.855   2
  -3  -7  -4 253.137 72.6759  10
  -3  -7  -4 152.631 63.0670   9
  -3  -7  -4 199.629 51.8149   3
   3   7   4 266.699 105.712   2
  -3  -7  -4 55.1189 46.1117   1
  -3  -7  -5 226.453 83.6412   7
  -3  -7  -5 344.118 104.786  11
   3   7   5 330.695 67.8320   1
  -3  -7  -5 268.084 105.988   2
  -3  -7  -5 275.379 93.1895   9
  -3  -7  -5 200.848 50.2188   3
  -3  -7  -5 171.203 40.0157   1
   3   7   5 263.241 107.261   2
   3   7   6 2556.80 263.657   2
  -3  -7  -6 2934.19 276.687  11
   3   7   6 2448.14 169.824   1
  -3  -7  -6 2952.62 183.364   3
  -3  -7  -6 2739.24 257.879   9
  -3  -7  -6 2420.11 217.047   7
  -3  -7  -6 2817.17 193.807   1
   3   7   7 5628.42 389.048   2
   3   7   7 5797.55 274.816   1
  -3  -7  -7 6801.91 405.560   9
  -3  -7  -7 5707.15 332.026   7
  -3  -7  -7 6086.16 300.003   1
  -3  -7  -7 6702.07 419.969  11
   3   7   8 1334.76 144.844   1
  -3  -7  -8 1240.99 178.404   9
   3   7   8 1459.98 202.728   2
  -3  -7  -9 114.173 47.0813   3
   3   7   9 106.250 73.2462   2
   3   7   9 115.952 67.3676   1
   3   7  10 3511.03 314.607   2
  -3  -7 -10 3861.21 248.320   3
   3   7  10 3632.36 257.866   1
   3   7  11 8523.94 420.512   1
  -3  -7 -11 9379.05 359.868  10
   3   7  11 8889.53 496.083   2
  -3  -7 -11 8894.63 394.216   3
  -3  -7 -12 346.905 94.7796   3
  -3  -7 -12 401.972 83.5010  10
   3   7  12 436.955 111.718   1
   3   7  12 250.989 94.2237   2
  -3  -7 -13 542.322 93.3772  10
   3   7  13 301.837 91.2358   1
   3   7  13 410.443 125.640   2
  -3  -7 -13 410.968 104.312   3
   3   7  14 2120.28 243.705   1
  -3  -7 -14 1848.77 166.884  10
   3   7  14 2074.19 247.123   2
  -3  -7 -14 1532.71 198.231   3
   3   7  15 601.930 152.634   1
  -3  -7 -16 60.5480 77.8836   5
   3   7  16 196.684 103.360   1
  -3  -7 -17 272.836 126.812   5
   3   7  17 138.883 83.4323   1
  -3  -7 -18 1011.35 207.315   5
   3   7  18 1137.81 218.354   1
   3   7  19 213.164 117.392   1
  -3  -8  11 218.648 121.134   3
  -3  -8  10 139.023 80.6596   3
  -3  -8   9 901.486 179.737   3
   3   8  -9 1306.20 246.544  11
  -3  -8   8-59.3043 71.6978   3
   3   8  -8-58.8694 77.7979  11
   3   8  -7 231.721 116.888  11
  -3  -8   7 40.7127 76.8073   3
   3   8  -6 206.285 95.5124  11
  -3  -8   6 44.5328 54.0928   3
   3   8  -5-53.2647 48.8664   7
   3   8  -5 103.381 75.8331  11
   3   8  -5 37.4545 57.3890   3
  -3  -8   5 141.357 98.1006   7
  -3  -8   5-2.35081 49.0161   3
   3   8  -4 1146.23 163.317   7
   3   8  -4 1258.65 219.038  11
   3   8  -4 1451.47 175.060   3
  -3  -8   4 1006.59 170.675   7
  -3  -8   4 851.216 137.107   1
   3   8  -4 958.977 188.265   2
  -3  -8   4 903.628 151.641   3
   3   8  -3 1812.65 248.755  11
  -3  -8   3 1391.56 158.862   1
  -3  -8   3 1784.16 200.241   3
   3   8  -3 1636.41 185.306   7
  -3  -8   3 1558.43 203.916   7
   3   8  -3 1866.91 240.517   2
   3   8  -2 972.363 184.407  11
  -3  -8   2 1060.36 153.356   3
  -3  -8   2 754.938 121.016   1
   3   8  -2 830.500 173.906   2
  -3  -8   2 740.583 135.824   7
   3   8  -1 510.550 129.592  11
  -3  -8   1 426.474 86.5785   1
   3   8  -1 547.982 136.329   2
  -3  -8   1 381.017 88.4322   3
  -3  -8   1 486.193 118.161   7
   3   8   0-17.1764 63.5619  11
  -3  -8   0 58.6422 75.9176  10
  -3  -8   0 52.5843 32.2479   3
   3   8   0 117.626 106.404   2
  -3  -8   0 68.8867 57.3602   1
  -3  -8   0-6.50704 57.8340   7
  -3  -8  -1 1490.76 143.032   1
   3   8   1 1708.50 225.178  11
  -3  -8  -1 1576.13 201.759  10
  -3  -8  -1 1313.79 134.479   3
  -3  -8  -1 1677.55 184.146   7
   3   8   1 1635.28 225.500   2
  -3  -8  -2 1692.08 158.070   1
  -3  -8  -2 2078.63 223.651  10
  -3  -8  -2 1622.95 144.044   3
  -3  -8  -2 1687.80 181.512   7
   3   8   2 1794.34 241.664   2
  -3  -8  -3 2967.92 202.610   1
   3   8   3 2756.44 285.468   2
  -3  -8  -3 2462.69 238.023  10
  -3  -8  -3 2643.78 182.879   3
  -3  -8  -3 2486.62 212.314   7
  -3  -8  -4 1186.77 126.970   1
  -3  -8  -4 1405.64 169.498  10
  -3  -8  -4 1266.69 122.668   3
   3   8   4 1509.40 213.320   2
  -3  -8  -4 1222.15 151.229   7
  -3  -8  -5 690.263 119.787   7
  -3  -8  -5 659.381 71.8430   6
  -3  -8  -5 595.253 65.7272   5
  -3  -8  -5 762.594 124.100  10
  -3  -8  -5 623.465 90.1493   3
  -3  -8  -5 709.338 97.8514   1
   3   8   5 806.242 165.151   2
  -3  -8  -6 925.166 129.525   7
  -3  -8  -6 905.271 95.8395   5
   3   8   6 1002.54 121.936   1
  -3  -8  -6 973.654 143.478  10
  -3  -8  -6 763.320 67.5837   8
  -3  -8  -6 728.428 100.212   3
  -3  -8  -6 905.408 120.023   1
   3   8   6 789.215 158.173   2
  -3  -8  -7 1629.20 182.438   7
  -3  -8  -7 1332.84 134.202   5
  -3  -8  -7 1687.22 173.531  10
  -3  -8  -7 1532.96 150.969   3
   3   8   7 1538.31 152.651   1
  -3  -8  -7 1393.91 115.832   8
   3   8   7 1660.95 229.712   2
  -3  -8  -7 1612.91 171.887   1
   3   8   8 5967.80 419.822   2
  -3  -8  -8 6083.24 311.517  10
   3   8   8 6168.09 315.716   1
  -3  -8  -8 6011.13 304.384   5
  -3  -8  -8 5921.14 352.526   7
  -3  -8  -8 6528.72 348.988   1
  -3  -8  -9 3175.04 247.130   5
   3   8   9 3270.08 326.198   2
   3   8   9 3246.09 243.440   1
   3   8  10 74.2617 61.0551   1
  -3  -8 -10 29.5080 56.4895   5
   3   8  10 57.4577 86.9658   2
  -3  -8 -11 1551.45 201.256   5
   3   8  11 1775.78 202.747   1
  -3  -8 -11 2006.92 195.620   3
   3   8  11 1994.31 255.460   2
  -3  -8 -12 2613.78 265.202   5
   3   8  12 2794.88 258.952   1
  -3  -8 -12 2858.30 188.598  10
   3   8  12 2885.57 309.289   2
  -3  -8 -12 2782.21 240.491   3
  -3  -8 -13 131.387 105.782   5
   3   8  13 71.8221 66.4749   1
  -3  -8 -14 504.299 128.621   5
   3   8  14 656.484 141.558   1
  -3  -8 -15-3.78176 75.5750   5
   3   8  15 12.5903 73.8803   1
  -3  -8 -16-32.0887 95.4612   5
   3   8  16 41.2127 83.1367   1
  -3  -8 -17 216.557 124.395   5
   3   8  17 41.2320 89.6870   1
  -3  -8 -18 93.2961 87.4362   5
   3   8  18-54.8072 75.6393   1
  -3  -9   8 515.721 145.200   3
  -3  -9   7 26.7736 55.8889   3
   3   9  -6 1319.54 246.446  11
  -3  -9   6 973.774 165.159   3
   3   9  -5 880.970 200.383  11
  -3  -9   5 695.260 138.170   3
   3   9  -4 483.720 150.220  11
  -3  -9   4 468.505 121.384   7
  -3  -9   4 421.594 111.534   3
   3   9  -3 7.49874 78.7706  11
  -3  -9   3 139.465 103.918   7
  -3  -9   3 218.142 96.2813   3
   3   9  -2 189.695 110.442  11
  -3  -9   2 166.263 88.6696   7
  -3  -9   2 405.602 114.434   3
   3   9  -1 208.842 120.860  11
  -3  -9   1 193.097 80.0181   3
  -3  -9   1 84.4582 57.1111   7
   3   9   0 303.180 121.862  11
  -3  -9   0 22.2015 61.0033   3
  -3  -9   0 158.053 69.5190   7
   3   9   0 294.002 128.896   2
  -3  -9  -1 377.346 82.5615   1
  -3  -9  -1 271.088 62.7160   3
  -3  -9  -1 483.007 113.531   7
   3   9   1 428.803 128.310   2
  -3  -9  -2 242.524 82.9683   1
  -3  -9  -2 463.964 105.482  10
  -3  -9  -2 827.147 170.252   7
  -3  -9  -2 293.667 77.7529   3
   3   9   2 526.380 151.886   2
  -3  -9  -3 5795.67 305.029   1
   3   9   3 4885.79 409.541   2
  -3  -9  -3 5496.86 370.628  10
  -3  -9  -3 5427.02 291.056   3
  -3  -9  -3 5541.87 322.411   7
  -3  -9  -4 1195.02 145.585   1
  -3  -9  -4 1543.71 187.845  10
  -3  -9  -4 1217.75 142.443   3
   3   9   4 1264.98 226.875   2
  -3  -9  -4 1171.76 152.186   7
  -3  -9  -5 3402.36 242.985   1
   3   9   5 3502.98 346.718   2
  -3  -9  -5 3304.56 265.046  10
  -3  -9  -5 3422.79 231.003   3
  -3  -9  -5 3058.09 231.662   7
  -3  -9  -6 3466.50 253.385   1
   3   9   6 3668.26 358.385   2
  -3  -9  -6 3784.91 272.090  10
  -3  -9  -6 3198.81 224.042   3
  -3  -9  -6 3617.18 262.029   7
  -3  -9  -7 2330.22 202.995  10
  -3  -9  -7 2087.07 185.585   3
  -3  -9  -7 1942.22 112.041   8
  -3  -9  -7 2696.53 230.890   7
   3   9   7 2254.88 282.790   2
  -3  -9  -7 2342.44 220.168   1
  -3  -9  -8 830.309 140.750   7
   3   9   8 880.666 131.652   1
  -3  -9  -8 806.331 109.875   5
  -3  -9  -8 853.594 95.7495   8
  -3  -9  -8 850.520 127.475   3
  -3  -9  -8 993.676 158.308   1
   3   9   8 905.726 177.988   2
  -3  -9  -9 1126.41 163.972   7
  -3  -9  -9 1042.41 140.204   5
   3   9   9 1173.67 150.643   1
  -3  -9  -9 910.900 152.553   1
  -3  -9  -9 993.224 121.526   8
  -3  -9 -10-17.8682 60.4570   7
  -3  -9 -10-21.7265 51.4593   5
  -3  -9 -10 21.7856 46.7557   8
   3   9  10 6.34098 47.1571   1
  -3  -9 -10-50.7899 69.6218   1
  -3  -9 -11 75.6668 52.8231   5
   3   9  11 37.8809 63.0073   1
  -3  -9 -12-8.10862 50.6972   5
   3   9  12-8.12543 45.9204   1
  -3  -9 -13 2050.65 246.395   5
   3   9  13 2105.13 240.234   1
  -3  -9 -14 2231.38 270.545   5
   3   9  14 2592.44 285.446   1
  -3  -9 -15 573.017 156.143   5
   3   9  15 503.448 140.405   1
  -3  -9 -16 51.1667 77.2058   5
   3   9  16 86.2122 80.3272   1
  -3  -9 -17 761.874 195.913   5
   3   9  17 396.514 120.734   1
   3   9  18 522.435 160.552   1
   3  10  -3 380.908 134.663  11
   3  10  -2 679.175 181.342  11
  -3 -10   2 755.982 149.814   3
   3  10  -1 447.158 133.429  11
  -3 -10   1 501.887 129.428   3
  -3 -10   0-103.593 64.2464   3
  -3 -10  -1 656.121 106.567   3
  -3 -10  -2 318.708 62.7687   3
  -3 -10  -3-110.729 90.7472   3
  -3 -10  -3-128.909 87.2580   7
  -3 -10  -4-62.2297 69.5630   3
  -3 -10  -4 145.483 71.7014   7
  -3 -10  -5 152.669 84.7138   3
  -3 -10  -5 25.1008 49.5658   7
  -3 -10  -6 1437.73 174.344   3
  -3 -10  -6 1225.84 148.709   7
  -3 -10  -7 1467.04 176.267   3
  -3 -10  -7 1235.87 147.895   7
  -3 -10  -8 57.0242 46.7510   7
  -3 -10  -8 91.6503 55.8332   3
  -3 -10  -9 1203.84 162.466   7
   3  10   9 1351.41 178.610   1
  -3 -10  -9 1413.44 167.744   3
  -3 -10 -10 668.879 128.107   7
  -3 -10 -10 752.196 137.539   3
   3  10  10 596.625 121.991   1
  -3 -10 -11 91.2181 59.5936   7
   3  10  11 132.596 83.5363   1
   3  10  12-64.8035 41.7369   1
   3  10  13-0.74814 56.4937   1
   3  10  14 98.4639 66.9285   1
   3  10  15-98.3778 84.0186   1
   3  10  16 118.385 93.5741   1
   4  -9  -7 14.4075 90.1710   6
   4  -9  -6 167.696 90.6334   6
   4  -9  -5-34.3984 77.6609   6
   4  -9  -4 61.6268 67.2696   6
   4  -9  -3 226.016 124.138   6
   4  -8  -7 507.298 158.689   6
   4  -8  -6 84.0198 77.7436   6
   4  -8  -5 931.386 200.653   6
   4  -8  -4 382.834 151.557   6
   4  -8  -3 282.065 108.252   6
   4  -8  -2 225.881 112.701   6
  -4   8   2 60.7347 67.2676  10
  -4   8   1-145.355 75.8644  10
  -4   8   0-46.9120 70.4951  10
  -4   8  -1 232.384 100.465  10
  -4   8  -2 193.729 126.070  10
  -4   8  -3 56.4810 87.8271  10
  -4   8  -4 188.043 96.9240  11
  -4   8  -4 133.711 118.539  10
  -4   8  -4 124.265 115.016   9
  -4   8  -5 344.035 124.057  11
  -4   8  -5 141.255 131.615  10
  -4   8  -5 92.7131 100.958   9
  -4   8  -6 354.068 119.895  11
  -4   8  -6 227.149 132.078   9
   4  -7 -10 225.749 111.416   8
  -4   7   9 696.788 187.637   1
   4  -7  -9 589.072 168.372   8
  -4   7   8 389.962 131.304   1
   4  -7  -8 273.121 103.304   8
  -4   7   7 10.3274 85.4497   1
   4  -7  -6 3463.60 354.541   6
  -4   7   6 3567.15 262.899  10
   4  -7  -6 4132.80 406.570   3
  -4   7   6 4306.88 417.553   1
   4  -7  -5 1371.90 224.765   6
  -4   7   5 1344.19 171.369  10
   4  -7  -5 1486.48 249.684   3
   4  -7  -4 1128.23 199.126   6
   4  -7  -4 759.595 171.998   3
  -4   7   4 1328.73 188.098  10
  -4   7   3 468.575 122.766  10
   4  -7  -3 476.432 142.482   6
   4  -7  -3 204.682 126.039   3
   4  -7  -2 434.919 138.838   6
  -4   7   2 452.887 130.290  10
   4  -7  -2 132.415 87.9535   3
   4  -7  -1 1421.46 223.432   6
  -4   7   1 1696.56 229.018  10
   4  -7  -1 1466.43 245.118   3
  -4   7   0 543.330 142.927  10
   4  -7   0 388.875 155.338   3
  -4   7  -1 86.5500 82.6990  10
   4  -7   1 106.156 91.5594   3
  -4   7  -2 103.124 68.5808  10
   4  -7   2-136.733 117.305   3
  -4   7  -3 40.9828 61.7473  11
  -4   7  -3 90.4869 108.201  10
   4  -7   3 183.665 115.194   3
  -4   7  -4 2445.54 274.430  11
  -4   7  -4 2595.88 340.193  10
   4  -7   4 1990.41 305.868   3
  -4   7  -5 2496.76 290.483  11
  -4   7  -5 2770.40 354.986  10
  -4   7  -6 1759.57 250.631  11
  -4   7  -6 1460.08 276.844  10
  -4   7  -6 1163.39 224.428   9
  -4   7  -7 338.731 133.190  11
  -4   7  -7 11.8784 67.5267   9
  -4   7  -8 262.008 119.912  11
  -4   7  -8 204.026 117.628   9
  -4   7  -9-137.104 112.566  11
   4  -6 -12 379.874 146.624   8
  -4   6  12 399.184 142.862   1
   4  -6 -11 2147.48 304.505   8
  -4   6  11 2000.27 294.816   1
  -4   6  10 1427.85 244.723   1
   4  -6 -10 1209.48 232.176   8
  -4   6   9 1324.51 234.490   1
   4  -6  -9 1126.52 217.861   8
  -4   6   8 89.8409 52.3060  10
  -4   6   8 30.7857 73.0928   1
   4  -6  -8 35.5101 95.2760   8
  -4   6   7 745.140 187.111   1
  -4   6   7 437.325 95.8117  10
   4  -6  -7 593.444 162.117   8
  -4   6   6-40.1820 71.8138   1
   4  -6  -6-59.5366 70.3794  11
  -4   6   6 15.9365 64.8503  10
   4  -6  -6 168.453 111.886   8
   4  -6  -5 494.377 146.971   6
   4  -6  -5 667.495 122.373  11
  -4   6   5 642.419 123.336  10
  -4   6   5 476.384 153.964   1
   4  -6  -4 223.876 89.9720   6
   4  -6  -4 161.957 73.1728  11
  -4   6   4 269.613 94.8282  10
   4  -6  -4 177.611 103.138   3
   4  -6  -3 93.3708 88.3634   6
   4  -6  -3 176.637 80.7837  11
  -4   6   3 189.605 74.6165  10
   4  -6  -3-88.6271 90.9695   3
  -4   6   3 188.837 56.4520   7
   4  -6  -2 56.6112 61.1419  11
   4  -6  -2 138.159 71.0569   6
  -4   6   2 239.844 108.696  10
   4  -6  -2-42.2159 97.9194   3
  -4   6   2 118.260 42.4347   7
   4  -6  -1 793.178 138.695  11
  -4   6   1 874.046 164.373  10
   4  -6  -1 657.882 164.810   3
   4  -6  -1 1136.89 191.579   6
  -4   6   1 1061.47 111.448   7
   4  -6   0-0.29866 68.4468   6
  -4   6   0-20.3504 58.5452  10
   4  -6   0-112.923 86.0483   3
  -4   6   0-52.4314 29.5672   7
  -4   6  -1 3953.28 355.509  10
   4  -6   1 3784.49 364.582   3
  -4   6  -1 4111.32 215.959   7
  -4   6  -2 435.399 112.451  11
  -4   6  -2 404.425 120.342  10
   4  -6   2 384.075 135.320   3
  -4   6  -2 542.218 79.7144   7
  -4   6  -3 754.479 139.384  11
  -4   6  -3 719.588 166.626  10
   4  -6   3 705.718 170.087   3
  -4   6  -3 704.171 94.7291   7
  -4   6  -4 1789.02 215.089  11
  -4   6  -4 1957.31 276.809  10
   4  -6   4 1906.41 271.217   3
  -4   6  -5 584.490 136.592  11
  -4   6  -5 674.318 165.168  10
   4  -6   5 533.626 165.973   3
  -4   6  -6 346.440 112.225  11
  -4   6  -6 323.844 120.120  10
   4  -6   6 306.137 133.653   3
  -4   6  -7 372.995 119.143  11
  -4   6  -7 310.422 150.486  10
   4  -6   7 329.318 129.570   3
  -4   6  -8 23.7638 85.0589  11
  -4   6  -8 247.905 148.832  10
  -4   6  -8 168.527 113.350   9
   4  -6   8-98.6409 72.7807   3
  -4   6  -9 202.014 105.283  11
  -4   6  -9 84.6199 63.4537   9
  -4   6 -10 167.850 114.350  11
  -4   6 -11 147.695 102.085  11
  -4   5  13 233.328 141.129   1
   4  -5 -13 167.920 124.593   8
  -4   5  12 203.256 105.041   1
   4  -5 -12 298.189 121.552   8
  -4   5  11 408.371 142.776   1
   4  -5 -11 371.631 143.116   8
   4  -5 -10 1473.13 249.131   8
  -4   5  10 1184.06 214.692   1
   4  -5  -9 2009.91 226.363  11
  -4   5   9 2605.44 310.009   1
   4  -5  -9 2798.10 325.520   8
   4  -5  -9 2288.68 246.766   7
   4  -5  -8 223.795 92.8510   7
  -4   5   8 119.018 90.1853   1
   4  -5  -8 243.763 83.7974  11
  -4   5   8 62.6728 56.3440  10
   4  -5  -8 332.269 121.890   8
   4  -5  -7 770.653 134.598   7
   4  -5  -7 931.947 144.724  11
  -4   5   7 828.802 132.240  10
  -4   5   7 1185.38 203.212   1
   4  -5  -7 1023.96 200.185   8
  -4   5   7 1036.30 152.817   7
   4  -5  -6 476.126 109.355   7
  -4   5   6 447.364 112.088   1
   4  -5  -6 554.986 108.272  11
  -4   5   6 561.782 109.258  10
   4  -5  -6 731.321 161.646   8
  -4   5   6 647.079 117.049   7
   4  -5  -5 5553.80 315.170  11
  -4   5   5 5218.40 324.253  10
  -4   5   5 5457.61 409.309   1
   4  -5  -5 5444.89 430.033   8
  -4   5   5 5334.83 308.901   7
   4  -5  -5 4793.21 298.360   7
   4  -5  -4 38.6250 71.9531   6
   4  -5  -4-106.577 69.9402  11
  -4   5   4 138.525 58.6784  10
  -4   5   4 175.168 96.1003   1
   4  -5  -3 1949.92 249.893   6
   4  -5  -3 1573.81 161.957  11
  -4   5   3 1608.28 196.229  10
   4  -5  -3 1407.74 218.514   3
   4  -5  -2 7750.85 477.893   6
  -4   5   2 8075.24 438.238  10
   4  -5  -2 8040.73 369.487  11
   4  -5  -2 7793.95 487.871   3
   4  -5  -1 48.7607 63.9123   6
   4  -5  -1-94.0722 71.8856  11
  -4   5   1 99.1391 76.4720  10
   4  -5  -1-63.4979 91.5430   3
   4  -5   0 608.583 141.704   6
  -4   5   0 772.302 150.557  10
   4  -5   0 607.528 138.580   3
   4  -5   1 2798.52 284.042   6
  -4   5  -1 2875.67 284.547  10
   4  -5   1 3200.91 319.450   3
  -4   5  -2 3004.63 244.085  11
  -4   5  -2 2985.15 304.439  10
   4  -5   2 3006.84 311.830   3
  -4   5  -3 341.814 85.0817  11
  -4   5  -3 655.389 163.834  10
   4  -5   3 373.520 125.585   3
  -4   5  -4 527.503 114.965  11
  -4   5  -4 336.501 119.817  10
   4  -5   4 387.027 130.449   3
  -4   5  -5 2165.72 227.900  11
  -4   5  -5 2366.93 293.431  10
   4  -5   5 2479.62 294.325   3
  -4   5  -5 1657.26 189.231   7
  -4   5  -6 877.059 147.760   7
  -4   5  -6 1029.78 162.662  11
  -4   5  -6 1292.55 227.493  10
   4  -5   6 1039.65 213.796   3
  -4   5  -7 106.594 64.6434   7
  -4   5  -7 228.703 96.4011  11
  -4   5  -7 200.062 104.750  10
   4  -5   7 7.13801 65.1700   3
  -4   5  -8 170.662 93.1580  11
  -4   5  -8-48.5486 108.597  10
   4  -5   8 79.3941 109.367   3
  -4   5  -9-106.733 65.6811  11
  -4   5  -9 90.4625 125.514  10
  -4   5  -9 47.8506 60.3251   9
   4  -5   9 18.3456 87.4444   3
  -4   5 -10 60.0456 74.8767  11
  -4   5 -10-106.073 82.9257   9
   4  -5  10 280.231 137.485   3
  -4   5 -10 242.365 133.869  10
  -4   5 -11-11.5690 62.6694  11
  -4   5 -12 207.829 105.624  11
  -4   5 -13 212.701 91.0082  11
  -4   4  15 528.503 154.185   1
  -4   4  14 945.868 212.506   1
   4  -4 -14 887.452 211.403   8
  -4   4  13 362.734 133.111   1
   4  -4 -13 616.220 171.962   8
  -4   4  12 46.5983 73.6903   1
   4  -4 -12 78.3861 77.2396   8
  -4   4  11 48.4213 64.1350   1
   4  -4 -11 257.645 108.096   8
  -4   4  10 41.9021 71.0227   1
   4  -4 -10 152.500 107.605   8
  -4   4   9-14.5847 73.4582   1
   4  -4  -9 23.0236 65.7689   8
   4  -4  -9 84.5731 66.1648   7
   4  -4  -8 645.808 118.303  11
   4  -4  -8 678.610 156.470   8
  -4   4   8 870.927 176.970   1
  -4   4   8 687.253 136.326   7
   4  -4  -8 690.690 136.911   7
  -4   4   7 1751.19 223.786   1
   4  -4  -7 1701.31 176.246  11
   4  -4  -7 1875.85 250.288   8
  -4   4   7 1809.67 198.916   7
   4  -4  -7 1792.54 201.513   7
  -4   4   6 3046.19 299.877   1
   4  -4  -6 3125.49 320.319   8
  -4   4   6 3651.25 272.463   7
   4  -4  -6 3141.09 233.093  11
   4  -4  -6 3196.92 255.209   7
   4  -4  -5 2249.91 186.083  11
  -4   4   5 2373.88 262.154   1
   4  -4  -5 2424.29 272.684   8
  -4   4   5 2150.69 202.319   7
   4  -4  -5 2282.19 217.009   7
   4  -4  -4 382.073 94.4617   7
   4  -4  -4 557.924 93.6833  11
   4  -4  -4 364.828 122.597   8
  -4   4   4 491.381 92.9858   7
  -4   4   4 400.227 120.886   1
   4  -4  -3 598.245 141.133   6
  -4   4   3 735.678 125.101  10
   4  -4  -3 469.708 79.8945  11
  -4   4   3 642.882 141.799   1
   4  -4  -2 4902.84 243.943  11
   4  -4  -2 4396.28 344.149   6
  -4   4   2 4972.42 333.048  10
   4  -4  -2 5355.57 393.068   3
   4  -4  -1 44.4459 39.5811  11
   4  -4  -1 106.678 65.8562   6
  -4   4   1 115.493 85.3925  10
   4  -4  -1 292.021 98.4486   3
   4  -4   0 53.4995 69.8765   6
  -4   4   0-31.9502 65.2134  10
   4  -4   0-103.517 77.3039   3
   4  -4   1 136.988 83.3789   6
  -4   4  -1 91.8877 77.6342  10
   4  -4   1 102.743 92.8679   3
  -4   4  -2 100.111 43.4745  11
  -4   4  -2 25.4042 66.6886  10
   4  -4   2 80.0072 85.8859   3
  -4   4  -3 83.7343 50.9757  11
  -4   4  -3 122.592 96.9374  10
   4  -4   3 70.7102 63.1427   3
  -4   4  -4 465.852 102.430   7
  -4   4  -4 686.979 116.964  11
  -4   4  -4 591.031 145.704  10
   4  -4   4 631.924 145.832   3
  -4   4  -5 964.806 144.353   7
  -4   4  -5 1032.56 147.161  11
  -4   4  -5 746.599 167.347  10
   4  -4   5 870.106 174.026   3
  -4   4  -6 982.227 157.001   7
  -4   4  -6 981.825 146.542  11
  -4   4  -6 940.982 180.729  10
   4  -4   6 1082.78 203.996   3
  -4   4  -7 899.883 150.938  11
  -4   4  -7 1156.33 216.045  10
   4  -4   7 1086.90 201.133   3
  -4   4  -8-17.7162 57.5016  11
  -4   4  -8-53.7744 96.8807  10
   4  -4   8-39.8271 69.1181   3
  -4   4  -9-86.4901 86.3806  11
  -4   4  -9 171.689 118.568  10
   4  -4   9-65.1616 74.1334   3
  -4   4 -10 128.893 77.8952  11
  -4   4 -10-64.7845 109.072  10
   4  -4  10 97.1502 93.3830   3
  -4   4 -11 744.847 165.324  11
  -4   4 -11 1384.43 267.633  10
   4  -4  11 1233.75 233.323   3
  -4   4 -12 105.121 102.347  11
  -4   4 -12 67.1302 85.1060  10
   4  -4  12 101.209 93.3713   3
  -4   4 -13 219.628 91.6141  11
  -4   4 -14 80.8290 116.763  11
  -4   3  15 414.383 143.505   1
   4  -3 -14 572.720 174.897   8
  -4   3  14 393.663 156.169   1
   4  -3 -13 376.173 126.503   8
  -4   3  13 265.882 126.797   1
  -4   3  12 74.2015 59.3030  10
   4  -3 -12 184.552 107.400   8
  -4   3  12 91.3604 81.1668   1
  -4   3  11 1676.67 238.376   1
  -4   3  11 1592.01 192.921  10
   4  -3 -11 1786.07 263.330   8
  -4   3  10 1966.23 259.825   1
  -4   3  10 2135.36 214.054  10
   4  -3 -10 2150.86 274.230   8
  -4   3   9 2191.91 255.446   1
   4  -3  -9 2401.59 280.892   8
  -4   3   9 2043.43 248.732   7
  -4   3   8 978.718 169.099   1
   4  -3  -8 996.192 190.568   8
  -4   3   8 909.277 164.413   7
   4  -3  -8 691.157 143.679   7
  -4   3   7-21.0093 61.8559   1
   4  -3  -7 87.9354 91.1269   8
  -4   3   7 55.2169 59.2484   7
   4  -3  -7 130.319 57.4849   7
   4  -3  -6 909.497 141.526   7
   4  -3  -6 961.188 162.363   1
   4  -3  -6 697.453 103.281  11
   4  -3  -6 917.063 181.381   8
  -4   3   6 717.735 133.046   7
  -4   3   6 929.743 165.602   1
   4  -3  -5 1215.72 164.027   7
   4  -3  -5 1002.57 165.781   1
  -4   3   5 1045.37 168.119   1
   4  -3  -5 1008.65 113.421  11
   4  -3  -5 1193.84 197.357   8
  -4   3   5 1229.14 158.796   7
   4  -3  -4 260.076 88.8101   7
   4  -3  -4 243.117 55.2778  11
   4  -3  -4 39.3059 43.8041   1
   4  -3  -4 197.430 84.5567   8
  -4   3   4 191.610 69.4843   7
  -4   3   4 210.266 94.6923   1
   4  -3  -3 969.367 138.824   7
  -4   3   3 1149.34 178.048   1
   4  -3  -3 943.402 92.7281  11
   4  -3  -3 1038.60 155.573   1
  -4   3   3 973.164 167.892   8
  -4   3   3 1206.68 156.258   7
   4  -3  -2 5340.11 367.863   6
   4  -3  -2 5410.09 210.903  11
   4  -3  -2 5563.93 352.783   1
   4  -3  -2 5450.53 361.746   3
  -4   3   2 5585.50 378.578   8
   4  -3  -1 734.179 134.529   1
   4  -3  -1 929.360 157.120   6
   4  -3  -1 770.285 143.251   3
  -4   3   1 920.573 156.316   8
   4  -3   0-24.1547 61.3692   6
  -4   3   0-76.0757 67.5986  10
   4  -3   0-63.0719 64.1793   1
   4  -3   0-46.0573 83.6015   3
  -4   3   0 15.5587 65.4312   8
  -4   3  -1 572.970 130.808  10
   4  -3   1 438.382 117.188   3
   4  -3   1 755.221 144.217   1
  -4   3  -1 384.915 107.018   8
   4  -3   1 750.750 150.397   6
   4  -3   2 937.869 155.018   1
  -4   3  -2 990.599 107.571  11
  -4   3  -2 886.553 170.377  10
   4  -3   2 947.996 165.743   4
   4  -3   2 939.094 159.064   3
  -4   3  -2 985.863 166.374   8
  -4   3  -3 146.645 59.1531   7
  -4   3  -3 102.268 43.7246  11
  -4   3  -3 133.302 81.5502  10
   4  -3   3 171.567 73.5478   1
   4  -3   3 37.8746 59.4588   3
  -4   3  -4-6.96263 48.5305   7
  -4   3  -4 15.4691 33.5534  11
   4  -3   4 145.070 97.2492   1
  -4   3  -4-64.4433 69.1554  10
   4  -3   4-21.7844 69.4608   3
  -4   3  -5 1000.20 148.500   7
  -4   3  -5 1168.29 139.232  11
  -4   3  -5 1095.76 182.299  10
   4  -3   5 1158.98 184.417   3
  -4   3  -6 1051.15 140.953  11
  -4   3  -6 1133.57 198.717  10
   4  -3   6 1175.37 183.845   3
  -4   3  -7 76.8733 41.8303  11
  -4   3  -7 165.308 96.2725  10
   4  -3   7 103.856 70.8591   3
  -4   3  -8 353.199 97.0370  11
  -4   3  -8 108.778 106.966  10
   4  -3   8 277.875 120.774   3
  -4   3  -9 1646.87 206.241  11
  -4   3  -9 1991.93 276.596  10
   4  -3   9 1861.76 246.302   3
  -4   3 -10 149.067 82.3777  11
  -4   3 -10 277.376 105.471  10
   4  -3  10 225.908 106.679   3
  -4   3 -11-38.7765 73.8374  11
  -4   3 -11 157.032 122.605  10
   4  -3  11-26.0847 64.8850   3
  -4   3 -12 146.216 98.3152  11
  -4   3 -12-18.2976 90.7355  10
   4  -3  12-56.2536 71.5262   3
  -4   3 -13 319.971 115.308  11
  -4   3 -13 544.988 192.154  10
   4  -3  13 459.453 147.192   3
  -4   3 -14 299.700 132.298  11
   4  -3  14 441.428 157.132   3
  -4   3 -15 163.846 122.233  11
  -4   2  16 386.968 128.197   1
  -4   2  15 146.138 91.3923   1
   4  -2 -15 153.099 129.748   8
  -4   2  14 729.743 166.121   1
   4  -2 -14 1044.03 214.770   8
  -4   2  13 5.89154 61.6318   1
   4  -2 -13 151.246 120.135   8
  -4   2  12 280.952 92.5125  10
   4  -2 -12 236.273 112.765   8
  -4   2  12 167.769 111.310   1
  -4   2  11 143.200 59.5845  10
   4  -2 -11 226.017 110.921   8
  -4   2  11 239.203 82.5261   1
  -4   2  10 488.531 120.824  10
   4  -2 -10 463.554 133.365   8
  -4   2  10 526.162 144.919   7
  -4   2  10 595.151 149.135   1
   4  -2  -9 194.061 107.641   8
  -4   2   9 174.876 100.055   7
  -4   2   9 149.847 67.0688   1
   4  -2  -8 2452.79 256.180   1
  -4   2   8 2319.75 245.691   1
   4  -2  -8 2320.34 264.725   8
  -4   2   8 2161.25 244.285   7
   4  -2  -8 2461.89 256.554   7
  -4   2   7 1291.08 182.294   1
   4  -2  -7 1233.65 201.090   8
  -4   2   7 1163.22 174.261   7
   4  -2  -7 1158.38 176.494   1
   4  -2  -7 1283.52 179.682   7
   4  -2  -6 1973.43 216.383   1
  -4   2   6 1731.56 205.989   1
  -4   2   6 1802.26 219.752   8
   4  -2  -6 2025.22 240.635   8
  -4   2   6 1867.31 210.381   7
   4  -2  -6 1864.61 207.560   7
   4  -2  -5 82.7638 49.4786   7
   4  -2  -5 36.4153 47.3735   1
  -4   2   5 116.738 70.1049   8
   4  -2  -5 16.3414 79.8327   8
  -4   2   5-37.8940 62.8249   1
  -4   2   5 77.4610 71.2215   7
   4  -2  -4 187.132 64.8236   7
   4  -2  -4 207.878 44.7061  11
   4  -2  -4 224.665 80.0858   1
  -4   2   4 249.100 91.8209   1
  -4   2   4 95.8987 69.3298   8
   4  -2  -4 279.527 106.861   8
  -4   2   4 144.279 67.0158   7
   4  -2  -3 2234.76 113.617  11
   4  -2  -3 2939.14 237.527   1
  -4   2   3 2731.97 234.937   1
  -4   2   3 2955.39 262.894   8
   4  -2  -3 2452.62 249.561   8
  -4   2   3 2788.38 233.120   7
   4  -2  -3 2732.87 231.333   7
   4  -2  -2 834.644 130.581   7
   4  -2  -2 950.698 151.934   6
   4  -2  -2 694.324 55.3307  11
  -4   2   2 837.995 130.070   1
  -4   2   2 825.988 142.879   8
   4  -2  -2 780.436 128.827   1
  -4   2   2 971.818 140.410   7
   4  -2  -1 772.187 139.038   6
   4  -2  -1 770.182 132.055   3
  -4   2   1 814.837 141.001   8
  -4   2   1 919.688 131.370   7
   4  -2  -1 698.908 117.499   1
   4  -2   0 1477.72 197.853   6
   4  -2   0 1290.50 171.944   1
   4  -2   0 1149.92 156.830   3
  -4   2   0 1303.89 182.540   8
   4  -2   1 6601.40 387.749   6
   4  -2   1 6940.22 368.093   1
   4  -2   1 6631.37 356.533   3
  -4   2  -1 7354.37 416.422   8
  -4   2  -2 5.02972 43.4757   7
   4  -2   2-10.7360 55.4153   1
   4  -2   2 116.376 74.0293   6
  -4   2  -2 10.3351 19.5513  11
  -4   2  -2-25.6559 58.7913  10
   4  -2   2-31.8232 61.8875   4
   4  -2   2-15.6862 67.4310   3
  -4   2  -2-28.4788 50.3835   8
  -4   2  -3 46.8783 52.9533   7
  -4   2  -3-8.84383 30.5982  11
  -4   2  -3 78.0790 65.8814  10
   4  -2   3-34.1285 69.1589   4
   4  -2   3 16.1564 53.5821   3
  -4   2  -3 23.9993 54.4823   8
   4  -2   3 66.2838 40.2528   1
  -4   2  -4 4099.45 212.036  11
  -4   2  -4 4253.42 326.995  10
   4  -2   4 4206.31 310.797   4
   4  -2   4 4545.86 319.742   1
   4  -2   4 4754.96 315.793   3
  -4   2  -4 5297.36 366.794   8
  -4   2  -4 4263.50 288.342   7
  -4   2  -5 2110.80 233.289   6
  -4   2  -5 1797.95 152.592  11
   4  -2   5 2132.73 230.699   4
  -4   2  -5 1656.29 220.565  10
   4  -2   5 1964.30 213.619   3
   4  -2   5 1937.30 219.070   1
  -4   2  -6 1378.60 146.639  11
  -4   2  -6 1417.30 203.472  10
  -4   2  -6 1561.93 204.091   3
   4  -2   6 1519.72 194.144   3
  -4   2  -7 113.766 61.5977  11
  -4   2  -7 103.621 68.8595   3
   4  -2   7 223.969 90.3145   3
  -4   2  -7 180.719 90.1597  10
  -4   2  -8 17.7183 43.1168  11
  -4   2  -8-59.1960 66.2245  10
   4  -2   8 29.2810 58.6342   3
  -4   2  -9 64.6217 88.8967  10
   4  -2   9 60.9074 78.1594   3
  -4   2  -9 25.8910 49.1504  11
  -4   2 -10 150.435 71.5129  11
   4  -2  10 0.99223 71.4283   3
  -4   2 -11-54.9026 75.5239  11
  -4   2 -11 202.942 115.616  10
   4  -2  11 131.734 85.1287   3
  -4   2 -12 80.1599 94.9985  10
   4  -2  12-69.5254 77.4573   3
  -4   2 -13 266.603 156.322  10
   4  -2  13 128.377 100.416   3
  -4   2 -14 405.589 143.243  10
   4  -2  14 85.3980 80.7546   3
   4  -2  15-7.95543 77.9719   3
  -4   1  16-76.3601 104.064   1
  -4   1  15 3562.38 371.223   1
   4  -1 -15 4325.02 421.781   8
   4  -1 -14 1209.85 157.421   2
  -4   1  14 1754.33 256.772   1
   4  -1 -14 2296.14 314.719   8
  -4   1  13 110.779 86.1437   1
   4  -1 -13 66.8799 77.7633   8
  -4   1  12-71.6804 67.9147   1
   4  -1 -12 97.2045 112.860   8
  -4   1  11 469.211 125.329  10
  -4   1  11 601.932 148.389   1
   4  -1 -11 681.172 167.061   8
  -4   1  11 506.947 147.141   7
  -4   1  10 97.7504 63.8089  10
  -4   1  10 60.7287 73.8271   1
   4  -1 -10 151.546 100.327   8
  -4   1  10 51.1804 68.0506   7
  -4   1   9 344.491 111.404  10
   4  -1  -9 212.372 92.0351   1
   4  -1  -9 179.840 69.7238   8
  -4   1   9 334.907 101.962   1
  -4   1   9 374.303 107.035   7
   4  -1  -8 796.393 146.454   1
   4  -1  -8 1095.24 189.147   8
  -4   1   8 1091.30 168.404   1
  -4   1   8 873.916 156.837   7
   4  -1  -8 1250.26 189.492   7
   4  -1  -7 2448.10 233.462   1
  -4   1   7 2629.73 264.157   5
  -4   1   7 2708.98 243.467   1
   4  -1  -7 2618.88 265.835   8
  -4   1   7 2268.76 243.194   7
   4  -1  -7 2827.41 265.639   7
   4  -1  -6 7746.73 394.538   1
  -4   1   6 7422.98 377.701   1
  -4   1   6 8297.88 449.121   8
   4  -1  -6 7850.41 443.049   8
  -4   1   6 7428.25 417.265   7
   4  -1  -6 8284.26 433.315   7
  -4   1   5 110.694 56.6999   1
  -4   1   5 193.867 83.1660   8
   4  -1  -5 142.901 77.1438   8
  -4   1   5 288.090 94.4116   7
   4  -1  -5 167.458 69.3514   1
   4  -1  -5 185.127 72.4326   7
   4  -1  -4 1316.12 167.132   7
   4  -1  -4 1095.69 139.526   1
  -4   1   4 1443.29 185.915   8
   4  -1  -4 1380.10 176.945   8
  -4   1   4 1154.86 144.795   1
  -4   1   4 1157.71 169.719   7
  -4   1   3 8898.87 384.578   1
  -4   1   3 8759.50 436.858   8
   4  -1  -3 8514.27 435.534   8
  -4   1   3 9090.44 421.439   7
   4  -1  -3 8805.45 412.977   7
   4  -1  -2 10764.6 473.592   6
  -4   1   2 11831.8 432.356   1
  -4   1   2 11157.0 490.865   8
  -4   1   2 11133.0 458.026   7
   4  -1  -2 11337.9 457.841   7
   4  -1  -1 2459.96 235.154   6
  -4   1   1 2713.90 245.546   8
  -4   1   1 2547.09 218.836   7
   4  -1   0-19.4512 68.0826   6
   4  -1   0 10.9232 41.5523   3
  -4   1   0 98.0752 60.8222   8
  -4   1   0 17.1614 61.4493   7
  -4   1  -1 111.204 92.7433   7
   4  -1   1 401.662 159.330   6
   4  -1   1 86.1996 95.9844   3
  -4   1  -1 162.659 94.8608   8
   4  -1   2 10629.3 468.738   6
   4  -1   2 11070.9 463.742   4
   4  -1   2 10830.2 419.449   3
  -4   1  -2 11308.1 498.956   8
  -4   1  -2 10864.3 436.691   7
  -4   1  -3 170.468 38.6442  11
   4  -1   3 141.599 61.3063   1
  -4   1  -3 48.3359 53.3258   7
   4  -1   3 109.127 67.9696   4
   4  -1   3 133.003 57.4670   3
  -4   1  -3 213.755 90.3128   8
  -4   1  -4 1871.40 208.832   6
  -4   1  -4 1579.88 115.177  11
  -4   1  -4 1763.75 204.603  10
   4  -1   4 1943.03 207.728   4
   4  -1   4 1640.03 180.482   1
   4  -1   4 1769.31 177.888   3
  -4   1  -4 1614.34 186.800   7
  -4   1  -5 3694.64 300.018   6
  -4   1  -5 3121.47 181.173  11
  -4   1  -5 3818.82 301.830  10
   4  -1   5 3971.72 297.669   4
  -4   1  -5 3493.47 270.310   3
   4  -1   5 3513.73 257.174   3
  -4   1  -6 2576.31 254.791   6
  -4   1  -6 2283.79 173.680  11
  -4   1  -6 2481.72 254.112  10
  -4   1  -6 2811.26 245.901   3
   4  -1   6 2686.30 226.550   3
  -4   1  -7-7.39219 61.2720   6
  -4   1  -7-12.6454 69.1206  10
  -4   1  -7-59.1272 60.9649   3
   4  -1   7-63.9592 66.5850   3
  -4   1  -8 1000.80 174.248  10
  -4   1  -8 1325.80 186.316   3
   4  -1   8 1198.10 163.703   3
  -4   1  -9 2475.63 277.424  10
  -4   1  -9 2712.45 267.134   3
   4  -1   9 2362.49 240.979   3
  -4   1 -10 631.240 165.987  10
   4  -1  10 501.334 124.137   3
  -4   1 -11 60.9944 65.0804   4
  -4   1 -11 90.9310 97.7702  10
   4  -1  11 335.683 121.112   3
  -4   1 -12 221.399 77.2256   4
  -4   1 -12 392.392 130.492  10
   4  -1  12 309.323 106.333   3
  -4   1 -13 452.204 140.295   4
  -4   1 -13 639.426 178.188  10
   4  -1  13 531.420 141.214   3
  -4   1 -14 228.333 109.892   4
  -4   1 -14 72.9112 77.8188  10
   4  -1  14 166.394 106.545   3
  -4   1 -15 2261.72 314.885   4
  -4   1 -15 1854.95 299.343  10
   4  -1  15 1775.02 263.452   3
   4  -1  16 647.491 191.204   3
  -4   1 -16 658.064 191.221  10
  -4   0  16 348.543 143.158   1
   4   0 -16 284.652 148.329   8
  -4   0  15 258.445 94.6233   1
   4   0 -15 244.228 124.462   8
  -4   0  14 58.6121 103.003   1
   4   0 -14 170.314 99.9811   8
  -4   0  13-30.3674 77.5173   1
   4   0 -13-16.0447 32.2082   2
   4   0 -13 67.2613 80.5945   8
   4   0 -12 170.374 63.5456   2
  -4   0  12 209.858 85.3179   1
   4   0 -12 280.601 114.563   8
   4   0 -11 1103.92 148.891   2
  -4   0  11 1350.71 196.982   1
   4   0 -11 1498.75 220.784   8
  -4   0  11 1044.40 202.908   7
  -4   0  10 680.941 137.188   1
  -4   0  10 481.917 140.936  10
   4   0 -10 590.710 148.141   8
  -4   0  10 629.259 152.851   7
   4   0  -9 275.049 100.002   3
  -4   0   9 94.5923 74.1006  10
  -4   0   9 180.346 77.1739   1
   4   0  -9 286.958 100.134   8
  -4   0   9 334.677 118.112   7
  -4   0   8 1392.18 192.819   5
  -4   0   8 1324.85 171.814   1
   4   0  -8 1462.31 196.946   8
  -4   0   8 1501.13 217.998   7
   4   0  -8 1274.93 175.828   1
  -4   0   7 114.356 70.4171   5
   4   0  -7 119.265 64.1473   1
   4   0  -7 144.283 85.4511   8
  -4   0   7 316.872 90.4480   1
  -4   0   7 250.697 110.852   7
   4   0  -7 121.138 65.4218   7
   4   0  -6 645.113 118.979   1
   4   0  -6 765.620 147.799   8
  -4   0   6 791.820 151.600   7
  -4   0   6 753.913 124.121   1
   4   0  -6 1009.11 164.801   7
  -4   0   5 981.827 127.564   1
  -4   0   5 1111.51 165.256   8
   4   0  -5 1046.72 155.560   8
  -4   0   5 593.403 123.818   7
   4   0  -5 1043.84 158.394   7
   4   0  -4 1252.44 169.618   7
  -4   0   4 1171.01 135.208   1
  -4   0   4 1341.91 169.906   8
   4   0  -4 1187.54 168.047   8
  -4   0   4 1217.73 173.586   7
   4   0  -3 2058.41 168.269   1
  -4   0   3 2261.77 178.675   1
  -4   0   3 2101.83 206.366   8
   4   0  -3 2204.87 208.594   8
  -4   0   3 2521.88 232.003   7
   4   0  -3 2549.32 226.749   7
   4   0  -2 407.119 103.152   7
   4   0  -2 309.768 85.2094   6
   4   0  -2 410.587 78.9277   1
  -4   0   2 508.695 114.975   8
   4   0  -2 446.688 108.854   8
  -4   0   2 494.918 93.5557   1
  -4   0   2 538.744 119.754   7
   4   0  -1 2489.91 223.372   6
   4   0  -1 2422.53 172.263   1
  -4   0   1 3216.07 250.752   8
  -4   0   1 3284.76 254.916   7
   4   0  -1 2597.93 229.196   7
   4   0   0 5012.66 309.619   6
   4   0   0 4620.44 239.782   1
   4   0   0 4874.67 254.979   3
  -4   0   0 6019.52 340.998   8
  -4   0   0 5374.43 318.390   7
   4   0   1 6633.88 354.486   6
   4   0   1 6294.58 322.794   4
   4   0   1 6384.88 281.719   1
   4   0   1 6727.44 293.812   3
  -4   0  -1 7264.24 370.876   8
  -4   0  -1 6942.68 352.714   7
   4   0   2-27.6384 37.1292   1
  -4   0  -2-14.0755 59.7324   7
   4   0   2-42.8396 73.3681   6
   4   0   2 18.8944 47.9779   4
   4   0   2 2.15119 32.4922   3
  -4   0  -2 53.7252 68.6244   8
  -4   0  -3 709.946 132.993   7
  -4   0  -3 1007.43 142.082   6
  -4   0  -3 504.040 43.7198  11
   4   0   3 392.139 84.7746   1
   4   0   3 841.997 130.940   4
   4   0   3 988.716 115.903   3
  -4   0  -3 981.457 144.974   8
  -4   0  -4 93.1010 49.3410   7
  -4   0  -4 167.201 80.8615   6
   4   0   4 170.378 60.2205   4
   4   0   4 124.707 52.3795   3
  -4   0  -5 691.511 136.005  10
  -4   0  -5 725.550 133.325   6
   4   0   5 546.138 108.180   4
  -4   0  -5 759.111 115.773   3
   4   0   5 716.471 108.572   3
  -4   0  -6-22.4186 54.5216   6
  -4   0  -6-58.3590 60.2681  10
  -4   0  -6-18.2106 51.2762   3
   4   0   6-12.8983 36.1395   3
  -4   0  -7 946.966 157.427   6
  -4   0  -7 656.233 136.341  10
  -4   0  -7 771.171 128.259   3
   4   0   7 747.778 120.089   3
  -4   0  -8 878.455 159.412   6
  -4   0  -8 806.023 146.890   4
  -4   0  -8 740.756 150.122  10
  -4   0  -8 711.459 126.110   3
   4   0   8 656.537 118.250   3
  -4   0  -9 7930.16 463.406  10
  -4   0  -9 8394.81 470.974   4
  -4   0  -9 8182.58 424.132   3
   4   0   9 7607.48 394.775   3
  -4   0 -10 1006.05 182.099   4
  -4   0 -10 632.850 142.090  10
  -4   0 -10 628.817 135.426   3
   4   0  10 814.205 149.607   3
  -4   0 -11 1654.41 232.732   4
  -4   0 -11 1232.97 205.176  10
   4   0  11 1758.13 216.885   3
  -4   0 -11 1385.31 201.218   3
  -4   0 -12 4210.84 380.100  10
  -4   0 -12 4260.72 370.952   4
   4   0  12 3771.04 323.337   3
   4   0  13 682.763 121.216   2
  -4   0 -13 1034.33 194.644   4
  -4   0 -13 828.925 184.115  10
   4   0  13 1156.53 196.177   3
   4   0  14-7.54779 46.6160   2
  -4   0 -14 99.7412 91.6336   4
  -4   0 -14 87.3380 89.7746  10
   4   0  14 31.6402 69.9089   3
   4   0  15 55.5153 68.1645   3
  -4   0 -15 131.373 91.4466   4
  -4   0 -15 122.890 124.879  10
   4   0  16 121.258 95.6519   3
  -4   0 -16 94.8041 96.9516   4
  -4   0 -16 334.352 151.200  10
   4   0  17 140.992 101.277   3
  -4   0 -17 186.110 144.452  10
  -4  -1  17-122.077 127.152   1
  -4  -1  16 640.032 166.331   1
   4   1 -16 635.071 184.176   8
  -4  -1  15 352.526 137.368   1
   4   1 -15 527.309 159.641   8
  -4  -1  14 149.629 89.1731   1
   4   1 -14 100.843 95.3626   8
  -4  -1  13 229.873 100.453   1
   4   1 -13 87.6587 47.7994   2
   4   1 -13 221.362 116.117   8
  -4  -1  12 27.4221 54.5568   1
   4   1 -12 96.7725 60.4938   2
   4   1 -12 106.701 102.286   8
  -4  -1  11 364.641 119.148   1
   4   1 -11 254.978 68.5842   2
   4   1 -11 338.017 118.120   8
  -4  -1  11 400.731 156.501   7
  -4  -1  10 2708.08 254.309   1
   4   1 -10 2795.53 231.865   2
   4   1 -10 2705.35 263.431   3
   4   1 -10 2848.06 283.748   8
  -4  -1  10 2417.01 294.383   7
   4   1  -9 304.039 94.9180   3
  -4  -1   9 310.787 102.836   5
  -4  -1   9 436.987 103.432   1
   4   1  -9 325.201 93.3671   2
   4   1  -9 288.842 87.8217   8
  -4  -1   9 403.600 132.746   7
  -4  -1   8 1865.04 193.000   1
  -4  -1   8 2228.57 235.385   5
  -4  -1   8 2087.29 240.609  10
   4   1  -8 2040.77 204.887   2
   4   1  -8 2042.68 208.769   3
   4   1  -8 1921.38 222.183   8
  -4  -1   8 1940.18 251.388   7
   4   1  -7 6399.39 361.515   2
  -4  -1   7 6483.32 332.555   1
  -4  -1   7 7382.42 409.032   5
   4   1  -7 6609.10 348.577   3
   4   1  -7 7096.97 402.501   8
  -4  -1   7 6427.20 417.046   7
   4   1  -7 6893.20 424.339   7
  -4  -1   6 34.8529 53.6404   5
  -4  -1   6 9.76632 46.4057   1
   4   1  -6 4.65012 56.8923   8
  -4  -1   6-4.84805 61.6748   7
   4   1  -6 57.6181 69.0465   7
   4   1  -5 2965.77 174.270  11
  -4  -1   5 3248.84 215.198   1
   4   1  -5 3258.49 260.045   8
  -4  -1   5 3367.05 284.029   7
   4   1  -5 3461.76 285.842   7
   4   1  -5 3113.95 214.737   1
   4   1  -4 122.790 74.6432   7
  -4  -1   4 4.50904 36.9283   1
   4   1  -4 19.1144 25.8801  11
   4   1  -4 83.8731 47.1091   1
  -4  -1   4 36.5007 55.5865   8
   4   1  -4 12.2800 54.6680   8
  -4  -1   4 105.264 77.4083   7
   4   1  -3 574.327 125.527   7
   4   1  -3 462.494 54.4853  11
  -4  -1   3 451.904 80.1873   1
  -4  -1   3 414.230 91.3905   8
   4   1  -3 484.953 101.385   8
   4   1  -3 438.614 75.2542   1
  -4  -1   3 620.198 135.794   7
   4   1  -2 474.653 114.325   7
   4   1  -2 568.978 103.979   6
   4   1  -2 194.427 29.3183  11
  -4  -1   2 391.729 73.7907   1
  -4  -1   2 378.867 88.0268   8
   4   1  -2 437.008 101.775   8
   4   1  -2 485.674 76.1968   1
   4   1  -1 620.357 119.469   7
   4   1  -1 734.085 125.738   6
   4   1  -1 788.252 88.2703   1
  -4  -1   1 860.082 124.822   8
   4   1   0 1141.17 151.082   6
   4   1   0 858.460 88.6764   1
   4   1   0 913.506 102.733   3
  -4  -1   0 1275.67 152.288   8
   4   1   1 6534.81 339.136   6
   4   1   1 6651.96 243.344   1
   4   1   1 6545.81 299.784   4
   4   1   1 6289.97 248.076   3
  -4  -1  -1 6978.13 347.049   8
   4   1   2 211.672 68.7207   4
   4   1   2 209.530 55.4128   3
   4   1   2 210.291 50.6739   1
  -4  -1  -2 330.921 92.0589   8
  -4  -1  -3 299.888 91.1050   6
   4   1   3 396.645 100.188   4
   4   1   3 407.925 82.9681   3
   4   1   3 506.493 92.1567   1
  -4  -1  -4 6969.09 373.908   6
   4   1   4 6462.85 326.335   4
   4   1   4 6646.94 264.258   3
  -4  -1  -5 10512.9 462.856   6
  -4  -1  -5 9620.32 350.262   3
   4   1   5 9521.08 328.229   3
  -4  -1  -6 11194.1 489.707   6
  -4  -1  -6 10646.5 383.004   3
   4   1   6 10155.0 356.970   3
  -4  -1  -7 975.170 157.852   6
  -4  -1  -7 876.209 148.658  10
  -4  -1  -7 911.654 146.988   4
  -4  -1  -7 981.513 133.269   3
   4   1   7 1006.05 121.895   3
  -4  -1  -8 1421.40 188.187  10
  -4  -1  -8 1365.39 181.008   4
  -4  -1  -8 1252.93 152.463   3
   4   1   8 1445.43 159.373   3
  -4  -1  -8 1397.34 192.367   6
  -4  -1  -9 3349.65 292.597  10
  -4  -1  -9 3327.33 286.808   4
  -4  -1  -9 3574.90 262.100   3
   4   1   9 3318.09 246.450   3
   4   1  10 988.739 153.008   2
  -4  -1 -10 1189.79 183.841  10
  -4  -1 -10 1051.95 174.936   4
  -4  -1 -10 1067.46 154.520   3
   4   1  10 968.855 144.359   3
   4   1  11 542.945 111.196   2
  -4  -1 -11 364.849 122.347  10
  -4  -1 -11 712.712 149.308   4
  -4  -1 -11 621.352 130.194   3
   4   1  11 584.690 122.307   3
   4   1  12 992.739 145.840   2
  -4  -1 -12 1352.67 216.920  10
  -4  -1 -12 1401.83 212.545   4
  -4  -1 -12 1058.91 179.734   3
   4   1  12 1087.42 171.412   3
   4   1  13-2.08557 62.9613   3
  -4  -1 -13 214.231 120.673  10
  -4  -1 -13 168.512 92.9916   4
   4   1  13 117.101 71.0957   2
   4   1  14 60.9378 63.5852   3
  -4  -1 -14 70.5635 115.588  10
  -4  -1 -14 14.9035 70.0596   4
   4   1  14 152.803 69.1995   2
   4   1  15 510.796 145.099   3
  -4  -1 -15 518.151 155.416   4
  -4  -1 -15 683.186 182.362  10
   4   1  15 373.318 91.0521   2
   4   1  16 232.188 112.412   3
  -4  -1 -16 694.729 181.129   4
  -4  -1 -16 553.899 168.045  10
   4   1  17 185.738 106.502   3
  -4  -1 -17 172.586 108.664  10
   4   1  18 31.8808 64.3828   3
  -4  -1 -18 44.6315 92.9091  10
  -4  -2  16 506.653 165.658   1
   4   2 -16 564.087 162.862   8
  -4  -2  15 1511.13 248.570   1
   4   2 -15 1820.90 269.064   8
  -4  -2  14-106.274 86.0305   1
   4   2 -14 36.9318 83.3947   8
  -4  -2  13-58.7566 74.0960   1
   4   2 -13 54.8302 35.9573   2
   4   2 -13-147.499 93.2237   8
  -4  -2  12 450.683 131.676   1
   4   2 -12 263.674 74.4878   2
   4   2 -12 220.176 93.9493   8
  -4  -2  11 59.6700 71.1456   1
   4   2 -11 99.6904 56.5343   2
   4   2 -11 15.2857 60.6023   8
  -4  -2  11-87.3352 74.9370   7
  -4  -2  10 1658.64 201.354   1
   4   2 -10 1385.29 184.712  11
   4   2 -10 1563.41 176.352   2
   4   2 -10 1538.39 202.296   8
  -4  -2  10 1306.12 227.537   7
   4   2 -10 1355.29 183.559   3
  -4  -2   9 2378.95 223.888   1
   4   2  -9 2694.53 243.824  11
   4   2  -9 2647.55 229.749   2
  -4  -2   9 2956.68 275.508   5
   4   2  -9 2794.69 251.990   3
   4   2  -9 3080.87 272.875   8
  -4  -2   9 2704.07 305.776   7
   4   2  -8 1561.78 181.443  11
   4   2  -8 1545.09 176.772   2
  -4  -2   8 1544.48 190.771   5
  -4  -2   8 1567.26 168.274   1
   4   2  -8 1654.23 185.922   3
   4   2  -8 1644.27 200.138   8
  -4  -2   8 1247.96 208.094   7
  -4  -2   7 1522.64 160.713   1
  -4  -2   7 1605.95 188.987   5
   4   2  -7 1386.97 171.322   2
  -4  -2   7 1484.77 218.277  10
   4   2  -7 1609.60 177.491   3
   4   2  -7 1764.46 202.686   8
   4   2  -7 1509.35 163.006  11
  -4  -2   7 1557.65 223.497   7
   4   2  -6 1576.05 158.797  11
   4   2  -6 1652.63 185.502   2
  -4  -2   6 1683.80 154.567   1
  -4  -2   6 1669.06 187.949   5
   4   2  -6 1849.39 192.639   8
   4   2  -6 2046.53 229.308   7
  -4  -2   6 1795.66 225.898   7
   4   2  -5 6520.39 285.673  11
   4   2  -5 6802.28 374.545   2
  -4  -2   5 7055.70 291.177   1
  -4  -2   5 7294.45 367.579   5
   4   2  -5 7192.16 363.757   8
  -4  -2   5 7194.22 424.400   7
   4   2  -5 7701.37 420.792   7
   4   2  -4 3359.13 267.348   2
   4   2  -4 3346.88 191.353  11
  -4  -2   4 3230.42 186.975   1
  -4  -2   4 3305.47 239.712   8
   4   2  -4 3228.70 203.428   3
   4   2  -4 3412.68 241.134   8
  -4  -2   4 3231.19 284.675   7
   4   2  -4 4006.82 296.030   7
   4   2  -3 5319.02 219.390  11
  -4  -2   3 5338.32 216.554   1
   4   2  -3 5559.58 346.633   2
  -4  -2   3 5455.05 298.526   8
   4   2  -3 5305.92 239.359   3
   4   2  -3 5595.93 306.090   8
  -4  -2   3 6173.35 371.762   7
   4   2  -3 5761.19 347.938   7
   4   2  -2 24.4434 48.4631   7
   4   2  -2 3.84835 40.9003   6
   4   2  -2 40.8269 31.8575  11
   4   2  -2 4.74033 60.0732   2
  -4  -2   2 35.8120 48.6225   8
  -4  -2   2 51.9934 32.0892   1
   4   2  -2 38.3665 30.8062   1
   4   2  -1 405.680 98.8310   7
   4   2  -1 322.474 81.4370   6
   4   2  -1 464.119 118.742   2
   4   2  -1 349.217 50.5855   1
  -4  -2   1 856.120 132.398   8
   4   2   0 8342.42 413.073   2
   4   2   0 8360.82 215.345   1
   4   2   0 8181.62 360.646   6
   4   2   0 8245.33 301.615   4
   4   2   0 7820.89 227.979   3
  -4  -2   0 8662.96 362.043   8
   4   2   0 9074.94 420.679   7
   4   2   1 3160.71 231.499   6
   4   2   1 3271.68 276.913   2
  -4  -2  -1 2981.22 125.843  11
   4   2   1 2862.40 123.398   1
   4   2   1 3048.49 190.864   4
   4   2   1 2314.06 120.345   3
  -4  -2  -1 3040.77 219.111   8
   4   2   2 19263.1 638.233   2
  -4  -2  -2 16123.4 306.464  11
   4   2   2 18193.3 329.380   1
   4   2   2 17912.2 481.505   4
   4   2   2 17632.9 318.904   3
  -4  -2  -2 17432.7 531.573   8
  -4  -2  -3 54633.6 974.012   6
   4   2   3 53256.8 1031.21   2
  -4  -2  -3 52563.4 593.687  11
   4   2   3 54018.3 612.194   1
   4   2   3 54718.7 571.089   3
  -4  -2  -4 1170.65 151.020   6
   4   2   4 1060.57 170.691   2
   4   2   4 1118.31 91.8129   3
  -4  -2  -5 4417.22 291.463   6
   4   2   5 4197.59 291.991   2
  -4  -2  -5 4034.48 195.989   3
   4   2   5 3998.22 184.148   3
  -4  -2  -6 5442.95 334.132   6
   4   2   6 5079.79 323.348   2
  -4  -2  -6 5198.17 306.509   4
  -4  -2  -6 5193.56 238.135   3
   4   2   6 5605.79 235.982   3
  -4  -2  -7 2068.84 215.087   6
  -4  -2  -7 2134.71 206.514   4
   4   2   7 1640.52 186.971   2
  -4  -2  -7 2031.98 161.417   3
   4   2   7 1940.17 151.526   3
   4   2   8 2816.10 243.082   2
  -4  -2  -8 3224.09 270.074  10
  -4  -2  -8 2842.37 245.762   4
  -4  -2  -8 2855.13 205.046   3
   4   2   8 2929.90 200.168   3
  -4  -2  -9 1550.03 192.551  10
   4   2   9 1188.00 164.760   2
  -4  -2  -9 1286.59 169.068   4
  -4  -2  -9 1390.21 152.536   3
   4   2   9 1277.62 145.991   3
   4   2  10-2.53603 49.2240   3
  -4  -2 -10 118.183 79.4057  10
   4   2  10 45.8113 50.0593   2
  -4  -2 -10 67.9194 75.2108   4
  -4  -2 -10 70.4272 54.6767   3
   4   2  11 21.3117 43.8339   3
  -4  -2 -11-64.5357 81.8459  10
  -4  -2 -11 21.2830 84.2095   4
   4   2  11-0.59463 49.8988   2
  -4  -2 -11-1.02428 43.2673   3
   4   2  12 209.967 80.1344   3
  -4  -2 -12 171.353 83.7128  10
  -4  -2 -12 273.732 94.2697   4
   4   2  12 201.686 82.1032   2
  -4  -2 -12 131.313 58.4347   3
   4   2  13 200.239 85.6369   3
  -4  -2 -13 247.992 109.705  10
  -4  -2 -13 255.300 115.470   4
   4   2  13 246.048 84.7136   2
  -4  -2 -13 143.630 33.6738   9
  -4  -2 -13 188.513 81.7977   3
   4   2  14 313.210 106.311   3
  -4  -2 -14 228.750 102.627  10
  -4  -2 -14 206.944 101.828   4
   4   2  14 160.482 64.8627   2
   4   2  15 196.699 100.824   3
  -4  -2 -15 84.1052 83.8945  10
  -4  -2 -15 274.058 134.461   4
   4   2  15 82.5335 47.8039   2
  -4  -2 -16 586.503 177.013  10
  -4  -2 -16 909.992 206.267   4
  -4  -2 -17 228.956 114.964  10
  -4  -2 -17 123.355 116.634   4
  -4  -2 -18 7.57270 90.5903  10
   4   2  18 193.694 117.012   1
  -4  -2 -19 160.726 132.701  10
   4   3 -16-211.100 111.876   8
  -4  -3  16 2.81438 85.1368   1
   4   3 -15 74.4091 84.2996   8
   4   3 -15-66.7881 86.0212  11
  -4  -3  15-174.696 88.3352   1
   4   3 -14 195.641 88.4915  11
   4   3 -14 308.530 120.946   8
  -4  -3  14 235.651 96.7304   1
   4   3 -13 16.4796 79.3861  11
   4   3 -13-73.0194 76.5325   8
  -4  -3  13 39.5911 71.5301   1
   4   3 -12 464.256 133.577  11
   4   3 -12 263.895 72.6684   2
   4   3 -12 332.562 113.288   8
  -4  -3  12 359.660 114.632   1
   4   3 -11 73.0747 78.4224  11
   4   3 -11 135.678 64.5076   2
   4   3 -11 191.353 86.7358   8
  -4  -3  11 4.87558 76.3665   7
  -4  -3  11 89.8464 82.8464   1
   4   3 -10-49.3671 68.0258  11
   4   3 -10 9.33084 37.9887   2
   4   3 -10-57.7713 73.8106   8
  -4  -3  10-94.9742 111.795   7
   4   3 -10 35.3706 64.1162   3
  -4  -3  10-10.5909 53.3259   1
   4   3  -9 137.616 76.1400  11
   4   3  -9 95.2427 49.1996   2
   4   3  -9 21.7575 62.1184   8
  -4  -3   9 189.328 80.3985   7
   4   3  -9 134.536 64.0434   3
  -4  -3   9 61.7464 67.2239   1
  -4  -3   8 313.055 80.9683   1
   4   3  -8 144.307 64.5173  11
  -4  -3   8 337.773 91.7650   5
   4   3  -8 182.192 76.6486   2
   4   3  -8 282.811 98.7047   8
  -4  -3   8 154.907 87.7102   7
   4   3  -8 280.299 88.0909   3
  -4  -3   7 83.2506 51.6453   1
  -4  -3   7 303.909 90.4993   5
   4   3  -7 267.035 89.9182   2
   4   3  -7 306.377 95.6829  11
   4   3  -7 284.951 83.7219   8
  -4  -3   7 207.910 102.615   7
   4   3  -7 191.126 65.8740   3
  -4  -3   6 365.308 74.7450   1
   4   3  -6 413.204 97.6976  11
  -4  -3   6 320.707 95.4116   5
   4   3  -6 495.237 111.732   2
   4   3  -6 411.128 82.5274   8
  -4  -3   6 412.680 121.104   7
   4   3  -6 486.101 124.725   7
   4   3  -5-11.8318 46.9525  11
  -4  -3   5-77.8702 46.9545   1
  -4  -3   5-54.1515 56.8355   5
   4   3  -5 18.8009 62.5175   2
   4   3  -5 81.4158 53.6914   8
  -4  -3   5 80.0370 82.3295   7
   4   3  -5 7.37489 40.4298   3
   4   3  -5 63.0568 71.5348   7
   4   3  -4 158.063 93.2010   7
   4   3  -4 83.2967 46.6952  11
  -4  -3   4 121.972 39.2008   1
   4   3  -4 225.750 93.7122   2
   4   3  -4 101.048 52.8876   8
  -4  -3   4 141.012 100.737   7
   4   3  -4 104.899 43.6542   3
   4   3  -3 15905.7 447.539  11
   4   3  -3 16498.4 589.482   2
  -4  -3   3 15486.2 323.808   1
   4   3  -3 15810.0 379.684   3
   4   3  -3 16548.3 488.683   8
  -4  -3   3 16695.1 621.279   7
   4   3  -3 18396.0 631.368   7
   4   3  -2 1454.46 175.640   7
   4   3  -2 1488.08 148.492   6
   4   3  -2 1540.54 135.642  11
  -4  -3   2 1302.53 80.9009   1
   4   3  -2 1388.12 181.045   2
   4   3  -2 1402.14 99.8757   3
  -4  -3   2 1327.10 142.633   8
  -4  -3   2 1446.77 181.731   7
   4   3  -1 3476.18 221.508   6
   4   3  -1 3506.87 284.683   2
   4   3  -1 3357.43 192.931  11
   4   3  -1 3305.78 164.967   4
   4   3  -1 3453.14 130.742   3
  -4  -3   1 3663.39 217.953   8
  -4  -3   1 3552.35 276.650   7
   4   3  -1 3912.70 282.683   7
   4   3   0 2738.87 199.864   6
  -4  -3   0 3045.80 173.613  11
   4   3   0 2771.99 249.986   2
   4   3   0 2535.91 146.057   4
   4   3   0 2367.38 82.1453   3
  -4  -3   0 3201.32 209.531   8
  -4  -3   0 3690.09 282.126   7
   4   3   0 3112.21 254.224   7
  -4  -3  -1 8556.46 282.131  11
   4   3   1 8775.53 427.569   2
   4   3   1 8413.88 281.466   4
  -4  -3  -1 8984.16 349.102   8
  -4  -3  -1 8541.49 411.179   7
  -4  -3  -2 7347.03 263.267  11
   4   3   2 7302.52 393.618   2
  -4  -3  -2 7394.44 319.271   8
  -4  -3  -3 5244.66 288.990   6
   4   3   3 5376.28 330.062   2
  -4  -3  -3 5134.50 224.221  11
  -4  -3  -4-26.0790 79.2743   7
  -4  -3  -4 182.365 67.1861   6
  -4  -3  -4 128.981 43.2900  11
   4   3   4 158.075 79.3173   2
   4   3   5 55.1559 25.1052   3
  -4  -3  -5 24.8193 50.1414   7
  -4  -3  -5 76.7965 45.3775   6
  -4  -3  -5 66.5339 58.9028   4
   4   3   5 102.085 81.3538   2
   4   3   6 156.278 42.0794   3
  -4  -3  -6 167.966 73.5826   6
  -4  -3  -6 97.7929 67.4755   4
   4   3   6 106.183 69.6381   2
  -4  -3  -6 162.018 41.6945   3
   4   3   7 5315.20 332.596   2
  -4  -3  -7 5477.07 309.948   4
  -4  -3  -7 5710.08 237.599   3
   4   3   7 5287.40 225.797   3
   4   3   8 3500.07 275.862   2
  -4  -3  -8 3383.52 254.635   4
  -4  -3  -8 3553.37 206.223   3
   4   3   8 3281.16 194.501   3
   4   3   9 936.893 117.820   3
  -4  -3  -9 1141.75 166.692  10
  -4  -3  -9 853.944 153.338   4
   4   3   9 725.288 129.975   2
  -4  -3  -9 930.501 118.912   3
  -4  -3 -10 45.3930 52.3887  10
  -4  -3 -10 108.763 67.7364   4
   4   3  10 175.043 83.3270   2
  -4  -3 -10 111.655 63.7292   3
  -4  -3 -11 1324.61 183.843  10
  -4  -3 -11 1316.80 191.938   4
   4   3  11 1395.70 178.275   2
  -4  -3 -11 1553.36 175.717   3
  -4  -3 -12 1096.84 186.448  10
  -4  -3 -12 1121.16 186.851   4
   4   3  12 949.643 144.276   2
  -4  -3 -12 1009.44 106.853   9
  -4  -3 -12 1105.80 158.826   3
   4   3  13 2964.80 247.898   2
  -4  -3 -13 3695.86 324.639  10
  -4  -3 -13 3469.62 324.297   4
  -4  -3 -13 3575.69 293.082   3
  -4  -3 -13 2415.68 154.777   9
   4   3  13 3652.05 313.187   1
  -4  -3 -14 1168.76 199.586  10
  -4  -3 -14 1374.08 224.894   4
   4   3  14 1071.11 153.595   2
  -4  -3 -14 1265.58 181.943   3
   4   3  14 1182.33 196.930   1
  -4  -3 -15-85.0025 90.0914  10
  -4  -3 -15 74.4948 84.6423   4
   4   3  15 58.5677 91.4878   1
   4   3  15 37.3877 48.9918   2
  -4  -3 -16 376.005 134.047  10
  -4  -3 -16 504.538 158.263   4
   4   3  16 306.300 127.652   1
   4   3  16 417.130 97.4203   2
  -4  -3 -17 70.5908 79.8081  10
  -4  -3 -17-12.2807 75.2699   4
   4   3  17 172.282 102.168   1
  -4  -3 -18-20.7209 74.3835  10
   4   3  18 159.822 117.705   1
  -4  -3 -19 232.601 135.276  10
  -4  -3 -20 204.545 122.487  10
   4   4 -15-27.8397 79.8735  11
   4   4 -15 59.2543 57.9165   8
  -4  -4  15 194.098 113.768   1
   4   4 -14 74.3155 97.9537  11
   4   4 -14 32.6698 67.5481   8
  -4  -4  14-11.0276 89.0170   1
   4   4 -13 114.904 127.351  11
   4   4 -13 99.1244 85.2217   8
  -4  -4  13 100.054 76.2525   1
   4   4 -12 69.6122 68.5134  11
   4   4 -12 209.276 89.9205   8
   4   4 -12 105.072 55.5012   2
  -4  -4  12 175.792 101.663   1
   4   4 -11 57.5268 83.8372  11
   4   4 -11 19.5901 42.7442   8
   4   4 -11 62.7435 61.4202   2
  -4  -4  11 212.899 104.152   1
   4   4 -10 216.690 81.0833  11
   4   4 -10 281.133 85.7321   2
   4   4 -10 174.531 73.8617   8
  -4  -4  10 156.272 76.0551   1
  -4  -4  10 53.7876 83.7189   7
  -4  -4   9 1749.21 195.469   1
   4   4  -9 1636.71 218.928  11
   4   4  -9 1860.84 203.083   2
   4   4  -9 1778.37 204.379   3
   4   4  -9 1927.81 205.457   8
  -4  -4   9 1548.33 245.043   7
  -4  -4   8 3407.44 256.077   1
   4   4  -8 2961.71 276.718  11
   4   4  -8 3560.40 285.167   2
   4   4  -8 3413.12 267.132   3
   4   4  -8 3603.53 269.929   8
  -4  -4   8 3530.37 351.196   7
  -4  -4   7 2631.10 207.866   1
   4   4  -7 2792.82 258.192  11
   4   4  -7 2651.90 243.910   2
   4   4  -7 2712.16 221.487   3
   4   4  -7 2927.04 230.545   8
  -4  -4   7 2760.65 289.700   7
  -4  -4   6 772.087 118.398   5
   4   4  -6 658.887 124.336  11
   4   4  -6 632.788 134.385   2
   4   4  -6 898.634 123.103   8
  -4  -4   6 565.514 145.065   7
  -4  -4   6 832.881 103.950   1
  -4  -4   5 2894.56 179.598   1
   4   4  -5 2644.37 229.821  11
   4   4  -5 2634.60 249.929   2
  -4  -4   5 3093.52 222.483   5
   4   4  -5 2426.17 179.521   3
   4   4  -5 3156.24 216.410   8
  -4  -4   5 2944.13 284.003   7
   4   4  -5 2903.61 264.253   7
   4   4  -4 431.615 113.842   7
  -4  -4   4 298.176 52.1715   1
   4   4  -4 445.580 100.768  11
  -4  -4   4 351.145 77.9687   5
  -4  -4   4 432.974 123.544  10
   4   4  -4 369.612 98.5908   2
   4   4  -4 396.578 78.3775   8
   4   4  -4 283.724 58.9546   3
  -4  -4   4 427.247 124.034   7
   4   4  -3 4054.86 236.393   6
   4   4  -3 4012.55 259.193  11
  -4  -4   3 3685.35 145.269   1
   4   4  -3 4243.41 311.652   2
   4   4  -3 3943.72 182.771   3
   4   4  -3 4199.27 228.074   8
  -4  -4   3 4540.72 335.076   7
   4   4  -3 4749.13 326.534   7
   4   4  -2 573.853 120.982   7
   4   4  -2 610.189 91.4704   6
   4   4  -2 657.626 104.384  11
  -4  -4   2 291.880 28.8608   1
   4   4  -2 641.595 53.9470   4
   4   4  -2 598.421 61.9532   3
   4   4  -2 743.143 134.777   2
  -4  -4   2 623.870 129.798   7
   4   4  -1-46.3209 59.2741   7
   4   4  -1-40.8838 38.3456   6
   4   4  -1-24.2585 37.9025  11
   4   4  -1 37.5024 78.8216   2
  -4  -4   1 16.5113 40.5146   8
   4   4  -1-2.56831 10.8531   3
  -4  -4   1 126.666 94.6153   7
  -4  -4   0 1766.72 155.896  11
   4   4   0 1747.50 201.754   2
  -4  -4   0 1567.35 133.983   8
  -4  -4   0 1897.08 199.309   7
   4   4   0 1707.64 189.262   7
  -4  -4  -1 609.991 92.2560  11
   4   4   1 720.853 139.030   2
  -4  -4  -1 783.531 101.935   8
  -4  -4  -1 792.216 131.233   7
  -4  -4  -2 956.840 160.474   7
  -4  -4  -2 804.376 120.151  11
   4   4   2 1155.29 172.165   2
  -4  -4  -2 810.690 113.151   8
  -4  -4  -3 6147.12 298.456   6
  -4  -4  -3 6292.12 288.595  11
   4   4   3 5760.86 359.650   2
  -4  -4  -3 6368.32 282.489   8
  -4  -4  -3 5856.00 343.522   7
  -4  -4  -4 134.153 64.5430   7
  -4  -4  -4 164.280 58.7301   6
   4   4   4 191.863 83.9705   2
  -4  -4  -4 130.184 53.7718  11
  -4  -4  -5 301.150 96.7965   7
  -4  -4  -5 68.8555 48.9648   6
  -4  -4  -5 143.164 55.8948   4
   4   4   5 206.705 93.0024   2
   4   4   5 105.826 24.9651   1
  -4  -4  -6 58.1638 60.8227   6
  -4  -4  -6 21.3867 50.2620   4
   4   4   6 18.9969 63.8713   2
  -4  -4  -6 22.3530 15.8971   3
   4   4   6 101.087 41.1798   1
  -4  -4  -7 7.90108 47.3389   4
   4   4   7-50.7401 73.0101   2
   4   4   7 13.3220 27.6324   1
  -4  -4  -7-6.25847 28.0410   3
  -4  -4  -8 163.889 63.5896   4
   4   4   8 208.114 84.6529   2
   4   4   8 263.211 75.9256   1
  -4  -4  -8 324.638 59.1318   3
  -4  -4  -9 34.0008 63.6929   4
   4   4   9 135.866 82.3068   2
   4   4   9 187.766 60.5408   1
  -4  -4  -9 63.2817 38.8120   3
   4   4  10 3429.05 280.424   2
  -4  -4 -10 3883.17 293.766  10
  -4  -4 -10 3750.52 295.693   4
  -4  -4 -10 3707.81 229.998   3
  -4  -4 -10 3771.36 247.783   9
   4   4  10 3399.73 252.709   1
   4   4  11 2490.53 237.320   2
  -4  -4 -11 2664.77 247.744  10
  -4  -4 -11 2596.69 258.526   4
  -4  -4 -11 2604.20 210.737   3
  -4  -4 -11 2711.94 204.482   9
   4   4  11 2676.08 237.838   1
   4   4  12 3918.56 298.558   2
  -4  -4 -12 4113.44 314.491  10
  -4  -4 -12 4340.06 244.744   9
  -4  -4 -12 4423.10 289.098   3
   4   4  12 4288.99 315.480   1
   4   4  13 3021.74 262.709   2
  -4  -4 -13 3639.31 308.283  10
  -4  -4 -13 2979.22 191.225   9
  -4  -4 -13 3261.63 265.676   3
   4   4  13 3209.16 296.233   1
  -4  -4 -14-13.1651 70.0641  10
   4   4  14-35.0714 54.3302   2
   4   4  14 158.434 98.9934   1
  -4  -4 -14 59.5632 57.8983   3
  -4  -4 -15 124.562 76.9973  10
   4   4  15 66.8414 59.2888   2
   4   4  15 8.95961 84.0723   1
  -4  -4 -16 361.089 112.119  10
   4   4  16 334.623 129.029   1
   4   4  16 288.095 78.7837   2
  -4  -4 -17-1.92329 93.2205  10
   4   4  17-26.6483 71.3427   1
  -4  -4 -18-57.6276 89.6342  10
   4   4  18-4.38591 111.647   1
  -4  -4 -19 81.6389 119.721  10
   4   4  19 78.8382 101.387   1
   4   5 -13 139.341 80.7446  11
  -4  -5  13 164.502 86.7766   1
   4   5 -12 455.350 144.244  11
   4   5 -12 575.582 125.563   8
  -4  -5  12 683.552 155.849   1
   4   5 -11 58.0958 96.7651  11
   4   5 -11-8.62032 58.6997   8
  -4  -5  11 12.8274 70.8024   1
   4   5 -11 134.109 70.1934   2
   4   5 -10 347.176 125.711  11
   4   5 -10 380.725 97.4169   8
  -4  -5  10 300.480 100.052   1
   4   5 -10 313.432 89.1313   2
  -4  -5  10 677.510 180.779   7
   4   5  -9 668.761 155.261  11
   4   5  -9 837.649 126.605   8
   4   5  -9 924.096 152.284   2
  -4  -5   9 754.681 133.314   1
   4   5  -9 586.085 117.983   3
  -4  -5   9 816.395 201.147   7
   4   5  -8 37.9126 61.4398  11
   4   5  -8 118.055 57.8104   2
   4   5  -8-56.7819 47.7683   8
  -4  -5   8 131.295 68.9867   1
   4   5  -8 99.4940 61.3992   3
  -4  -5   8 132.747 120.345   7
   4   5  -7 2203.00 236.258   2
   4   5  -7 1926.62 196.224   3
   4   5  -7 2318.22 193.255   8
  -4  -5   7 2201.58 275.596   7
  -4  -5   7 2039.24 188.907   1
   4   5  -7 2052.01 239.279  11
   4   5  -6-10.5851 57.9743  11
   4   5  -6 35.3985 50.7592   2
   4   5  -6 49.6807 43.1021   8
  -4  -5   6 31.8134 47.3307   1
   4   5  -6 0.74624 46.3264   3
  -4  -5   6-98.7689 75.1069   7
  -4  -5   5 2489.43 169.786   1
   4   5  -5 2749.34 254.992  11
   4   5  -5 2683.98 258.644   2
   4   5  -5 2714.83 185.368   8
  -4  -5   5 2173.65 254.782   7
  -4  -5   4 5479.18 221.083   1
   4   5  -4 5659.21 259.951   6
   4   5  -4 5802.49 352.767  11
  -4  -5   4 5847.24 270.686   5
   4   5  -4 5997.46 387.731   2
   4   5  -4 6073.24 263.924   3
   4   5  -4 6104.47 261.116   8
  -4  -5   4 5716.98 392.897   7
   4   5  -4 7427.72 426.123   7
   4   5  -3 17.9677 73.9914   7
   4   5  -3-18.8053 34.6236   6
   4   5  -3 80.2225 69.7445  11
  -4  -5   3 59.7673 43.8905   5
   4   5  -3 30.5720 76.5890   2
   4   5  -3-7.88372 20.7298   3
  -4  -5   3-20.9010 21.5825   1
  -4  -5   3-53.4302 64.3226   7
   4   5  -2 2931.68 177.273   6
   4   5  -2 2681.10 230.560  11
   4   5  -2 3047.98 279.292   2
  -4  -5   2 3153.45 292.064  10
   4   5  -2 2560.59 132.724   3
  -4  -5   2 3008.65 277.519   7
   4   5  -2 3043.33 258.911   7
  -4  -5   1 3236.01 245.785  11
   4   5  -1 3073.67 240.288  11
   4   5  -1 3310.59 287.321   2
  -4  -5   1 3351.84 279.816   7
   4   5  -1 3437.76 272.061   7
  -4  -5   0 307.443 81.7893  11
   4   5   0 214.729 72.8316  11
   4   5   0 224.446 80.5042   2
  -4  -5   0 275.849 55.0247   8
  -4  -5   0 263.871 87.2219   7
   4   5   1 106.630 66.0659   2
  -4  -5  -1-1.07746 27.4009   8
  -4  -5  -1 31.8289 66.1475   7
   4   5   2 359.347 108.514   2
  -4  -5  -2 307.180 66.7396   8
  -4  -5  -2 422.649 125.320   7
   4   5   3 3058.64 269.768   2
  -4  -5  -3 3069.99 179.696   8
  -4  -5  -3 2930.06 244.897   7
  -4  -5  -4 197.464 84.5889   7
  -4  -5  -4 3.22565 37.3091   6
  -4  -5  -4 119.438 57.8013  11
   4   5   4 30.7935 58.2220   2
  -4  -5  -5 581.651 118.280   7
  -4  -5  -5 630.573 106.100   6
  -4  -5  -5 581.912 107.165  11
   4   5   5 410.858 37.4684   1
  -4  -5  -5 603.420 95.2977   4
   4   5   5 653.582 133.636   2
  -4  -5  -6 550.188 143.205   7
  -4  -5  -6 583.341 116.508   6
  -4  -5  -6 645.152 119.281  11
  -4  -5  -6 528.748 96.8492   4
   4   5   6 496.948 61.6944   1
   4   5   6 1081.33 196.604   2
   4   5   7 35263.8 562.834   1
  -4  -5  -7 36372.6 849.373  11
   4   5   7 36306.0 933.163   2
  -4  -5  -7 37018.8 750.849   4
  -4  -5  -7 31038.2 418.953   3
  -4  -5  -7 36620.2 856.033   9
   4   5   8 2004.01 157.823   1
   4   5   8 2100.20 228.982   2
  -4  -5  -8 2347.77 212.266   4
  -4  -5  -8 2328.07 138.141   3
  -4  -5  -8 2186.77 213.516   9
   4   5   9 2022.22 175.336   1
   4   5   9 1915.86 220.205   2
  -4  -5  -9 2147.26 151.097   3
  -4  -5  -9 2189.84 209.371   9
  -4  -5 -10 1296.55 160.689   9
   4   5  10 1135.75 168.741   2
  -4  -5 -10 1016.44 113.663   3
   4   5  10 1296.95 150.571   1
  -4  -5 -11 217.470 94.6600  10
  -4  -5 -11 115.100 61.1788   9
   4   5  11 147.370 71.7799   2
  -4  -5 -11 65.8798 46.2200   3
   4   5  11 189.876 74.1058   1
  -4  -5 -12 569.073 127.902  10
  -4  -5 -12 359.955 82.9638   9
   4   5  12 363.993 104.441   2
  -4  -5 -12 470.725 96.1632   3
   4   5  12 412.036 104.877   1
  -4  -5 -13 25.8279 51.9459  10
   4   5  13 128.266 77.2654   2
   4   5  13 114.344 59.0291   1
  -4  -5 -13 106.448 49.0172   3
  -4  -5 -14 649.655 143.935  10
   4   5  14 419.185 110.730   2
   4   5  14 611.891 127.085   1
  -4  -5 -14 574.240 123.060   3
  -4  -5 -15 1399.94 200.724  10
   4   5  15 1231.95 173.428   2
   4   5  15 1362.30 203.820   1
  -4  -5 -16 835.355 161.101  10
   4   5  16 627.325 114.662   2
   4   5  16 785.660 169.794   1
  -4  -5 -17 109.631 89.2435  10
   4   5  17 137.845 94.9764   1
  -4  -5 -18 247.119 121.281  10
   4   5  18 170.790 102.769   1
   4   5  19 321.325 141.565   1
   4   6 -12 572.901 173.513  11
   4   6 -11 102.430 89.3543  11
   4   6 -10 685.592 171.256  11
  -4  -6  10 757.903 149.527   1
   4   6 -10 673.085 137.841   2
   4   6  -9 570.534 162.664  11
  -4  -6   9 574.318 131.362   1
   4   6  -9 645.638 114.171   8
   4   6  -9 759.266 152.298   2
  -4  -6   9 675.350 163.227   7
   4   6  -8 109.850 107.342  11
  -4  -6   8 49.2290 61.8341   1
   4   6  -8 28.2639 33.5644   8
   4   6  -8-13.2149 48.8394   2
  -4  -6   8-95.4772 89.7213   7
   4   6  -7-12.5244 74.6615  11
  -4  -6   7 130.721 70.8354   1
   4   6  -7 69.7344 44.9091   8
   4   6  -7 133.084 60.0843   3
   4   6  -7 131.735 84.1669   2
  -4  -6   7 99.0640 74.0887   7
   4   6  -6 452.961 121.682  11
  -4  -6   6 379.341 82.0089   1
   4   6  -6 427.316 88.6159   3
   4   6  -6 403.318 69.2002   8
   4   6  -6 483.069 123.008   2
  -4  -6   6 465.930 131.771   7
   4   6  -5 1747.36 132.322   6
   4   6  -5 1645.41 218.388  11
   4   6  -5 1633.67 123.473   8
   4   6  -5 1564.28 209.066   2
  -4  -6   5 1522.43 223.652   7
  -4  -6   5 1504.77 140.096   1
   4   6  -4 2372.45 142.653   6
   4   6  -4 2368.28 251.348  11
   4   6  -4 2686.27 268.077   2
   4   6  -4 2183.38 167.722   3
  -4  -6   4 2313.83 261.535   7
  -4  -6   4 2206.05 150.841   1
   4   6  -3 114.709 79.7856   7
  -4  -6   3 24.7273 27.0394   1
   4   6  -3 62.7980 79.0953  11
  -4  -6   3 35.9056 26.9080   1
   4   6  -3 8.49115 28.8379   3
   4   6  -3-28.4577 70.1960   2
  -4  -6   3 65.4460 81.9217   7
   4   6  -2 1320.20 184.107   7
  -4  -6   2 1121.49 95.6400   5
   4   6  -2 1163.84 172.419  11
  -4  -6   2 643.112 57.0502   1
   4   6  -2 1007.25 92.9948   3
   4   6  -2 1137.56 181.038   2
  -4  -6   2 1227.56 185.416   7
  -4  -6   2 830.147 63.2234   1
  -4  -6   1 4115.34 307.911  11
  -4  -6   1 4446.84 346.362   2
   4   6  -1 4796.22 328.138  11
   4   6  -1 4364.47 337.410   2
  -4  -6   1 4409.09 325.272   7
   4   6  -1 4597.53 323.172   7
  -4  -6   1 4279.94 181.549   5
  -4  -6   0 4045.09 331.951   2
  -4  -6   0 4353.28 313.709  11
   4   6   0 4425.41 311.290  11
   4   6   0 4319.93 337.523   2
  -4  -6   0 4214.53 311.100   7
  -4  -6  -1 2046.88 229.698   2
  -4  -6  -1 1768.39 192.925  11
   4   6   1 1874.77 220.976   2
  -4  -6  -1 1977.54 215.329   7
  -4  -6  -2 1060.25 178.369  11
  -4  -6  -2 1165.94 190.121   2
  -4  -6  -2 839.849 80.3484   8
   4   6   2 1075.00 181.422   2
  -4  -6  -2 1211.89 193.764   7
  -4  -6  -3 10091.6 519.711   2
  -4  -6  -3 10681.4 475.521  11
   4   6   3 10400.3 517.452   2
  -4  -6  -3 9569.93 500.773   9
  -4  -6  -3 9755.51 267.762   8
  -4  -6  -3 9496.72 466.833   7
  -4  -6  -4 9847.06 355.491   6
  -4  -6  -4 10335.3 520.593   2
  -4  -6  -4 10211.9 465.680  11
   4   6   4 10187.0 513.813   2
  -4  -6  -4 9925.26 497.813   9
  -4  -6  -4 10104.6 299.059   8
  -4  -6  -4 9593.60 453.947   7
  -4  -6  -5 872.111 156.047   7
  -4  -6  -5 799.162 116.242   6
  -4  -6  -5 778.046 143.648  11
  -4  -6  -5 906.741 158.955   2
  -4  -6  -5 894.492 102.697   4
  -4  -6  -5 971.958 171.831   9
   4   6   5 1421.59 211.394   2
  -4  -6  -6 16130.2 508.412   6
   4   6   6 16501.4 655.013   2
  -4  -6  -6 15976.1 434.843   4
   4   6   6 14465.7 291.019   1
  -4  -6  -6 17134.3 631.532   9
  -4  -6  -6 16906.5 623.009   7
  -4  -6  -6 17514.5 626.049  11
  -4  -6  -7 128.799 60.6594   7
  -4  -6  -7 90.1149 60.5351  11
  -4  -6  -7 56.2503 43.7318   4
  -4  -6  -7 132.210 57.9166   9
   4   6   7 122.095 84.6065   2
  -4  -6  -7 100.658 25.2982   3
   4   6   7 62.8717 31.4763   1
  -4  -6  -8 84.8900 57.1597  11
  -4  -6  -8-7.21500 56.5034   9
   4   6   8 90.5556 43.7837   1
   4   6   8 137.007 74.3411   2
  -4  -6  -8 81.7553 35.0159   3
   4   6   9 67.7808 40.4001   1
  -4  -6  -9 191.595 86.5770   9
   4   6   9 66.7518 83.6481   2
  -4  -6  -9 46.4483 32.6929   3
   4   6  10 504.524 95.4983   1
  -4  -6 -10 463.430 105.888   9
   4   6  10 552.118 126.488   2
  -4  -6 -10 558.598 88.2039   3
   4   6  11 990.310 133.272   1
  -4  -6 -11 1174.00 159.552   9
   4   6  11 1266.54 188.290   2
  -4  -6 -11 1022.94 123.032   3
   4   6  12 259.743 89.3525   1
  -4  -6 -12 230.437 78.8751  10
  -4  -6 -12 272.088 83.2070   9
   4   6  12 261.893 94.2857   2
  -4  -6 -12 268.598 72.3310   3
   4   6  13 187.407 66.3462   1
  -4  -6 -13 447.548 109.297  10
   4   6  13 299.463 97.8075   2
  -4  -6 -13 150.547 60.3210   3
   4   6  14 163.655 88.6847   1
  -4  -6 -14 76.5025 75.7574  10
   4   6  14 77.7758 59.0218   2
   4   6  15-27.7883 88.0397   1
  -4  -6 -15 86.9783 76.0368  10
   4   6  15 121.403 85.6523   2
   4   6  16 37.9894 74.1024   1
  -4  -6 -16 68.6730 76.8078  10
   4   6  16 54.6865 61.1374   2
   4   6  17-7.27896 86.7004   1
   4   6  18 11.3549 77.8369   1
   4   6  19 191.396 105.733   1
   4   7 -10 505.100 148.138  11
   4   7 -10 159.845 63.7577   2
   4   7  -9 621.635 170.925  11
   4   7  -9 526.723 149.609   2
   4   7  -8 510.743 157.816  11
   4   7  -8 567.733 143.991   2
  -4  -7   8 391.175 156.548   7
   4   7  -7-10.8358 72.5261  11
  -4  -7   7 76.3682 73.0662   1
   4   7  -7 83.8614 80.5291   2
  -4  -7   7-40.4869 78.4473   7
   4   7  -6 476.309 114.666  11
   4   7  -6 425.595 126.799   2
  -4  -7   6 348.071 120.334   7
  -4  -7   6 438.743 101.814   1
   4   7  -5 1439.97 210.446  11
   4   7  -5 1094.32 139.872   3
   4   7  -5 1350.97 204.609   2
  -4  -7   5 1184.36 211.084   7
   4   7  -4-11.5142 74.1184  11
   4   7  -4 83.6425 83.6454   2
  -4  -7   4 192.454 104.028   7
   4   7  -3 730.072 155.044  11
   4   7  -3 729.959 97.2419   3
   4   7  -3 624.266 141.877   2
  -4  -7   3 795.159 169.636   7
  -4  -7   3 613.537 78.9330   1
   4   7  -2 2595.55 269.412  11
   4   7  -2 3003.60 297.980   2
  -4  -7   2 2283.41 126.588   1
  -4  -7   2 3013.51 280.968   7
   4   7  -2 2990.96 272.603   7
   4   7  -1 75.7920 60.9867  11
  -4  -7   1 17.3745 18.9495   1
   4   7  -1 70.7401 98.7586   2
  -4  -7   1 136.483 90.9456   7
  -4  -7   0 3760.17 315.887  11
   4   7   0 3349.54 294.767  11
  -4  -7   0 2363.23 83.5194   5
   4   7   0 3585.94 326.635   2
  -4  -7   0 3861.62 308.367   7
  -4  -7  -1 899.009 151.459  11
  -4  -7  -1 912.436 162.986  10
   4   7   1 765.530 148.236   2
  -4  -7  -1 850.312 150.585   7
  -4  -7  -2 1332.00 175.907  11
  -4  -7  -2 1788.73 225.869  10
   4   7   2 1154.94 190.906   2
  -4  -7  -2 1175.10 164.317   7
  -4  -7  -3 96.3165 76.0870  11
   4   7   3 100.383 80.8145   2
  -4  -7  -3 56.3260 57.0589   7
  -4  -7  -4 671.775 136.743  11
  -4  -7  -4 471.911 49.7939   8
   4   7   4 425.474 127.139   2
  -4  -7  -4 506.611 121.082   7
  -4  -7  -5 358.564 101.773   7
  -4  -7  -5 161.573 52.5283   6
  -4  -7  -5 318.891 102.573  11
  -4  -7  -5 211.764 50.6971   4
   4   7   5 152.822 79.0418   2
  -4  -7  -6 565.538 119.783   7
  -4  -7  -6 431.684 84.0705   6
  -4  -7  -6 655.412 148.295  11
  -4  -7  -6 590.419 86.0848   4
  -4  -7  -6 248.279 31.2738   3
  -4  -7  -6 368.028 30.6483   3
   4   7   6 642.616 150.842   2
  -4  -7  -7 542.975 132.371   7
  -4  -7  -7 386.154 48.2587   3
   4   7   7 506.653 140.642   2
  -4  -7  -7 487.077 53.7057   3
   4   7   7 570.501 72.5187   1
  -4  -7  -8 182.222 84.1554   7
   4   7   8 151.043 48.3984   1
  -4  -7  -8 113.944 73.0037   9
   4   7   8 123.841 89.6983   2
  -4  -7  -8 185.578 40.3700   3
  -4  -7  -9 135.407 68.5902   9
   4   7   9 31.6012 76.3580   2
  -4  -7  -9 161.206 55.1748   3
   4   7   9 105.173 53.9236   1
  -4  -7 -10 717.492 142.982   9
   4   7  10 765.467 112.294   1
   4   7  10 707.934 161.813   2
  -4  -7 -10 668.443 96.4844   3
   4   7  11 1963.07 190.278   1
  -4  -7 -11 1910.31 219.758   9
  -4  -7 -11 2057.67 171.785   3
   4   7  11 2011.63 251.256   2
  -4  -7 -12 1305.36 169.328  10
   4   7  12 1171.96 161.786   1
   4   7  12 1022.01 176.629   2
  -4  -7 -13 39.1345 64.7471  10
   4   7  13 96.2779 73.3398   1
   4   7  13 77.5632 76.8964   2
   4   7  14 562.438 133.018   1
  -4  -7 -14 591.004 123.132  10
   4   7  14 458.626 119.372   2
   4   7  15 2005.48 244.337   1
  -4  -7 -15 2187.10 222.827  10
   4   7  15 2581.21 285.918   2
   4   7  16 793.747 170.339   1
   4   7  16 751.789 157.717   2
   4   7  17 348.187 105.297   1
   4   7  18 231.366 85.5629   1
   4   7  19-39.2933 119.232   1
   4   8  -8-36.7138 87.5547  11
   4   8  -8 219.981 99.0642   2
   4   8  -7 182.012 104.109  11
  -4  -8   7 82.9391 106.222   7
   4   8  -7 78.0976 75.0692   2
  -4  -8   6 558.421 129.363   3
   4   8  -6 504.527 157.404  11
  -4  -8   6 583.002 165.087   7
   4   8  -6 870.803 186.306   2
   4   8  -5 2238.37 292.250  11
   4   8  -5 2301.54 284.415   2
  -4  -8   5 1708.81 199.773   3
  -4  -8   5 2241.35 280.963   7
  -4  -8   4 897.227 134.583   3
   4   8  -4 1400.78 227.068  11
   4   8  -4 1339.05 218.044   2
  -4  -8   4 1016.38 185.724   7
   4   8  -3 2764.52 303.779  11
   4   8  -3 2775.98 306.518   2
  -4  -8   3 2311.20 191.754   3
  -4  -8   3 2437.83 276.437   7
  -4  -8   2-15.9650 45.5111   3
   4   8  -2-103.011 84.0952  11
   4   8  -2-54.2896 89.8624   2
  -4  -8   2-69.9516 61.9563   7
   4   8  -1 311.942 105.019  11
   4   8  -1 304.258 96.1950   2
  -4  -8   1 339.189 105.317   7
  -4  -8   1 318.877 76.5071   3
   4   8   0 1721.94 230.790  11
  -4  -8   0 1650.33 123.278   3
   4   8   0 1759.83 239.625   2
  -4  -8   0 1735.21 221.793   7
  -4  -8  -1 716.102 65.1114   1
   4   8   1 614.279 145.941   2
  -4  -8  -1 630.613 134.328   7
  -4  -8  -1 612.962 62.6206   3
   4   8   2 385.906 122.432   2
  -4  -8  -2 336.785 41.6304   3
  -4  -8  -2 278.389 86.1346   7
  -4  -8  -2 472.061 50.1730   1
  -4  -8  -3 238.775 32.3302   5
  -4  -8  -3 282.343 91.4214  10
   4   8   3 517.941 128.080   2
  -4  -8  -3 336.715 38.8907   3
  -4  -8  -3 321.893 97.7043   7
  -4  -8  -4 221.880 89.3421  10
   4   8   4 202.112 104.157   2
  -4  -8  -4 102.940 20.4419   3
  -4  -8  -4 204.817 89.7497   7
  -4  -8  -5 775.965 73.2801   4
  -4  -8  -5 827.125 151.430  10
  -4  -8  -5 667.298 54.7305   3
  -4  -8  -5 624.541 53.8336   3
   4   8   5 945.762 189.284   2
  -4  -8  -5 826.819 157.969   7
  -4  -8  -6 3787.51 216.228   6
   4   8   6 3545.08 340.645   2
  -4  -8  -6 3210.75 135.798   3
  -4  -8  -6 3272.44 134.726   3
  -4  -8  -6 3059.54 271.740   7
  -4  -8  -7 2591.66 198.020   6
   4   8   7 2424.17 287.816   2
  -4  -8  -7 2266.38 130.052   3
  -4  -8  -7 2515.17 132.996   3
  -4  -8  -7 2496.00 251.308   7
  -4  -8  -8 37.7034 69.1688   7
   4   8   8 50.0616 37.4898   1
  -4  -8  -8 35.4353 27.3407   3
   4   8   8 65.4644 67.6038   2
  -4  -8  -9 34.4853 57.3549   7
   4   8   9 43.0385 32.2110   1
   4   8   9 154.713 116.129   2
   4   8  10 2274.00 191.889   1
   4   8  10 2030.20 264.977   2
   4   8  11 96.6846 64.2191   1
   4   8  11 227.112 112.506   2
  -4  -8 -12 43.7625 54.4768  10
   4   8  12 152.263 92.9241   2
   4   8  12 35.6433 37.8937   1
  -4  -8 -13 111.388 76.4029  10
   4   8  13 32.2479 37.6326   1
   4   8  13 143.268 109.277   2
   4   8  14-79.5119 63.9821   1
   4   8  14-105.267 65.0790   2
   4   8  15 145.411 73.2651   1
   4   8  15 111.993 81.1539   2
   4   8  16 77.4313 57.6624   1
   4   8  16 44.8710 60.9816   2
   4   8  17 35.9669 60.8764   1
   4   8  18-50.8880 86.6272   1
   4   9  -6 262.467 134.785  11
  -4  -9   6 33.5658 75.7197   7
   4   9  -5 67.1534 83.3365  11
  -4  -9   5 153.409 104.635   7
   4   9  -5 36.2308 75.2587   2
   4   9  -4 344.249 119.064  11
  -4  -9   4 342.385 122.285   7
   4   9  -4 274.338 131.443   2
   4   9  -3-141.216 97.3680  11
   4   9  -3 192.868 110.834   2
  -4  -9   3 37.0984 60.6823   7
   4   9  -2 860.447 175.287  11
   4   9  -2 712.290 172.419   2
  -4  -9   2 379.732 98.7045   7
   4   9  -1 2280.61 281.817  11
  -4  -9   1 2172.02 251.255   7
   4   9  -1 2449.71 295.588   2
   4   9   0 1208.46 220.495   2
  -4  -9   0 1061.19 168.588   7
   4   9   1-73.1642 71.7002   2
  -4  -9  -1 76.3055 80.3178   7
   4   9   2 863.527 171.467   2
  -4  -9  -2 767.343 142.248   7
   4   9   3 444.523 143.585   2
  -4  -9  -3 735.661 138.469   7
   4   9   4 69.0872 91.6742   2
  -4  -9  -4 69.0539 67.3507   7
  -4  -9  -5-22.7863 61.4606  10
   4   9   5-6.68550 75.6988   2
  -4  -9  -5-19.2503 67.4535   7
  -4  -9  -6 414.502 97.9428  10
   4   9   6 661.949 173.987   2
  -4  -9  -6 412.522 120.725   7
  -4  -9  -7 781.390 148.439   7
  -4  -9  -7 814.587 101.807   5
  -4  -9  -7 1092.87 170.055  10
   4   9   7 1084.63 213.690   2
  -4  -9  -8 1062.10 170.029   7
  -4  -9  -8 1092.99 127.873   5
   4   9   8 871.504 189.969   2
  -4  -9  -9 292.096 100.196   7
  -4  -9  -9 139.236 59.2115   5
   4   9   9 137.507 57.5007   1
   4   9   9-4.14129 80.8502   2
  -4  -9 -10 3697.49 278.181   5
   4   9  10 3780.36 372.773   2
   4   9  10 3918.50 266.821   1
  -4  -9 -10 4094.32 349.791   7
  -4  -9 -11 2843.17 259.731   5
   4   9  11 2871.61 332.208   2
   4   9  11 2474.84 217.307   1
  -4  -9 -11 3353.16 317.439   7
  -4  -9 -12-62.8594 68.0277   5
   4   9  12 49.8086 50.1722   1
   4   9  12-117.606 90.3649   2
   4   9  13-17.8586 41.7405   1
  -4  -9 -13 71.7785 71.5013   5
  -4  -9 -14 205.417 69.0059   5
   4   9  14 192.272 116.855   2
  -4  -9 -15 77.4713 126.737   5
  -4  -9 -16 216.755 102.271   5
  -4  -9 -17 215.571 125.874   5
   4  10  -3 81.6011 100.419  11
   4  10  -2 166.887 117.313  11
   4  10  -1 67.2364 95.9516  11
   4  10  -1 54.1175 101.853   2
  -4 -10   0 45.7324 76.3443   7
   4  10   0 184.152 107.018   2
   4  10   1 323.432 140.538   2
  -4 -10  -1 234.863 102.995   7
  -4 -10  -2 2132.12 242.525   7
   4  10   2 1725.30 279.314   2
   4  10   3 384.293 131.065   2
  -4 -10  -3 431.115 119.915   7
   4  10   4-23.8697 89.4465   2
  -4 -10  -4 161.933 94.6423   7
   4  10   5 981.615 211.525   2
  -4 -10  -5 1181.71 184.814   7
   4  10   6 811.669 188.086   2
  -4 -10  -6 907.588 160.466   7
   4  10   7 465.135 153.700   2
  -4 -10  -7 514.497 114.381   7
  -4 -10  -8 78.4785 66.7813   7
   4  10   8-92.4842 84.6015   2
  -4 -10  -9 204.361 83.2555   7
   4  10   9 604.088 167.437   2
  -4 -10 -10 204.049 97.1383   7
   4  10  10 163.593 78.0539   2
  -4 -10 -11 484.937 120.306   7
   4  10  11 567.366 162.589   2
  -4 -10 -12-0.64917 74.0028   7
  -4 -10 -13 23.3290 97.7174   7
   5  -7  -5 259.044 141.641   6
   5  -7  -4 497.223 153.690   6
   5  -7  -3 232.357 109.753   6
  -5   7   3 18.9846 68.3108  10
   5  -7  -2 260.377 116.071   6
  -5   7   2 286.590 103.004  10
   5  -7  -1 950.630 201.240   6
  -5   7   1 828.420 187.027  10
  -5   7   0 560.382 160.908  10
  -5   7  -1 78.9445 86.7886  10
  -5   7  -2 539.348 142.213  10
  -5   7  -3 619.287 210.471  10
  -5   7  -4 272.031 131.900  10
   5  -6  -8 131.536 100.229   8
  -5   6   8 97.5851 106.408   1
   5  -6  -7 633.080 182.623   6
  -5   6   7 634.268 185.452   1
   5  -6  -6 2367.11 321.106   6
  -5   6   6 2033.92 240.564  10
   5  -6  -6 2254.34 321.233   3
   5  -6  -5 1119.11 220.949   6
  -5   6   5 1215.62 186.258  10
   5  -6  -5 981.254 212.095   3
   5  -6  -4 6.84070 83.3497   6
  -5   6   4 32.7991 58.1751  10
   5  -6  -4 7.89968 72.5598   3
   5  -6  -3 160.015 109.015   6
  -5   6   3 151.656 88.6613  10
   5  -6  -3 60.5544 82.9859   3
   5  -6  -2 788.301 176.232   6
  -5   6   2 1027.62 186.341  10
   5  -6  -2 744.616 191.442   3
   5  -6  -1 205.071 120.218   6
  -5   6   1 357.044 121.560  10
   5  -6  -1 332.123 138.635   3
   5  -6   0 30.6869 77.8735   6
  -5   6   0-169.283 104.809  10
   5  -6   0 5.76837 68.9881   3
  -5   6  -1 87.9900 87.6857  10
   5  -6   1 85.8259 84.6837   3
  -5   6  -2 162.221 103.666  10
   5  -6   2 126.129 93.6621   3
  -5   6  -3 947.430 195.297  10
   5  -6   3 1185.15 242.248   3
  -5   6  -4 1682.92 266.870  10
   5  -6   4 2160.27 303.392   3
  -5   6  -5 1016.37 228.767  10
  -5   6  -6 213.598 150.331  10
  -5   5  11 1122.60 228.900   1
  -5   5  10 652.470 173.503   1
   5  -5 -10 313.726 129.013   8
  -5   5   9 37.9507 79.3210   1
   5  -5  -9-57.0837 97.6481   8
  -5   5   8 12.7339 56.7313  10
   5  -5  -8-94.4951 93.4348   8
  -5   5   8-67.6936 54.0942   7
  -5   5   7 1.22480 50.5520  10
  -5   5   7 181.127 104.184   1
   5  -5  -7 79.4425 104.150   8
  -5   5   7 36.2021 75.0940   7
   5  -5  -6 199.857 105.333   6
  -5   5   6 250.403 106.757  10
  -5   5   6 286.792 110.262   7
  -5   5   6 505.801 153.449   1
   5  -5  -5 1056.39 217.915   6
  -5   5   5 965.984 160.663  10
   5  -5  -5 752.016 183.229   3
  -5   5   5 950.596 151.080   7
   5  -5  -4 131.638 96.0423   6
  -5   5   4 80.2310 56.6780  10
   5  -5  -4-6.91114 88.6220   3
  -5   5   4 177.276 68.6933   7
   5  -5  -3 95.7559 105.180   6
  -5   5   3 87.1635 83.9124  10
   5  -5  -3-156.845 88.9458   3
  -5   5   3 57.3261 74.9834   7
   5  -5  -2 2813.05 316.146   6
  -5   5   2 2876.20 292.170  10
   5  -5  -2 2771.09 330.319   3
  -5   5   2 3080.65 247.778   7
   5  -5  -1 1373.00 224.648   6
  -5   5   1 1461.10 213.655  10
   5  -5  -1 1309.98 222.258   3
  -5   5   1 1537.33 181.994   7
   5  -5   0 637.495 170.376   6
  -5   5   0 869.087 169.908  10
   5  -5   0 744.473 167.208   3
  -5   5   0 487.680 112.145   7
  -5   5  -1 662.213 143.734  10
   5  -5   1 494.533 145.447   3
  -5   5  -1 490.239 101.038   7
  -5   5  -2 275.102 126.153  10
   5  -5   2 100.337 64.1235   3
  -5   5  -2 121.611 48.9280   7
  -5   5  -3 633.823 170.212  10
   5  -5   3 806.572 186.399   3
  -5   5  -3 787.266 136.888   7
  -5   5  -4 189.164 72.1197  11
  -5   5  -4 107.179 77.9968  10
   5  -5   4 58.1009 80.0337   3
  -5   5  -4 28.4186 49.6856   7
  -5   5  -5 1086.23 161.165  11
  -5   5  -5 1195.73 235.743  10
   5  -5   5 1094.83 223.543   3
  -5   5  -5 1073.57 172.559   7
  -5   5  -6 1109.12 168.893  11
  -5   5  -6 1048.91 219.778  10
   5  -5   6 1063.18 221.009   3
  -5   5  -7 103.882 66.7512  11
  -5   5  -7 21.7016 89.5759  10
   5  -5   7-0.40149 75.2128   3
  -5   5  -8 50.7859 95.0933  10
   5  -5   8-18.6178 98.0671   3
  -5   4  12-40.9086 89.9310   1
   5  -4 -11 611.924 189.342   8
  -5   4  11 885.057 205.570   1
   5  -4 -10 1183.99 238.919   8
  -5   4  10 951.443 202.096   1
  -5   4   9 497.653 156.921   1
   5  -4  -9 407.663 140.991   8
  -5   4   9 198.658 107.015   7
  -5   4   8 154.541 96.5118   1
   5  -4  -8-2.19882 79.1955   8
  -5   4   8 150.726 82.7843   7
   5  -4  -7 656.618 174.733   8
  -5   4   7 669.014 157.967   1
  -5   4   7 524.395 132.349   7
   5  -4  -6 1568.92 203.298   7
  -5   4   6 1570.10 243.193   1
   5  -4  -6 2395.92 305.770   8
  -5   4   6 2118.05 241.495   7
   5  -4  -5-30.5037 65.7500   7
   5  -4  -5 0.17516 66.9131   6
  -5   4   5 165.987 83.6946   1
  -5   4   5 29.8239 54.4583   7
   5  -4  -4 665.535 158.590   6
  -5   4   4 840.873 149.924   7
   5  -4  -3 12675.7 652.575   6
  -5   4   3 12477.8 570.856  10
   5  -4  -3 12624.7 639.758   3
  -5   4   3 13305.5 537.272   7
   5  -4  -2 211.149 124.323   6
  -5   4   2 272.724 110.826  10
   5  -4  -2-48.7577 78.5302   3
  -5   4   2 286.513 90.3849   7
   5  -4  -1 349.097 126.124   6
  -5   4   1 466.011 133.795  10
   5  -4  -1 259.279 102.133   3
  -5   4   1 383.667 96.2074   7
   5  -4   0 180.374 119.433   6
  -5   4   0 89.0436 73.6574  10
   5  -4   0-142.911 62.9837   3
  -5   4   0-37.4229 54.6065   7
   5  -4   1 3792.61 356.625   6
  -5   4  -1 3602.44 337.750  10
   5  -4   1 3783.54 346.242   3
  -5   4  -1 3750.60 284.114   7
  -5   4  -2 1542.81 231.523  10
   5  -4   2 1779.78 240.544   3
  -5   4  -2 1276.82 177.022   7
  -5   4  -3 274.719 111.274  10
   5  -4   3 174.346 107.782   3
  -5   4  -3 166.863 73.7761   7
  -5   4  -4-33.3327 34.9199  11
   5  -4   4 108.394 95.5084   3
  -5   4  -4-32.9824 46.0490   7
  -5   4  -5 84.4124 58.4833   7
  -5   4  -5-12.9794 39.6471  11
  -5   4  -5 49.4687 77.6821  10
   5  -4   5 124.762 99.9189   3
  -5   4  -6-3.25866 48.7210   7
  -5   4  -6 36.1532 47.2205  11
  -5   4  -6 73.2672 113.011  10
   5  -4   6 123.334 92.1145   3
  -5   4  -7 83.4365 71.3039   7
  -5   4  -7 201.313 74.0410  11
  -5   4  -7 271.350 113.678  10
   5  -4   7 236.257 97.8558   3
  -5   4  -8 0.40487 66.6585   7
  -5   4  -8 6.05128 56.5915  11
  -5   4  -8-31.3389 98.6657  10
   5  -4   8 222.258 107.906   3
  -5   4  -9 55.6029 65.6967   7
  -5   4  -9 180.441 78.9739  11
  -5   4  -9 19.5713 80.9334  10
   5  -4   9 72.7686 93.2377   3
  -5   4 -10 291.746 98.7488  11
   5  -4  10 353.723 135.735   3
  -5   4 -11-14.1624 48.9171  11
  -5   3  14 395.393 156.118   1
  -5   3  13 121.727 80.1331   1
  -5   3  12 69.3553 65.6066   1
   5  -3 -12 178.422 130.109   8
  -5   3  11 70.6148 97.4922   1
   5  -3 -11 112.106 108.853   8
  -5   3  10 128.908 88.0573   1
   5  -3 -10 113.142 117.266   8
  -5   3  10 5.72294 71.8201   7
   5  -3  -9 1012.71 208.844   8
  -5   3   9 885.438 173.620   1
  -5   3   9 875.692 187.630   7
   5  -3  -8 56.6450 86.9463   8
  -5   3   8 38.0576 80.0629   7
  -5   3   8-110.878 80.5137   1
  -5   3   7 1776.00 244.712   1
   5  -3  -7 1587.40 248.213   8
  -5   3   7 1488.65 214.098   7
  -5   3   6 608.910 150.868   1
   5  -3  -6 734.509 175.114   8
  -5   3   6 549.337 138.328   7
   5  -3  -5 1697.56 209.056   7
   5  -3  -5 905.795 92.0857  11
  -5   3   5 1555.33 214.765   1
   5  -3  -5 1805.03 259.489   8
  -5   3   5 1381.54 198.278   7
   5  -3  -4 1022.66 163.212   7
  -5   3   4 1173.76 197.815   1
   5  -3  -4 1037.39 191.684   6
   5  -3  -4 651.164 64.3513  11
  -5   3   4 1174.90 168.549   7
   5  -3  -3 2646.61 292.600   6
   5  -3  -3 2507.75 277.902   3
  -5   3   3 2978.61 265.616   7
   5  -3  -2 63.8404 64.0676   6
   5  -3  -2 34.4861 61.2812   3
   5  -3  -1 227.493 96.5148   6
   5  -3  -1 68.5471 62.2381   3
  -5   3   1 107.242 56.1161   7
   5  -3   0 222.451 100.065   6
  -5   3   0 113.953 75.7320  10
   5  -3   0 29.1197 76.4525   3
  -5   3   0 52.8455 63.6942   7
   5  -3   1 655.813 152.867   6
  -5   3  -1 622.646 147.929  10
   5  -3   1 478.926 126.185   3
  -5   3  -1 748.110 134.695   7
  -5   3  -2 502.703 137.954  10
   5  -3   2 591.708 137.695   3
  -5   3  -2 398.070 99.7418   7
  -5   3  -3 107.126 87.9400  10
   5  -3   3 424.109 120.410   3
  -5   3  -3 246.132 86.0786   7
  -5   3  -4 73.0206 60.7675   7
  -5   3  -4 60.3461 44.1988  11
  -5   3  -4 98.0713 70.7075  10
   5  -3   4-7.79284 56.3015   3
  -5   3  -5 58.4116 65.1121   7
  -5   3  -5 28.6436 48.1441  11
  -5   3  -5 160.313 101.129  10
   5  -3   5 299.699 111.759   3
  -5   3  -6 192.298 91.2097   7
  -5   3  -6 344.397 82.8749  11
  -5   3  -6 535.061 156.409  10
   5  -3   6 397.264 131.147   3
  -5   3  -7 1230.92 192.705   7
  -5   3  -7 1245.09 155.885  11
  -5   3  -7 1318.19 236.528  10
   5  -3   7 1380.78 206.215   3
  -5   3  -8 1148.63 197.603   7
  -5   3  -8 968.887 149.292  11
  -5   3  -8 1327.29 246.782  10
   5  -3   8 1375.02 219.206   3
  -5   3  -9-6.63403 37.5731  11
  -5   3  -9 94.1544 91.6193  10
   5  -3   9 147.648 100.025   3
  -5   3 -10-88.9922 63.7680  11
  -5   3 -10 215.088 121.299  10
   5  -3  10 68.3247 79.7673   3
  -5   3 -11 66.1102 67.5602  11
  -5   3 -11-142.631 124.714  10
   5  -3  11 44.2011 93.5639   3
  -5   3 -12 99.7299 82.3592  11
   5  -3  12 222.961 121.774   3
  -5   3 -13 97.0563 73.6755  11
  -5   3 -14 167.390 83.8577  11
  -5   2  14 913.391 200.246   1
  -5   2  13 181.284 120.954   1
   5  -2 -13 246.718 131.123   8
  -5   2  12 522.360 147.935   1
   5  -2 -12 853.695 205.425   8
  -5   2  11 1925.21 258.381   1
   5  -2 -11 1812.66 268.817   8
  -5   2  11 1932.74 280.219   7
  -5   2  10 63.3025 82.6240   1
   5  -2 -10 65.5603 115.207   8
  -5   2  10 17.2883 66.0694   7
  -5   2   9 934.738 176.202   1
   5  -2  -9 843.409 188.739   8
  -5   2   9 492.452 147.250   7
  -5   2   8 91.2284 56.2984   1
   5  -2  -8 293.065 138.061   8
  -5   2   8 333.221 126.460   7
   5  -2  -7 222.666 112.711   8
  -5   2   7 96.2358 73.3939   7
  -5   2   7 156.916 85.2711   1
  -5   2   6 203.666 102.540   1
   5  -2  -6-51.0115 28.5726  11
   5  -2  -6 145.967 104.951   8
  -5   2   6 1.66052 69.6792   7
   5  -2  -5 172.455 81.5758   7
   5  -2  -5 114.168 78.2465   1
   5  -2  -5 28.5739 18.6293  11
  -5   2   5 96.3862 78.7761   1
   5  -2  -5 13.3162 67.6082   8
  -5   2   5 100.342 90.4666   7
   5  -2  -4 1182.03 181.522   7
   5  -2  -4 1313.84 209.720   6
   5  -2  -4 982.420 158.764   1
  -5   2   4 1146.75 177.109   1
  -5   2   4 1243.76 184.615   7
   5  -2  -3 6829.89 451.144   6
   5  -2  -3 7004.49 403.426   1
  -5   2   3 7517.86 422.239   1
  -5   2   3 7207.92 427.524   7
   5  -2  -3 7461.85 426.902   7
   5  -2  -2 68.2317 64.3377   6
   5  -2  -2 63.8876 64.1776   3
   5  -2  -2 0.11259 51.0274   1
  -5   2   2 94.3570 66.2241   7
   5  -2  -1 108.446 85.8497   6
   5  -2  -1-17.2929 74.5887   3
   5  -2  -1 117.483 51.0296   1
  -5   2   1 31.3512 65.4218   7
   5  -2   0 535.131 119.935   1
   5  -2   0 688.076 151.255   6
   5  -2   0 604.198 130.985   3
  -5   2   0 635.255 132.631   7
   5  -2   1 1749.57 230.571   6
   5  -2   1 1606.43 202.074   1
   5  -2   1 1489.47 196.541   3
  -5   2  -1 1501.04 189.286   7
  -5   2  -2 2656.95 281.697  10
   5  -2   2 2656.95 257.017   1
   5  -2   2 2589.61 249.771   3
  -5   2  -2 2785.11 252.789   7
  -5   2  -3 1086.60 168.334   7
  -5   2  -3 1256.71 200.630  10
   5  -2   3 1156.42 165.907   3
   5  -2   3 1174.64 173.693   1
  -5   2  -4 1357.02 181.859   7
  -5   2  -4 1007.62 93.5382  11
  -5   2  -4 1173.00 189.077  10
   5  -2   4 1400.90 202.537   1
   5  -2   4 1554.72 201.307   3
  -5   2  -5 5850.13 257.560  11
  -5   2  -5 7765.94 492.804  10
   5  -2   5 7974.97 449.238   3
  -5   2  -5 7853.45 443.791   7
  -5   2  -6 1458.57 144.224  11
  -5   2  -6 1541.55 236.241  10
   5  -2   6 1904.45 230.155   3
  -5   2  -6 1948.10 230.204   7
  -5   2  -7 3974.52 252.498  11
  -5   2  -7 4804.46 415.646  10
   5  -2   7 5026.38 370.838   3
  -5   2  -7 5138.20 384.094   7
  -5   2  -8 0.09385 40.8244  11
  -5   2  -8 85.2849 98.2707  10
   5  -2   8 43.5141 74.6994   3
  -5   2  -9 1104.20 154.705  11
  -5   2  -9 1373.64 242.573  10
   5  -2   9 1428.51 214.802   3
  -5   2 -10 555.529 118.881  11
  -5   2 -10 952.196 213.487  10
   5  -2  10 603.516 142.435   3
  -5   2 -11 21.0110 46.4023  11
  -5   2 -11 66.7012 80.3351  10
   5  -2  11-11.2341 73.1560   3
  -5   2 -12-48.6116 54.3409  11
  -5   2 -12 116.283 90.2862  10
   5  -2  12-43.3350 63.1992   3
  -5   2 -13-5.74033 53.0666  11
   5  -2  13 226.655 105.058   3
  -5   2 -14 97.5335 97.1848  11
   5  -2  14-49.0075 79.0353   3
  -5   2 -15-17.9954 61.9442  11
  -5   1  15 687.776 166.947   1
  -5   1  14 111.561 105.000   1
   5  -1 -13 269.599 138.224   8
  -5   1  13 262.785 110.633   1
   5  -1 -12 17.1745 90.8654   8
  -5   1  12-156.078 123.904   7
  -5   1  12-41.4195 83.3206   1
   5  -1 -11 2466.76 306.843   8
  -5   1  11 2027.38 298.222   7
  -5   1  11 1875.90 242.069   1
  -5   1  10 3228.32 311.211   1
   5  -1 -10 3702.98 365.471   8
  -5   1  10 3269.57 355.716   7
  -5   1   9 812.324 159.211   1
   5  -1  -9 592.068 145.641   8
  -5   1   9 307.858 126.750   7
  -5   1   8 283.063 95.4844   1
   5  -1  -8 489.026 151.010   8
  -5   1   8 228.280 115.620   7
  -5   1   7 1184.26 175.297   1
   5  -1  -7 1081.87 200.833   8
   5  -1  -7 861.943 162.369   1
  -5   1   7 1162.24 195.026   7
   5  -1  -6 165.831 89.0352   8
  -5   1   6 304.958 92.2375   1
   5  -1  -6 200.013 83.3826   1
  -5   1   6 242.867 106.599   7
   5  -1  -5 338.089 36.7284  11
   5  -1  -5 273.170 36.2739  11
  -5   1   5 1096.58 159.971   1
   5  -1  -5 979.606 180.093   8
  -5   1   5 781.588 162.496   7
   5  -1  -5 704.914 128.664   1
   5  -1  -4 210.392 88.5238   7
   5  -1  -4 14.8034 48.4335   1
   5  -1  -4 133.620 83.3311   8
  -5   1   4 77.6861 68.8869   7
  -5   1   4 13.0185 55.9021   1
   5  -1  -3 4166.87 339.832   6
   5  -1  -3 4255.54 290.144   1
  -5   1   3 4942.52 315.284   1
  -5   1   3 4267.75 333.868   7
   5  -1  -3 4886.97 351.974   7
   5  -1  -2 218.038 89.8041   7
   5  -1  -2 122.425 76.0017   6
   5  -1  -2-114.063 83.5407   1
  -5   1   2 296.730 112.986   7
   5  -1  -1 3645.98 313.650   6
   5  -1  -1 3178.02 242.783   1
   5  -1  -1 3353.55 264.843   3
  -5   1   1 3700.60 295.046   7
   5  -1   0 3925.69 331.600   6
   5  -1   0 3757.44 267.560   1
   5  -1   0 3825.32 274.075   3
  -5   1   0 4611.07 348.165   7
   5  -1   1 31510.4 905.726   6
   5  -1   1 31816.8 779.214   1
   5  -1   1 32829.4 878.767   4
   5  -1   1 32056.8 784.153   3
  -5   1  -1 31474.6 842.551   7
   5  -1   2 34.3491 57.2484   4
   5  -1   2 26.9697 40.1442   1
   5  -1   2 3.32941 47.4212   3
  -5   1  -2-36.6408 68.9166   7
  -5   1  -3 645.313 137.392   7
   5  -1   3 829.300 135.839   3
   5  -1   3 809.911 136.606   1
  -5   1  -4 669.700 133.016   7
  -5   1  -4 392.062 44.7181  11
  -5   1  -4 863.065 172.733  10
   5  -1   4 832.699 141.645   1
   5  -1   4 879.104 135.509   3
  -5   1  -5 599.539 134.212   7
  -5   1  -5 456.835 62.6323  11
   5  -1   5 762.144 149.854   1
  -5   1  -5 831.610 150.678  10
   5  -1   5 828.472 139.007   3
  -5   1  -6 23.2862 66.2270   7
  -5   1  -6 35.4285 26.1684  11
  -5   1  -6 124.861 87.1680  10
   5  -1   6-42.9436 57.6894   1
   5  -1   6-35.0561 54.9866   3
  -5   1  -7 263.789 109.313   7
  -5   1  -7 223.355 114.027  10
   5  -1   7 63.9460 60.0018   3
  -5   1  -7 107.912 48.8140  11
  -5   1  -8 36.6644 43.8565  11
  -5   1  -8-59.6864 89.8585  10
   5  -1   8-86.4953 63.6205   3
  -5   1  -9 527.027 105.591  11
  -5   1  -9 750.196 176.463  10
   5  -1   9 508.670 134.149   3
  -5   1 -10 271.336 79.0740  11
  -5   1 -10 596.945 163.451  10
   5  -1  10 630.820 140.781   3
  -5   1 -11 65.6873 86.7622  10
   5  -1  11-92.8085 87.7380   3
  -5   1 -12 463.560 148.247  10
   5  -1  12 576.599 146.488   3
  -5   1 -13 400.635 173.734  10
   5  -1  13 663.161 166.949   3
  -5   1 -14 245.456 136.540  10
   5  -1  14 107.480 74.8041   3
   5  -1  15 268.539 128.246   3
  -5   0  15 201.431 121.874   1
  -5   0  14-101.454 90.0883   1
   5   0 -14-99.7936 114.690   8
   5   0 -13 42.5797 48.0393   2
  -5   0  13 84.1208 85.8001   1
   5   0 -13 57.3217 102.127   8
   5   0 -12 48.5484 60.4908   2
   5   0 -12 98.4111 103.746   8
  -5   0  12 36.2003 68.7135   1
  -5   0  12-32.4784 76.0938   7
   5   0 -11 293.215 90.1450   2
   5   0 -11 589.750 164.477   8
  -5   0  11 579.992 138.117   1
  -5   0  11 698.226 175.289   7
   5   0 -10 636.883 171.188   8
  -5   0  10 558.025 131.068   1
  -5   0  10 337.893 115.809   7
   5   0  -9 33.4656 81.5366   8
  -5   0   9 23.2287 71.3146   7
  -5   0   9-0.62352 52.0530   1
  -5   0   8 458.167 109.490   1
   5   0  -8 410.434 111.332   1
   5   0  -8 251.750 116.076   8
  -5   0   8 323.895 137.057   7
  -5   0   7 3067.35 262.038   1
   5   0  -7 3019.47 300.321   8
  -5   0   7 2971.78 311.124   7
   5   0  -7 2776.88 258.451   1
   5   0  -6 100.532 39.6632  11
  -5   0   6-46.5691 60.9617   1
   5   0  -6 64.2112 53.6755   1
   5   0  -6 55.8947 75.7933   8
  -5   0   6 136.679 95.3634   7
   5   0  -5 247.860 38.9217  11
   5   0  -5 403.037 117.059   8
   5   0  -5 392.066 93.6773   1
  -5   0   5 496.645 101.230   1
  -5   0   5 545.119 137.659   7
   5   0  -4 3677.23 259.815   1
  -5   0   4 3245.67 239.722   1
  -5   0   4 3691.46 312.880   8
   5   0  -4 3764.86 317.593   8
  -5   0   4 3623.83 319.506   7
   5   0  -3 12180.4 558.134   6
   5   0  -3 11745.0 446.441   1
  -5   0   3 12688.3 465.805   1
  -5   0   3 12414.1 559.433   8
  -5   0   3 12819.4 583.381   7
   5   0  -3 12794.4 573.370   7
   5   0  -2 20091.5 705.322   6
  -5   0   2 21449.4 726.538   8
  -5   0   2 20577.8 716.027   7
   5   0  -2 22705.2 742.920   7
   5   0  -1 2236.80 237.212   6
   5   0  -1 2458.32 211.386   3
  -5   0   1 3191.02 283.940   8
  -5   0   1 2931.68 269.427   7
   5   0   0 5878.78 379.586   6
   5   0   0 5548.69 301.361   3
  -5   0   0 6469.32 400.459   8
  -5   0   0 5643.50 369.866   7
   5   0   1 139.477 91.1621   6
   5   0   1 198.376 87.0689   4
   5   0   1 154.652 49.8669   3
  -5   0  -1 191.078 91.2757   8
  -5   0  -1 98.1480 59.1169   7
  -5   0  -2 208.928 99.7432   7
   5   0   2 143.712 90.5767   4
   5   0   2 60.8618 48.8214   3
  -5   0  -2 88.9743 53.6885   8
  -5   0  -3 85.1999 78.5404   7
   5   0   3 177.602 73.7538   4
   5   0   3 145.682 66.7166   3
  -5   0  -3 202.672 91.6232   8
   5   0   3 122.229 63.9804   1
   5   0   4 2651.79 245.621   4
   5   0   4 2736.45 227.317   1
   5   0   4 2851.27 220.689   3
  -5   0  -4 2932.70 283.669   8
  -5   0  -4 2788.11 268.737   7
  -5   0  -5 2680.23 135.079  11
   5   0   5 4980.96 348.985   4
   5   0   5 4589.67 300.802   1
   5   0   5 4564.76 283.786   3
  -5   0  -5 4554.50 346.865   7
  -5   0  -6 431.835 125.463   7
   5   0   6 635.170 126.829   1
  -5   0  -6 603.022 146.445  10
   5   0   6 534.547 103.115   3
  -5   0  -7 321.959 132.958  10
   5   0   7 159.187 61.2850   3
  -5   0  -8 164.937 102.556  10
  -5   0  -8 308.756 106.506   3
   5   0   8 291.679 92.3398   3
  -5   0  -9 1.90908 74.3802  10
  -5   0  -9-42.9692 47.3932   3
   5   0   9 41.0633 51.9862   3
  -5   0 -10 440.310 155.705  10
   5   0  10 397.168 120.774   3
  -5   0 -11 230.457 113.044  10
   5   0  11 51.2384 60.3056   3
  -5   0 -12 1069.71 211.732  10
   5   0  12 750.285 153.813   3
  -5   0 -13 390.559 147.763   4
   5   0  13 191.923 70.9485   2
  -5   0 -13 290.648 132.041  10
   5   0  13 479.676 135.145   3
  -5   0 -14 15.7771 89.9539   4
   5   0  14-19.6484 68.7140   2
  -5   0 -14 144.243 111.305  10
   5   0  14-9.21620 74.0364   3
  -5   0 -15-2.17256 79.4649  10
   5   0  15-10.4631 60.0416   3
   5   0  16 84.1597 77.3430   3
  -5  -1  15 328.381 122.391   1
  -5  -1  14 127.675 85.7664   1
   5   1 -14 304.856 152.686   8
  -5  -1  13 141.049 85.2146   1
   5   1 -13-51.9115 96.9010   8
   5   1 -12 1486.87 196.311   2
  -5  -1  12 1848.12 234.468   1
   5   1 -12 2007.02 274.130   8
  -5  -1  12 1854.91 298.864   7
   5   1 -11 710.959 133.443  11
   5   1 -11 864.181 145.107   2
  -5  -1  11 965.564 170.727   1
   5   1 -11 825.636 176.194   8
  -5  -1  11 1028.06 219.837   7
   5   1 -10 54.6153 46.8097  11
   5   1 -10 91.4091 71.4915   2
  -5  -1  10 52.9495 75.1318   1
   5   1 -10 168.504 92.7512   8
  -5  -1  10 149.443 95.1816   7
   5   1  -9 487.297 99.6695  11
   5   1  -9 680.087 145.241   2
   5   1  -9 648.192 153.707   8
  -5  -1   9 759.953 138.611   1
  -5  -1   9 557.237 169.166   7
   5   1  -8 4009.37 333.660   2
   5   1  -8 3168.84 224.129  11
  -5  -1   8 4212.96 300.873   1
   5   1  -8 4011.60 309.115   3
   5   1  -8 4413.73 363.285   8
  -5  -1   8 4562.28 402.086   7
  -5  -1   7 109.890 64.2989   1
   5   1  -7-84.0936 62.7887   3
   5   1  -7-18.5205 59.1521   2
   5   1  -7 95.2399 49.1996  11
   5   1  -7 38.5376 85.7713   8
  -5  -1   7 36.1272 67.6422   7
   5   1  -6 828.983 97.6362  11
  -5  -1   6 1193.62 149.858   1
   5   1  -6 1319.11 191.927   8
  -5  -1   6 1095.32 198.071   7
   5   1  -6 1232.52 156.801   1
   5   1  -5 1427.95 108.294  11
  -5  -1   5 1970.96 176.704   1
  -5  -1   5 2431.04 249.992   8
   5   1  -5 2085.25 233.608   8
  -5  -1   5 2107.21 247.815   7
   5   1  -4 855.940 69.1469  11
  -5  -1   4 1674.81 157.045   1
  -5  -1   4 1941.69 218.178   8
   5   1  -4 1851.47 215.714   8
  -5  -1   4 1717.33 231.193   7
   5   1  -3 466.933 115.170   7
   5   1  -3 313.755 93.2967   6
  -5  -1   3 419.016 112.247   8
   5   1  -3 240.127 63.0956   1
  -5  -1   3 365.033 80.5645   1
  -5  -1   3 372.918 121.821   7
   5   1  -2 1023.02 168.473   7
   5   1  -2 859.595 148.523   6
  -5  -1   2 760.809 136.404   8
   5   1  -2 760.910 104.732   1
  -5  -1   2 925.795 161.393   7
   5   1  -1 310.745 111.193   7
   5   1  -1 272.710 85.1705   6
   5   1  -1 255.648 65.5636   1
  -5  -1   1 452.355 126.943   8
  -5  -1   1 337.915 112.224   7
   5   1   0 1740.37 207.745   6
   5   1   0 1621.43 139.781   1
   5   1   0 1954.78 184.914   4
   5   1   0 1599.58 147.556   3
  -5  -1   0 1902.28 208.422   8
  -5  -1   0 1510.91 197.392   7
   5   1   1 912.220 148.550   6
   5   1   1 864.458 124.742   4
   5   1   1 725.583 102.539   3
  -5  -1  -1 782.647 139.943   8
   5   1   1 670.183 90.5897   1
  -5  -1  -1 811.209 145.899   7
  -5  -1  -2 193.681 96.1596   7
   5   1   2 99.5022 38.6546   1
   5   1   2 124.343 54.3399   4
   5   1   2 63.2812 37.3170   3
  -5  -1  -2 152.806 69.4592   8
  -5  -1  -3-19.1311 62.1242   7
   5   1   3-3.22996 53.7606   4
   5   1   3 86.8956 49.9633   1
  -5  -1  -3 102.080 61.9960   8
   5   1   3 59.5662 40.3708   3
  -5  -1  -4 349.509 108.015   7
  -5  -1  -4 81.5728 18.6240  11
   5   1   4 184.977 75.7332   4
  -5  -1  -4 409.849 112.340   8
   5   1   4 281.498 68.5857   3
  -5  -1  -5 1222.56 181.199   7
  -5  -1  -5 1495.93 211.206   6
   5   1   5 1277.41 136.369   3
  -5  -1  -6 129.233 74.2760   7
   5   1   6 32.2791 37.9629   3
  -5  -1  -7 339.220 121.776  10
  -5  -1  -7 190.317 70.0910   3
   5   1   7 387.451 87.4126   3
  -5  -1  -8 42.6295 85.4397  10
  -5  -1  -8 176.307 69.8121   3
   5   1   8 231.792 69.4933   3
  -5  -1  -9 1927.55 255.435  10
  -5  -1  -9 1640.64 199.035   3
   5   1   9 1788.38 193.805   3
   5   1  10 32.3804 60.7192   2
  -5  -1 -10 33.1261 78.8687  10
  -5  -1 -10 73.2168 66.7454   3
   5   1  10-8.23752 40.8419   3
  -5  -1 -11-49.5974 87.3978   4
   5   1  11 107.166 72.4056   2
  -5  -1 -11 103.355 97.3859  10
  -5  -1 -11 37.9776 48.8368   3
   5   1  11-37.0212 49.8908   3
  -5  -1 -12 660.395 165.135   4
   5   1  12 398.323 112.814   2
  -5  -1 -12 493.711 152.228  10
   5   1  12 413.151 116.098   3
  -5  -1 -13-25.0827 71.3230   4
   5   1  13-5.83579 53.4122   2
  -5  -1 -13-42.2127 89.3666  10
   5   1  13 77.2514 67.3957   3
   5   1  14-5.54829 62.6571   3
  -5  -1 -14-68.7883 118.026   4
   5   1  14 9.94630 49.7548   2
   5   1  15 352.997 119.990   3
  -5  -1 -15 138.042 116.692   4
  -5  -1 -15 225.808 125.539  10
   5   1  16 69.9331 85.9943   3
  -5  -1 -16 171.421 113.689  10
   5   1  17 180.911 104.044   3
   5   2 -15-59.9423 66.0274  11
  -5  -2  15-172.388 105.315   1
   5   2 -15 49.6341 82.9350   8
   5   2 -14 93.0408 86.5021  11
  -5  -2  14 155.109 83.5262   1
   5   2 -14 43.0054 68.2953   8
   5   2 -13 66.6029 80.5011  11
  -5  -2  13 33.2604 68.6263   1
   5   2 -13 145.566 120.809   8
   5   2 -12 331.950 110.242  11
  -5  -2  12 435.415 126.139   1
   5   2 -12 331.357 91.3062   2
   5   2 -12 453.993 142.646   8
  -5  -2  12 387.927 160.953   7
   5   2 -11 2614.73 260.904  11
   5   2 -11 2947.00 273.999   2
  -5  -2  11 3840.70 314.709   1
   5   2 -11 4321.94 374.738   8
  -5  -2  11 3147.07 382.062   7
   5   2 -10 459.743 116.432  11
   5   2 -10 889.821 156.648   2
  -5  -2  10 781.996 143.719   1
   5   2 -10 918.551 172.826   8
  -5  -2  10 1000.48 208.395   7
   5   2  -9 2198.75 216.200  11
   5   2  -9 2540.33 261.417   2
  -5  -2   9 2545.87 236.777   1
   5   2  -9 2574.93 252.687   3
   5   2  -9 3051.47 297.261   8
  -5  -2   9 2893.02 342.613   7
   5   2  -8 60.5006 63.4256  11
   5   2  -8 9.14704 60.0662   2
  -5  -2   8 3.39832 57.2447   1
   5   2  -8-65.1055 70.8982   8
  -5  -2   8 32.3126 83.2037   7
   5   2  -8-37.7806 52.5524   3
   5   2  -7 524.994 112.153   3
   5   2  -7 487.231 91.5509  11
   5   2  -7 578.731 135.112   2
   5   2  -7 697.674 135.633   8
  -5  -2   7 768.286 123.579   1
  -5  -2   7 536.465 153.980   7
   5   2  -6 1506.27 144.943  11
  -5  -2   6 2007.27 225.032   5
  -5  -2   6 1796.50 168.951   1
   5   2  -6 1743.27 218.755   2
   5   2  -6 1844.50 185.354   3
   5   2  -6 1942.51 216.859   8
  -5  -2   6 1927.23 246.729   7
   5   2  -5 987.857 109.884  11
  -5  -2   5 1215.33 133.574   1
   5   2  -5 1172.23 190.120   2
   5   2  -5 1311.54 185.700   8
  -5  -2   5 1109.25 187.780   7
   5   2  -4 1558.53 193.149   6
   5   2  -4 1317.46 113.637  11
   5   2  -4 1395.90 206.307   2
  -5  -2   4 1590.06 140.486   1
  -5  -2   4 1616.60 192.281   8
   5   2  -4 1536.08 189.796   8
  -5  -2   4 1551.49 229.216   7
   5   2  -3 495.779 113.324   6
   5   2  -3 493.878 65.2998  11
   5   2  -3 682.564 149.807   2
  -5  -2   3 713.915 90.2736   1
  -5  -2   3 720.902 134.443   8
  -5  -2   3 852.567 170.395   7
   5   2  -2-20.8117 58.7616   7
   5   2  -2-18.9489 61.2687   6
   5   2  -2 95.3461 107.896   2
   5   2  -2 45.7579 32.8477   1
  -5  -2   2-44.7329 56.6507   8
   5   2  -1 4886.48 209.846   1
   5   2  -1 5030.34 333.666   6
   5   2  -1 5033.09 377.944   2
  -5  -2   1 5986.13 353.978   8
  -5  -2   1 5644.82 388.452   7
   5   2  -1 5456.28 379.619   7
   5   2   0 9642.85 281.207   1
   5   2   0 10338.4 463.347   6
   5   2   0 10133.1 517.227   2
   5   2   0 9288.42 380.417   4
   5   2   0 9518.39 298.831   3
  -5  -2   0 10472.8 462.149   8
  -5  -2   0 10467.2 511.567   7
   5   2   1 3707.71 320.982   2
   5   2   1 3696.32 283.179   6
   5   2   1 3739.65 171.455   1
   5   2   1 3591.50 238.076   4
   5   2   1 3524.39 174.027   3
  -5  -2  -1 4196.92 293.993   8
  -5  -2  -1 3896.61 312.806   7
  -5  -2  -2-57.5987 71.7192   7
   5   2   2 92.0293 59.4830   2
   5   2   2 104.748 47.9716   4
   5   2   2 41.1639 28.4180   1
  -5  -2  -2 6.33665 46.0980   8
   5   2   2 52.8312 25.3054   3
  -5  -2  -3 807.893 148.339   7
   5   2   3 1280.26 201.364   2
  -5  -2  -3 361.664 41.0868  11
   5   2   3 869.619 91.9849   1
   5   2   3 1039.57 139.219   4
   5   2   3 991.989 96.9216   3
  -5  -2  -3 847.996 143.616   8
  -5  -2  -4 4300.90 321.937   6
   5   2   4 3866.11 331.162   2
  -5  -2  -4 2985.67 138.666  11
   5   2   4 4400.79 214.925   1
   5   2   4 4255.62 196.046   3
  -5  -2  -4 4660.01 326.724   8
  -5  -2  -4 4385.15 339.541   7
  -5  -2  -5 572.780 136.301   7
  -5  -2  -5 730.367 140.403   6
  -5  -2  -5 476.501 64.5555  11
   5   2   5 758.058 157.960   2
   5   2   5 689.362 94.1672   1
   5   2   5 725.595 87.7497   3
  -5  -2  -6 552.086 127.381   7
  -5  -2  -6 611.429 131.178   6
   5   2   6 510.061 127.520   2
   5   2   6 479.384 73.2289   3
   5   2   7-62.8054 75.6980   2
  -5  -2  -7 7.31251 43.7304   3
   5   2   7 114.186 53.5520   3
  -5  -2  -8 1068.72 180.444  10
   5   2   8 965.499 169.133   2
  -5  -2  -8 908.244 129.399   3
   5   2   8 1014.40 128.110   3
  -5  -2  -9 2.37978 64.6706   4
  -5  -2  -9 94.6097 77.6485  10
   5   2   9-22.8948 63.9641   2
  -5  -2  -9 26.0227 42.5807   3
   5   2   9-24.2717 37.4430   3
  -5  -2 -10 419.742 127.105  10
  -5  -2 -10 487.362 126.682   4
   5   2  10 263.926 87.7670   2
  -5  -2 -10 551.145 110.382   3
   5   2  10 313.210 87.9486   3
   5   2  11 144.669 67.1891   3
  -5  -2 -11 136.872 87.6078  10
  -5  -2 -11 236.981 99.4728   4
   5   2  11 180.544 82.6744   2
  -5  -2 -11 193.109 81.6341   3
   5   2  12 367.050 103.486   3
  -5  -2 -12 320.241 125.588  10
  -5  -2 -12 582.422 159.112   4
   5   2  12 363.450 115.557   2
  -5  -2 -12 559.587 122.443   3
   5   2  13 624.569 134.080   3
  -5  -2 -13 663.102 155.772   4
  -5  -2 -13 589.866 168.600  10
   5   2  13 431.426 111.473   2
   5   2  14 41.9284 75.8637   3
  -5  -2 -14 21.0240 99.5547   4
  -5  -2 -14 97.6117 93.5560  10
   5   2  14 93.0461 72.4658   2
   5   2  15 83.8159 86.3185   3
  -5  -2 -15-141.025 83.2487   4
  -5  -2 -15-75.2831 76.8869  10
   5   2  15 144.268 56.3304   2
   5   2  16 145.709 93.2651   3
  -5  -2 -16 68.9860 118.061   4
  -5  -2 -16-15.1935 72.6718  10
  -5  -2 -17 148.615 96.4231  10
   5   3 -14 148.030 86.6735  11
   5   3 -14 430.512 138.880   8
   5   3 -13 82.0098 62.6066  11
  -5  -3  13-14.0350 67.3631   1
   5   3 -13-13.7002 75.3919   8
   5   3 -12 97.9924 100.050  11
  -5  -3  12 20.5199 68.8026   1
   5   3 -12 19.8643 46.7701   2
   5   3 -12 274.323 123.164   8
  -5  -3  12 23.2288 121.981   7
   5   3 -11 126.603 90.9208  11
  -5  -3  11-160.017 90.6139   1
   5   3 -11-21.4550 46.6907   2
   5   3 -11 17.2282 75.9231   8
  -5  -3  11-10.7041 79.2726   7
   5   3 -10 17.2604 70.9871  11
  -5  -3  10-84.4882 67.2403   1
   5   3 -10-86.2878 68.5812   2
   5   3 -10 0.57489 59.8341   8
  -5  -3  10-5.04557 98.1219   7
   5   3  -9-22.9420 57.3132  11
  -5  -3   9-84.0834 63.9522   1
   5   3  -9-20.0218 51.2432   2
   5   3  -9-4.59003 59.2226   8
  -5  -3   9-176.073 91.0331   7
   5   3  -9 21.1563 52.0846   3
   5   3  -8 161.510 69.1032  11
   5   3  -8 186.256 89.9762   2
  -5  -3   8 230.299 72.3026   1
   5   3  -8 185.780 71.2618   8
  -5  -3   8 101.354 80.0684   7
   5   3  -8 156.474 68.4356   3
   5   3  -7 330.459 87.4444  11
  -5  -3   7 284.723 89.3102   5
   5   3  -7 292.309 103.943   2
  -5  -3   7 434.218 85.3822   1
   5   3  -7 497.338 119.495   8
  -5  -3   7 385.004 119.850   7
   5   3  -7 371.132 90.4904   3
   5   3  -6-13.8985 40.1267  11
  -5  -3   6 33.6268 63.6722   5
   5   3  -6-79.7782 88.5241   2
   5   3  -6 129.876 74.1472   8
  -5  -3   6 13.5999 39.6067   1
  -5  -3   6 4.21411 66.5702   7
   5   3  -6 29.9847 46.4435   3
   5   3  -5 566.629 99.7991  11
  -5  -3   5 561.986 115.817   5
   5   3  -5 588.150 146.694   2
   5   3  -5 723.472 136.480   8
  -5  -3   5 690.168 161.575   7
  -5  -3   5 556.982 84.6621   1
   5   3  -4 865.685 144.104   6
   5   3  -4 774.775 100.920  11
   5   3  -4 709.613 154.809   2
  -5  -3   4 813.859 89.8526   1
   5   3  -4 726.762 127.494   8
  -5  -3   4 757.056 170.817   7
   5   3  -4 762.095 100.583   3
   5   3  -3 414.078 97.3200   6
   5   3  -3 388.818 71.6763  11
  -5  -3   3 378.245 60.0530   1
   5   3  -3 206.217 73.7383   2
  -5  -3   3 331.837 99.0122   8
  -5  -3   3 350.413 110.911   7
   5   3  -3 439.158 72.8418   3
   5   3  -2 1377.08 171.126   6
   5   3  -2 1239.50 118.393  11
   5   3  -2 1379.15 198.891   2
   5   3  -2 1343.86 108.636   3
  -5  -3   2 1442.12 168.003   8
  -5  -3   2 1336.17 205.035   7
   5   3  -1 62.3948 51.2050   6
   5   3  -1 128.469 56.3152   4
   5   3  -1 29.4232 64.2823   2
  -5  -3   1 166.420 66.4133   8
  -5  -3   1-1.45681 72.7502   7
   5   3  -1 75.9201 23.0682   3
   5   3   0-1.11874 13.0636   3
   5   3   0 38.1994 48.2741   6
   5   3   0 38.2396 59.7138   2
   5   3   0-12.2324 39.3040   4
   5   3   0 11.3511 15.9093   3
  -5  -3   0-24.1612 51.6117   8
  -5  -3   0 0.12855 62.9545   7
   5   3   1 346.528 111.287   2
   5   3   1 284.389 80.9744   4
   5   3   1 288.275 34.5940   3
  -5  -3  -1 515.174 118.195   8
   5   3   1 202.442 29.7270   3
  -5  -3  -1 591.876 149.992   7
   5   3   2 2962.25 98.3981   1
  -5  -3  -2 4036.97 178.143  11
   5   3   2 3717.42 323.904   2
   5   3   2 3105.46 92.2366   3
  -5  -3  -2 3990.06 275.650   8
  -5  -3  -2 3859.59 310.381   7
  -5  -3  -3 72.5476 98.0440   7
  -5  -3  -3 50.3401 29.7962  11
   5   3   3 245.604 106.828   2
   5   3   3 129.912 29.2187   1
  -5  -3  -3 47.5928 60.8052   8
   5   3   3 184.372 30.0629   3
  -5  -3  -4 4446.03 312.666   6
   5   3   4 4088.95 342.325   2
  -5  -3  -4 4231.54 202.730  11
   5   3   4 3763.23 155.989   1
   5   3   4 4122.61 136.924   3
  -5  -3  -4 3995.55 289.561   8
  -5  -3  -4 3913.56 316.395   7
  -5  -3  -5 5264.81 351.692   6
   5   3   5 4383.61 343.307   2
  -5  -3  -5 4420.16 220.777  11
   5   3   5 4498.49 195.089   1
   5   3   5 4524.55 167.900   3
  -5  -3  -5 4535.85 346.470   7
  -5  -3  -6 312.837 101.723   7
  -5  -3  -6 225.452 91.1975   6
   5   3   6 345.974 107.903   2
   5   3   6 291.197 50.4617   3
   5   3   7 0.55343 33.2837   3
  -5  -3  -7-41.4025 56.9747   7
  -5  -3  -7 141.593 73.6363   6
   5   3   7-38.4995 79.3976   2
   5   3   8 526.751 82.3454   3
  -5  -3  -8 539.219 121.171   4
   5   3   8 341.640 109.922   2
  -5  -3  -8 496.618 83.5563   3
   5   3   9 449.808 90.4741   3
  -5  -3  -9 393.408 110.717   4
   5   3   9 463.121 122.407   2
  -5  -3  -9 604.571 98.3349   3
   5   3  10 243.946 72.2321   3
  -5  -3 -10 330.948 111.572  10
  -5  -3 -10 326.424 109.411   4
   5   3  10 8.02636 64.0495   2
  -5  -3 -10 195.674 72.2670   3
   5   3  11 243.507 70.7783   3
  -5  -3 -11 380.675 126.325  10
  -5  -3 -11 355.408 125.360   4
   5   3  11 230.422 91.0099   2
  -5  -3 -11 303.535 87.4121   3
   5   3  12 791.731 138.265   3
  -5  -3 -12 617.920 137.950  10
  -5  -3 -12 737.428 165.615   4
   5   3  12 460.474 121.842   2
  -5  -3 -12 902.108 146.213   3
  -5  -3 -13 540.155 143.670  10
  -5  -3 -13 655.389 160.360   4
   5   3  13 433.103 115.072   2
  -5  -3 -13 578.997 124.774   3
  -5  -3 -14 23.6009 68.7683  10
  -5  -3 -14 50.3222 100.986   4
   5   3  14-30.8617 58.0342   2
  -5  -3 -15 303.202 140.651  10
  -5  -3 -15 534.661 155.180   4
   5   3  15 406.516 114.057   2
   5   3  15 420.951 136.442   1
  -5  -3 -16 678.258 180.207  10
  -5  -3 -16 804.964 192.948   4
   5   3  16 756.724 180.745   1
  -5  -3 -17-91.5664 95.4081  10
   5   3  17 172.294 119.939   1
  -5  -3 -18 111.312 136.856  10
   5   3  18-138.306 113.323   1
   5   4 -14-32.6817 81.7981  11
   5   4 -13 171.958 116.082  11
   5   4 -13 534.024 137.810   8
   5   4 -12 284.808 117.609  11
   5   4 -12 590.299 148.837   8
   5   4 -11 230.826 81.8839  11
   5   4 -11 388.490 119.220   2
   5   4 -11 506.488 124.401   8
  -5  -4  11 658.595 201.532   7
   5   4 -10-114.902 76.0729  11
  -5  -4  10-55.6510 71.6711   1
   5   4 -10 63.9186 74.8667   2
   5   4 -10-55.7202 48.3517   8
   5   4  -9 63.8247 54.4039  11
  -5  -4   9-3.17048 56.1945   1
   5   4  -9-58.4266 58.5007   2
   5   4  -9 78.5954 41.0222   8
  -5  -4   9 48.9256 109.016   7
  -5  -4   8-16.2687 50.3649   5
   5   4  -8-81.9320 69.7167  11
  -5  -4   8-99.4255 54.3262   1
   5   4  -8 48.9292 85.3157   2
   5   4  -8 3.62943 50.0116   8
   5   4  -8-16.7372 50.0336   3
  -5  -4   8 28.3223 102.197   7
   5   4  -7 84.1474 60.0275  11
  -5  -4   7-56.1522 51.7668   5
  -5  -4   7 61.5574 49.4504   1
   5   4  -7 52.2517 78.7274   2
   5   4  -7-25.0699 41.3095   8
   5   4  -7-22.2654 35.5455   3
  -5  -4   7 78.6579 95.4989   7
   5   4  -6 144.680 72.4572  11
  -5  -4   6 88.8518 66.7378   5
   5   4  -6 181.399 100.023   2
  -5  -4   6 101.784 47.1587   1
   5   4  -6 196.879 65.7203   8
  -5  -4   6 100.674 68.9997   7
   5   4  -5 1829.42 198.736   6
   5   4  -5 2038.72 200.965  11
  -5  -4   5 1964.35 207.440   5
  -5  -4   5 1687.69 128.343   1
   5   4  -5 1974.39 243.374   2
   5   4  -5 1903.86 192.929   8
  -5  -4   5 2152.99 268.243   7
   5   4  -4 5666.58 339.524   6
   5   4  -4 5410.42 310.906  11
   5   4  -4 6133.62 426.624   2
  -5  -4   4 5397.97 325.610   5
  -5  -4   4 4540.27 175.427   1
   5   4  -4 5418.03 241.155   3
  -5  -4   4 5959.80 436.302   7
   5   4  -3 1875.86 184.813   6
   5   4  -3 1922.11 180.130  11
   5   4  -3 2168.65 258.262   2
   5   4  -3 1991.69 132.605   4
  -5  -4   3 1081.14 61.4181   1
   5   4  -3 1664.87 118.637   3
  -5  -4   3 1870.19 244.156   7
   5   4  -2 134.530 71.4436   6
   5   4  -2 214.665 64.0413  11
   5   4  -2 185.107 45.2469   4
   5   4  -2 332.847 124.572   2
  -5  -4   2 126.489 55.9996   8
   5   4  -2 109.695 28.7002   3
  -5  -4   2 267.826 126.176   7
   5   4  -1 6737.96 350.325   6
   5   4  -1 6742.27 435.714   2
   5   4  -1 7215.11 253.223   4
  -5  -4   1 6967.20 340.589   8
  -5  -4   1 7416.40 455.019   7
   5   4   0 2276.32 251.280   2
  -5  -4   0 1918.54 177.415   8
  -5  -4   0 2193.20 250.295   7
  -5  -4  -1-2.99298 28.2618  11
   5   4   1 4.54339 60.6296   2
  -5  -4  -1 50.0121 52.0603   8
  -5  -4  -1-36.7209 80.2231   7
  -5  -4  -2 428.121 76.7646  11
   5   4   2 548.615 136.639   2
  -5  -4  -2 347.114 80.3814   8
  -5  -4  -2 385.488 102.925   7
  -5  -4  -3 188.467 93.1534   7
  -5  -4  -3 144.767 50.5911  11
   5   4   3 248.681 112.898   2
  -5  -4  -3 100.340 65.9141   8
  -5  -4  -4 194.522 82.1794   7
  -5  -4  -4 220.393 59.3541  11
   5   4   4 124.865 77.2771   2
  -5  -4  -4 196.169 73.5872   8
  -5  -4  -5 274.323 109.162   7
  -5  -4  -5 169.322 72.9926   6
  -5  -4  -5 236.147 64.3746  11
   5   4   5 280.111 112.766   2
   5   4   5 131.250 26.1975   1
   5   4   5 230.330 31.9897   1
  -5  -4  -6 411.042 119.757   7
  -5  -4  -6 416.991 100.556   6
   5   4   6 391.871 126.782   2
   5   4   6 446.417 65.3730   1
  -5  -4  -7 1303.09 199.390   7
  -5  -4  -7 1105.83 165.658   6
   5   4   7 914.258 175.466   2
   5   4   7 946.341 103.861   1
  -5  -4  -8 1524.86 204.533   6
  -5  -4  -8 1181.23 165.486   4
  -5  -4  -8 1124.69 101.316   3
   5   4   8 896.483 167.284   2
   5   4   8 1215.23 135.272   1
  -5  -4  -9-67.9111 74.6474   4
   5   4   9 56.3241 73.6628   2
   5   4   9 38.9715 48.9807   1
  -5  -4  -9 102.977 44.7162   3
  -5  -4 -10 791.014 155.123   4
   5   4  10 771.035 157.691   2
   5   4  10 884.780 132.737   1
  -5  -4 -10 785.512 108.525   3
  -5  -4 -11 233.220 96.1782  10
  -5  -4 -11 268.586 106.424   4
   5   4  11 341.719 107.037   2
   5   4  11 328.914 96.7522   1
  -5  -4 -11 189.295 67.1307   3
  -5  -4 -12 567.016 141.451  10
  -5  -4 -12 609.883 149.246   4
   5   4  12 555.154 138.598   2
   5   4  12 528.849 116.338   1
  -5  -4 -12 568.907 112.864   9
  -5  -4 -12 450.731 96.4511   3
  -5  -4 -13 1103.70 198.789  10
  -5  -4 -13 1019.58 191.992   4
   5   4  13 693.343 137.302   2
   5   4  13 813.124 149.557   1
  -5  -4 -14 24.5781 72.4575  10
  -5  -4 -14 180.686 112.662   4
   5   4  14 274.002 105.406   2
   5   4  14 26.3882 52.6761   1
  -5  -4 -15 790.795 177.590  10
  -5  -4 -15 582.534 153.928   4
   5   4  15 547.748 131.458   2
   5   4  15 434.292 125.245   1
  -5  -4 -16-40.0588 83.9621  10
  -5  -4 -16 158.644 99.3029   4
   5   4  16 7.55912 67.9471   2
   5   4  16 6.01234 70.0339   1
  -5  -4 -17 19.8638 107.218  10
   5   4  17 327.953 141.806   1
  -5  -4 -18 56.4425 79.5700  10
   5   4  18 34.6973 76.7196   1
   5   5 -13 117.863 108.147  11
   5   5 -12 141.318 101.701  11
   5   5 -11 498.648 139.425  11
   5   5 -10-13.6480 61.4752  11
   5   5 -10 79.9029 74.0094   2
   5   5 -10 34.3393 39.5388   8
  -5  -5  10-121.853 118.645   7
   5   5  -9 1078.85 190.489  11
   5   5  -9 996.137 171.110   2
   5   5  -9 1111.41 159.962   8
  -5  -5   9 1079.55 221.969   7
   5   5  -8 104.318 81.1539  11
   5   5  -8 160.023 78.7092   2
   5   5  -8-27.4396 40.3515   8
  -5  -5   8-60.4085 86.0700   7
  -5  -5   7 2189.78 177.376   1
   5   5  -7 2116.48 238.585  11
   5   5  -7 2208.59 261.397   2
   5   5  -7 2520.84 223.777   8
  -5  -5   7 2585.14 315.103   7
   5   5  -6 58.6334 37.8581   6
   5   5  -6 165.781 83.3520  11
  -5  -5   6 38.5322 43.6557   5
  -5  -5   6 116.398 45.4647   1
   5   5  -6 64.7114 75.5117   2
   5   5  -6-17.1438 39.3474   8
  -5  -5   6 2.80395 95.8787   7
   5   5  -5 883.223 130.152   6
   5   5  -5 744.096 137.225  11
  -5  -5   5 989.160 141.857   5
   5   5  -5 740.367 54.6234   4
  -5  -5   5 630.757 73.8500   1
   5   5  -5 1136.46 191.196   2
   5   5  -5 581.342 90.4364   3
  -5  -5   5 1020.42 194.120   7
  -5  -5   4 73.0458 19.1596   1
   5   5  -4 51.7265 41.5821   6
   5   5  -4 66.0775 66.2452  11
  -5  -5   4 11.3024 50.1287   5
   5   5  -4 52.4164 98.0187   2
   5   5  -4 51.0936 28.4702   3
   5   5  -3 271.195 72.2137   6
   5   5  -3 523.197 118.353  11
  -5  -5   3 342.921 79.4732   5
   5   5  -3 262.436 93.9463   2
   5   5  -3 223.559 44.2957   3
  -5  -5   3 123.210 98.0142   7
   5   5  -2 16.5832 33.0569   6
   5   5  -2 47.8031 61.9155  11
   5   5  -2 11.0800 71.1342   2
   5   5  -2-1.30570 7.86170   3
  -5  -5   2-46.8784 89.2766   7
   5   5  -1 2242.08 263.607   2
  -5  -5   1 2144.45 177.550   8
  -5  -5   1 2555.81 272.657   7
   5   5   0 2980.25 298.765   2
  -5  -5   0 3085.70 209.627   8
  -5  -5   0 3052.83 293.057   7
   5   5   1-33.2967 66.9394   2
  -5  -5  -1 59.3913 48.7668   8
  -5  -5  -1 170.749 99.5625   7
   5   5   2 1563.20 224.424   2
  -5  -5  -2 1421.02 148.459   8
  -5  -5  -2 1588.35 216.572   7
   5   5   3 3268.90 310.195   2
  -5  -5  -3 3143.02 226.800   8
  -5  -5  -3 3357.46 305.603   7
   5   5   4 3407.00 314.442   2
  -5  -5  -4 3201.33 231.658   8
  -5  -5  -4 3005.00 282.068   7
  -5  -5  -5 23.8915 60.2987   7
  -5  -5  -5-24.6626 46.8300   6
  -5  -5  -5 31.6951 51.5373  11
   5   5   5-56.2091 75.3953   2
  -5  -5  -6 74.5158 63.2635   7
  -5  -5  -6-23.9972 61.4461   6
  -5  -5  -6 212.983 73.0152  11
   5   5   6-66.1063 95.8719   2
  -5  -5  -7 131.894 86.9359   7
  -5  -5  -7 147.513 72.4191   6
   5   5   7 120.033 38.6845   1
  -5  -5  -7 80.0957 53.2843  11
  -5  -5  -7 130.544 56.4946   4
   5   5   7 118.002 66.2029   2
  -5  -5  -8 155.601 85.7834   7
  -5  -5  -8 106.913 74.5517   6
  -5  -5  -8 9.92577 57.3509  11
  -5  -5  -8 155.799 84.5610   4
  -5  -5  -8 36.6339 21.0806   3
   5   5   8 61.3284 85.7895   2
   5   5   8 30.5152 26.8355   1
   5   5   9 1283.58 131.748   1
  -5  -5  -9 1339.28 178.343   4
  -5  -5  -9 974.825 92.3520   3
   5   5   9 1545.78 220.512   2
   5   5  10 2723.10 215.376   1
   5   5  10 2695.65 287.678   2
  -5  -5 -10 2768.34 264.585   4
  -5  -5 -10 2303.03 160.537   3
  -5  -5 -10 2969.14 258.411   9
   5   5  11 4150.09 285.544   1
   5   5  11 3659.99 326.005   2
  -5  -5 -11 3966.00 333.245  10
  -5  -5 -11 4216.44 339.501   4
  -5  -5 -11 4170.27 300.748   9
  -5  -5 -12 81.8264 72.9474  10
  -5  -5 -12-50.5346 77.1246   4
  -5  -5 -12 148.164 70.1847   9
   5   5  12-54.3881 76.4465   2
   5   5  12 38.6213 54.7416   1
  -5  -5 -13 1159.51 188.754  10
  -5  -5 -13 1180.21 207.294   4
   5   5  13 949.555 168.885   2
   5   5  13 981.985 162.123   1
  -5  -5 -14-31.9503 63.4607  10
  -5  -5 -14 70.0499 88.4159   4
   5   5  14 88.7682 91.2143   2
   5   5  14 131.635 82.1709   1
  -5  -5 -15 344.316 102.592  10
  -5  -5 -15 127.274 114.654   4
   5   5  15 83.2956 54.9492   2
   5   5  15 151.495 82.6416   1
  -5  -5 -16 69.5332 85.6334  10
  -5  -5 -16 120.485 89.3459   4
   5   5  16 53.8940 58.4297   2
   5   5  16 50.2029 79.4746   1
  -5  -5 -17 166.088 92.9027  10
  -5  -5 -17 68.9755 93.5521   4
   5   5  17 213.738 115.158   1
  -5  -5 -18 167.528 167.382  10
   5   5  18 262.182 129.813   1
   5   6 -12-18.6402 74.2500  11
   5   6 -11-19.8537 97.1854  11
   5   6 -10 62.6144 76.6189  11
   5   6 -10 153.393 72.8281   2
  -5  -6  10-114.541 124.313   7
   5   6  -9 627.778 166.147  11
   5   6  -9 439.934 128.496   2
  -5  -6   9 678.750 178.096   7
   5   6  -8 3992.92 361.891  11
   5   6  -8 4323.18 370.861   2
  -5  -6   8 3740.52 407.587   7
   5   6  -7 31.3420 65.8436  11
   5   6  -7 12.7623 59.3011   2
  -5  -6   7 149.400 89.6567   7
   5   6  -6 1771.28 170.959   6
   5   6  -6 1559.33 218.300  11
   5   6  -6 1505.03 223.968   2
  -5  -6   6 1594.09 253.485   7
   5   6  -5 1472.27 150.845   6
   5   6  -5 1223.27 185.286  11
   5   6  -5 1230.81 200.194   2
  -5  -6   5 1154.35 212.861   7
   5   6  -4 752.641 102.163   6
   5   6  -4 828.663 154.637  11
   5   6  -4 626.313 143.318   2
  -5  -6   4 630.930 149.875   7
   5   6  -3 9.53226 55.8854  11
  -5  -6   3 49.1228 50.8273   5
   5   6  -3 59.7407 76.3698   2
   5   6  -3 29.2727 17.4754   3
  -5  -6   3 31.7402 63.9158   7
   5   6  -2-21.6506 49.1114  11
  -5  -6   2 107.714 63.8208   5
   5   6  -2 19.6749 70.9922   2
  -5  -6   2 84.1341 88.6545   7
   5   6  -1 625.692 130.353  11
   5   6  -1 878.115 176.075   2
  -5  -6   1 907.886 186.886   7
  -5  -6   0 567.278 123.970  11
   5   6   0 812.556 165.097   2
  -5  -6   0 808.162 158.409   7
  -5  -6  -1 111.582 52.7902  11
   5   6   1 554.958 140.695   2
  -5  -6  -1 441.382 76.7109   8
  -5  -6  -1 504.008 125.153   7
  -5  -6  -2 1211.81 156.488  11
   5   6   2 1403.36 217.657   2
  -5  -6  -2 1089.17 114.680   8
  -5  -6  -2 1236.35 200.936   7
  -5  -6  -3 2087.20 212.503  11
   5   6   3 2193.56 260.075   2
  -5  -6  -3 2230.74 169.151   8
  -5  -6  -3 2365.62 270.500   7
  -5  -6  -4 4649.89 313.750  11
   5   6   4 4338.46 367.149   2
  -5  -6  -4 4654.97 253.292   8
  -5  -6  -4 4913.16 364.261   7
  -5  -6  -5 6359.41 351.912   6
  -5  -6  -5 6747.02 384.008  11
   5   6   5 6164.54 447.681   2
  -5  -6  -5 6339.64 307.084   8
  -5  -6  -5 7708.18 463.669   7
  -5  -6  -6 8605.71 417.360   6
  -5  -6  -6 8470.94 439.777  11
   5   6   6 8134.53 497.761   2
  -5  -6  -6 8471.62 487.079   7
  -5  -6  -7 484.988 120.139   7
  -5  -6  -7 249.109 97.9046   6
  -5  -6  -7 472.944 109.940  11
  -5  -6  -7 468.547 95.4786   4
   5   6   7 300.139 111.484   2
  -5  -6  -8 683.632 150.875   7
  -5  -6  -8 622.596 124.025   6
  -5  -6  -8 707.962 138.255  11
  -5  -6  -8 554.412 108.065   4
   5   6   8 815.575 178.169   2
   5   6   8 446.131 58.0623   1
  -5  -6  -9 2481.70 258.856   6
   5   6   9 2300.95 157.929   1
  -5  -6  -9 2693.42 269.660  11
   5   6   9 2528.72 291.170   2
  -5  -6  -9 2612.29 233.654   4
  -5  -6  -9 2732.59 269.711   9
  -5  -6  -9 2795.27 303.436   7
   5   6  10 486.978 84.9757   1
  -5  -6 -10 359.867 102.166   4
  -5  -6 -10 374.668 110.105   9
   5   6  10 191.411 100.485   2
   5   6  11 220.272 63.2683   1
  -5  -6 -11 342.105 113.224   4
  -5  -6 -11 397.218 113.532   9
   5   6  11 188.488 82.0224   2
   5   6  12 104.706 66.6832   1
  -5  -6 -12 11.3294 57.1401  10
  -5  -6 -12 92.8008 91.7196   4
   5   6  12 73.2630 61.1025   2
   5   6  13 32.4363 50.2295   1
  -5  -6 -13-55.0445 70.2653  10
  -5  -6 -13 6.76200 87.6533   4
  -5  -6 -14 328.934 111.256  10
  -5  -6 -14 218.534 107.890   4
   5   6  14 298.229 105.939   2
   5   6  14 335.074 96.4224   1
  -5  -6 -15 423.387 118.442  10
  -5  -6 -15 566.690 162.859   4
   5   6  15 441.719 136.569   2
   5   6  15 410.589 120.637   1
  -5  -6 -16-24.2919 83.6797  10
   5   6  16-6.15304 57.9141   2
   5   6  16-9.31929 53.3211   1
  -5  -6 -17 115.352 102.648   4
   5   6  17-27.1264 69.0264   1
   5   6  18 54.5695 87.7981   1
   5   7 -10 142.389 77.6595  11
   5   7  -9 126.399 95.3747  11
   5   7  -9-193.132 92.0086   2
  -5  -7   9-168.222 120.045   7
   5   7  -8 86.2296 75.4604  11
   5   7  -8-92.3203 76.1584   2
  -5  -7   8 43.9915 72.6832   7
   5   7  -7 42.6657 63.2421  11
   5   7  -7-60.1014 77.7355   2
  -5  -7   7 175.257 104.766   7
   5   7  -6 123.108 77.3996  11
   5   7  -6 97.0958 78.8079   2
  -5  -7   6 114.419 90.6259   7
   5   7  -5 212.715 94.6442  11
   5   7  -5 49.7762 69.4954   2
  -5  -7   5 270.006 112.966   7
   5   7  -4 397.760 128.553  11
   5   7  -4 544.851 147.509   2
  -5  -7   4 497.469 156.443   7
   5   7  -3 108.301 73.4418  11
   5   7  -3 127.289 86.1163   2
  -5  -7   3 71.2516 101.082   7
   5   7  -2 344.824 99.6966  11
   5   7  -2 369.771 117.202   2
  -5  -7   2 442.194 139.653   7
   5   7  -1 833.209 160.891  11
   5   7  -1 468.219 139.025   2
  -5  -7   1 997.455 188.587   7
   5   7   0 2457.30 290.890   2
  -5  -7   0 2343.64 266.239   7
  -5  -7  -1 71.1917 68.8614  11
   5   7   1 231.150 115.418   2
  -5  -7  -1 222.571 110.232   7
  -5  -7  -2 2901.45 278.866  11
   5   7   2 2974.44 322.727   2
  -5  -7  -2 2618.03 277.799   7
  -5  -7  -3 721.783 134.522  11
   5   7   3 698.885 186.327   2
  -5  -7  -3 604.612 72.0768   8
  -5  -7  -3 952.779 168.129   7
  -5  -7  -4 165.850 62.9073  11
   5   7   4 249.191 121.792   2
  -5  -7  -4 207.960 55.6200   8
  -5  -7  -4 272.530 106.509   7
  -5  -7  -5 1581.53 220.814   7
  -5  -7  -5 1533.69 200.530  11
  -5  -7  -5 1503.14 133.068   8
   5   7   5 1388.04 214.418   2
  -5  -7  -6 258.409 105.031   7
  -5  -7  -6 162.556 64.7261   6
  -5  -7  -6 155.632 78.8711  11
   5   7   6 71.5999 67.3847   2
  -5  -7  -6 246.270 66.5229   8
  -5  -7  -7 276.441 121.541   7
  -5  -7  -7 241.771 51.0148   6
  -5  -7  -7 377.963 77.0714   4
   5   7   7 371.590 109.395   2
  -5  -7  -8 333.777 124.550   7
  -5  -7  -8 353.718 95.4392   6
   5   7   8 201.338 34.3364   1
  -5  -7  -8 396.978 92.2905   4
   5   7   8 420.836 130.015   2
  -5  -7  -9 57.1148 73.1326   7
   5   7   9 22.4913 24.2018   1
  -5  -7  -9 26.2413 76.0189   6
  -5  -7  -9 97.8962 69.3126   4
   5   7   9 106.319 87.4107   2
  -5  -7 -10 1272.86 215.141   7
  -5  -7 -10 1137.88 165.642   4
   5   7  10 854.544 170.480   2
   5   7  10 986.057 111.346   1
  -5  -7 -11 418.171 119.881   4
   5   7  11 304.802 67.2501   1
   5   7  11 389.984 126.941   2
  -5  -7 -12 0.13410 76.6800   4
   5   7  12 66.5541 31.5270   1
   5   7  12 53.5335 81.5908   2
  -5  -7 -13-32.2168 64.3517  10
   5   7  13 4.23679 49.2929   1
  -5  -7 -13 9.27077 70.8010   4
   5   7  13 88.8127 81.2424   2
   5   7  14-48.8906 61.7056   1
  -5  -7 -14-167.369 90.7483  10
  -5  -7 -14 74.7665 98.3954   4
   5   7  14-120.725 80.2359   2
  -5  -7 -15 114.089 70.8716  10
  -5  -7 -15 296.247 131.159   4
   5   7  15 314.495 110.271   2
  -5  -7 -16 145.821 100.202   4
   5   7  16 60.5757 62.8406   2
  -5  -7 -17 126.265 115.943   4
   5   8  -8 111.823 101.999  11
   5   8  -8 130.563 76.5427   2
  -5  -8   8 224.334 121.331   7
   5   8  -7 103.517 85.7486  11
   5   8  -7 114.613 99.3706   2
  -5  -8   7-49.8571 88.2741   7
   5   8  -6-41.6444 66.2021  11
   5   8  -6-53.7962 90.1199   2
  -5  -8   6-41.8481 82.7080   7
   5   8  -5 81.3168 70.4638  11
   5   8  -5 131.634 112.952   2
  -5  -8   5 45.1291 84.7987   7
   5   8  -4 226.227 91.7962  11
   5   8  -4 155.975 97.8387   2
  -5  -8   4 188.100 120.431   7
   5   8  -3 201.923 103.334  11
   5   8  -3 192.006 110.622   2
  -5  -8   3 56.7164 80.1296   7
   5   8  -2 1086.01 198.889  11
   5   8  -2 1047.91 196.831   2
  -5  -8   2 906.568 197.600   7
   5   8  -1 5891.62 465.567   2
  -5  -8   1 6428.32 455.621   7
   5   8   0 77.0093 99.0003   2
  -5  -8   0-42.9985 66.4874   7
   5   8   1 97.9570 105.478   2
  -5  -8  -1 35.1863 69.5786   7
   5   8   2 395.360 136.383   2
  -5  -8  -2 184.002 94.4710   7
   5   8   3 2002.96 272.599   2
  -5  -8  -3 1588.57 214.732   7
   5   8   4 1617.06 248.241   2
  -5  -8  -4 1560.41 222.315   7
   5   8   5 283.005 130.038   2
  -5  -8  -5 84.8086 68.0388   7
  -5  -8  -6 98.5884 78.7895   7
   5   8   6 136.383 98.2644   2
  -5  -8  -7 390.325 112.953   7
   5   8   7 348.558 116.083   2
  -5  -8  -8-11.8812 71.3922   7
  -5  -8  -8 105.164 58.5330   4
   5   8   8 72.2652 78.1728   2
  -5  -8  -9 324.373 124.166   7
  -5  -8  -9 241.537 69.9334   4
   5   8   9 231.071 102.932   2
  -5  -8 -10 1783.37 252.657   7
   5   8  10 2436.40 303.486   2
  -5  -8 -10 1976.45 205.166   4
  -5  -8 -11 1332.92 226.206   7
  -5  -8 -11 1206.77 177.549   4
   5   8  11 1283.46 232.125   2
  -5  -8 -12 76.6959 110.234   7
  -5  -8 -12 58.6457 69.3052   4
   5   8  12 236.735 106.856   2
  -5  -8 -13-46.8163 56.4126  10
  -5  -8 -13-54.0704 70.2663   4
   5   8  13-179.898 90.9837   2
   5   8  14 1568.16 245.955   2
   5   8  15 508.696 153.207   2
   5   8  16 146.075 108.663   2
   5   9  -7 30.4225 65.1619   2
  -5  -9   6 282.691 117.167   7
   5   9  -6 255.802 139.530   2
   5   9  -5 850.115 194.669  11
   5   9  -5 1010.77 209.013   2
  -5  -9   5 1001.98 214.763   7
   5   9  -4 196.858 118.435  11
   5   9  -4 141.320 92.4663   2
  -5  -9   4 237.274 112.839   7
   5   9  -3 0.38532 62.0147  11
   5   9  -3 208.858 127.313   2
  -5  -9   3 30.7114 78.3440   7
   5   9  -2 277.843 131.638  11
   5   9  -2 257.837 127.253   2
  -5  -9   2 92.8497 68.3311   7
   5   9  -1 426.410 161.604   2
  -5  -9   1 379.164 122.740   7
   5   9   0 81.7193 72.1388   2
  -5  -9   0-79.6815 98.1790   7
   5   9   1 474.728 148.803   2
  -5  -9  -1 302.078 117.243   7
   5   9   2 578.512 176.065   2
  -5  -9  -2 430.488 128.594   7
   5   9   3 1623.20 253.669   2
  -5  -9  -3 1636.60 232.302   7
   5   9   4 661.377 166.309   2
  -5  -9  -4 450.038 118.532   7
   5   9   5 107.679 101.527   2
  -5  -9  -5 12.1359 69.5033   7
   5   9   6 1735.27 268.927   2
  -5  -9  -6 1918.78 246.894   7
   5   9   7 212.823 109.201   2
  -5  -9  -7 65.2063 67.4386   7
  -5  -9  -8 412.730 122.441   7
   5   9   8 406.415 136.880   2
  -5  -9  -9-9.73652 93.8136   7
   5   9   9 133.160 112.381   2
  -5  -9 -10 978.967 192.774   7
   5   9  10 766.251 197.377   2
  -5  -9 -11 782.337 176.968   7
   5   9  11 723.931 193.376   2
  -5  -9 -12 806.510 183.022   7
   5   9  12 580.021 151.265   2
  -5  -9 -13 1253.84 242.755   7
   5   9  13 836.532 195.568   2
   5   9  14 642.390 187.652   2
   5   9  15 544.380 164.892   2
  -5 -10   1 609.722 161.210   7
  -5 -10   0-18.0984 69.4638   7
  -5 -10  -1-93.6514 63.8249   7
  -5 -10  -2-129.772 110.782   7
  -5 -10  -3 298.390 105.302   7
  -5 -10  -4 250.028 105.984   7
  -5 -10  -5 514.482 137.140   7
  -5 -10  -6 27.5985 97.9041   7
  -5 -10  -7 4692.01 393.836   7
  -5 -10  -8 383.458 151.453   7
  -5 -10  -9 4528.77 386.991   7
  -5 -10 -10 110.418 77.7345   7
  -5 -10 -11-40.3089 80.2804   7
  -5 -10 -12-82.4776 90.7611   7
  -5 -10 -13 15.5671 95.5678   7
  -6   6   3 176.107 89.6193  10
  -6   6   2 1133.45 205.488  10
  -6   6   1 1359.44 233.992  10
  -6   6   0 51.7352 112.660  10
  -6   6  -1 398.413 156.781  10
  -6   6  -2 491.677 165.754  10
  -6   5   6 632.098 155.697  10
   6  -5  -6 938.783 212.785   3
  -6   5   5 530.285 130.994  10
   6  -5  -5 416.696 145.429   3
  -6   5   4 81.4294 76.6082  10
   6  -5  -4 201.923 113.606   3
   6  -5  -3 271.627 135.715   6
  -6   5   3-103.242 61.1530  10
   6  -5  -3 91.9322 102.014   3
   6  -5  -2 50.1616 78.6462   6
  -6   5   2 78.1900 84.2665  10
   6  -5  -2 134.035 101.836   3
   6  -5  -1 160.181 107.296   6
  -6   5   1 193.344 95.2403  10
   6  -5  -1 307.992 138.637   3
  -6   5   0-202.903 122.999  10
   6  -5   0-78.6687 89.7458   3
  -6   5  -1-120.418 86.0779  10
   6  -5   1 168.743 104.525   3
  -6   5  -2 211.827 132.664  10
   6  -5   2-348.223 142.422   3
  -6   5  -3 254.281 141.524  10
   6  -5   3 376.038 151.010   3
  -6   5  -4 100.655 100.805  10
  -6   4  10-64.5992 76.5640   1
  -6   4  10 61.2171 80.2797   7
  -6   4   9 197.529 124.746   1
  -6   4   9 302.057 128.812   7
  -6   4   8 332.084 138.451   1
  -6   4   8 123.724 69.8513   7
  -6   4   7 831.865 199.748   1
  -6   4   7 1110.17 201.204   7
   6  -4  -6 711.867 183.923   6
  -6   4   6 709.843 165.795   7
   6  -4  -5 965.254 202.796   6
   6  -4  -5 619.850 165.207   3
  -6   4   5 581.597 130.490   7
   6  -4  -4 186.442 115.678   6
  -6   4   4-131.717 61.6062  10
   6  -4  -4 82.6269 84.9191   3
  -6   4   4 207.602 102.947   7
   6  -4  -3 605.185 178.889   6
  -6   4   3 531.459 138.427  10
   6  -4  -3 480.782 154.858   3
  -6   4   3 338.062 100.312   7
   6  -4  -2 1056.26 216.396   6
  -6   4   2 1190.06 203.547  10
   6  -4  -2 1094.14 203.319   3
  -6   4   2 1352.99 197.742   7
   6  -4  -1 756.959 189.307   6
  -6   4   1 686.048 155.752  10
   6  -4  -1 557.844 157.080   3
  -6   4   1 878.489 155.020   7
   6  -4   0 168.442 123.910   6
  -6   4   0 71.9757 78.1550  10
   6  -4   0-48.0185 65.1684   3
  -6   4   0 21.4838 64.5393   7
  -6   4  -1 55.2245 72.7177  10
   6  -4   1 11.3711 68.6973   3
  -6   4  -1 90.7758 64.6998   7
  -6   4  -2 869.856 192.337  10
   6  -4   2 628.750 166.412   3
  -6   4  -2 641.847 148.448   7
  -6   4  -3 92.5849 75.8590  10
   6  -4   3 221.035 106.807   3
  -6   4  -3 54.8155 58.6286   7
  -6   4  -4 501.105 158.161  10
   6  -4   4 315.788 113.231   3
  -6   4  -4 356.345 118.283   7
  -6   4  -5 857.245 199.269  10
   6  -4   5 940.074 206.051   3
  -6   4  -5 670.439 151.472   7
  -6   4  -6 519.737 145.999   7
  -6   4  -6 750.988 204.310  10
   6  -4   6 569.244 152.963   3
  -6   4  -7 188.114 109.117   7
   6  -4   7 359.352 129.812   3
  -6   3  11 943.088 209.741   1
  -6   3  11 465.333 155.861   7
  -6   3  10 604.099 167.294   1
  -6   3  10 803.978 190.630   7
  -6   3   9 387.570 123.582   1
  -6   3   9 336.333 139.264   7
   6  -3  -8 376.659 147.126   8
  -6   3   8 213.146 100.695   7
  -6   3   8 239.789 105.078   1
  -6   3   7 321.473 133.863   1
   6  -3  -7 383.732 152.933   8
  -6   3   7 277.229 110.287   7
   6  -3  -6 128.319 116.035   6
  -6   3   6 141.451 91.4648   1
  -6   3   6 186.351 96.5072   7
   6  -3  -5 79.5410 119.322   6
  -6   3   5 4.41945 66.1559   7
   6  -3  -4 481.764 142.854   6
   6  -3  -4 670.295 172.050   3
  -6   3   4 571.600 133.496   7
   6  -3  -3 684.666 186.884   6
   6  -3  -3 532.602 152.811   3
  -6   3   3 775.512 159.248   7
   6  -3  -2 611.363 139.540   6
   6  -3  -2 830.870 175.600   3
  -6   3   2 928.777 166.270   7
   6  -3  -1 707.373 177.297   6
  -6   3   1 727.211 163.818  10
   6  -3  -1 834.802 173.146   3
  -6   3   1 786.856 154.150   7
   6  -3   0 13.2233 77.0532   6
  -6   3   0-18.3140 84.2094  10
   6  -3   0-171.992 93.7770   3
  -6   3   0-2.52831 57.4180   7
  -6   3  -1 45.8270 78.2983  10
   6  -3   1 70.5004 55.9804   3
  -6   3  -1 79.0899 79.6379   7
  -6   3  -2 98.4082 85.6659  10
   6  -3   2 267.494 113.165   3
  -6   3  -2 20.0669 62.1496   7
  -6   3  -3 120.680 85.2479  10
   6  -3   3 57.3608 70.2003   3
  -6   3  -3 75.0540 87.5981   7
  -6   3  -4 36.6831 78.8991  10
   6  -3   4 79.6473 98.3393   3
  -6   3  -4-6.54538 58.5953   7
  -6   3  -5 66.0656 84.6110   7
  -6   3  -5 95.4242 79.7737  10
   6  -3   5 167.272 101.051   3
  -6   3  -6 69.8065 82.0189   7
  -6   3  -6-54.1412 103.180  10
   6  -3   6 196.746 111.536   3
  -6   3  -7-9.24630 74.1118   7
  -6   3  -7 69.5783 86.1675  10
   6  -3   7 107.686 98.4526   3
  -6   3  -8-10.1650 58.4921   7
  -6   3  -8 8.31834 89.0257  10
  -6   3  -9 74.5596 64.9108   7
   6  -3   9 12.4378 78.8765   3
  -6   3 -10-44.9581 67.8224   7
   6  -3  10 304.038 123.253   3
  -6   3 -11 26.1553 65.1968   7
  -6   2  13 98.6955 101.599   1
  -6   2  12 31.9208 75.8464   1
  -6   2  11 586.891 149.596   1
  -6   2  11 622.152 200.985   7
   6  -2 -10 398.301 158.047   8
  -6   2  10 335.269 134.596   7
  -6   2  10 547.688 149.317   1
  -6   2   9 894.311 187.788   1
   6  -2  -9 1189.85 241.373   8
  -6   2   9 947.330 199.440   7
  -6   2   8 63.2051 93.1845   1
   6  -2  -8 91.8066 91.6921   8
  -6   2   8 28.2902 87.5794   7
  -6   2   7 5946.67 433.212   1
   6  -2  -7 6456.36 513.527   8
  -6   2   7 5775.80 449.186   7
   6  -2  -6 824.227 202.265   6
  -6   2   6 647.686 146.262   1
  -6   2   6 637.417 157.485   7
   6  -2  -5 104.774 112.803   6
  -6   2   5 123.897 76.6252   1
  -6   2   5 128.487 80.5823   7
   6  -2  -4 158.017 110.843   6
  -6   2   4 114.182 79.9617   7
   6  -2  -3 350.948 145.243   6
   6  -2  -3 293.756 105.703   3
  -6   2   3 189.987 98.1731   7
   6  -2  -2 80.3764 84.8871   6
   6  -2  -2 95.0850 86.8294   3
  -6   2   2 223.998 107.967   7
   6  -2  -1 207.884 114.624   6
   6  -2  -1 152.165 74.1794   3
  -6   2   1 155.476 84.7596   7
   6  -2   0 1094.59 207.235   6
   6  -2   0 911.101 161.056   3
  -6   2   0 950.003 179.240   7
   6  -2   1 1549.42 238.025   6
   6  -2   1 1093.02 180.111   3
  -6   2  -1 1436.79 212.101   7
  -6   2  -2 1262.20 224.308  10
   6  -2   2 1348.55 192.791   3
  -6   2  -2 1048.08 185.909   7
  -6   2  -3-56.6713 75.8257  10
   6  -2   3-29.5645 49.4529   3
  -6   2  -3 81.9992 67.1944   7
  -6   2  -4 1050.94 201.295  10
   6  -2   4 831.531 165.129   3
  -6   2  -4 800.956 160.590   7
  -6   2  -5 1264.59 200.387   7
  -6   2  -5 1146.14 213.308  10
   6  -2   5 1469.52 216.283   3
  -6   2  -6 1889.01 246.598   7
  -6   2  -6 1678.27 268.483  10
   6  -2   6 2280.35 264.296   3
  -6   2  -7-138.810 87.1707   7
   6  -2   7 50.7715 77.8290   3
  -6   2  -8 39.0183 66.9906   7
  -6   2  -8-49.7444 91.5237  10
   6  -2   8 81.1753 58.0895   3
  -6   2  -9 457.606 160.752   7
  -6   2  -9 816.652 211.018  10
   6  -2   9 929.408 188.171   3
  -6   2 -10-206.215 106.065   7
   6  -2  10 13.4039 72.2514   3
  -6   2 -11 131.900 90.9509   7
   6  -2  11-6.54444 83.8026   3
   6  -2  12 613.071 173.101   3
  -6   1  13 1331.03 239.673   1
  -6   1  12 706.702 166.405   1
  -6   1  11 188.548 89.4650   1
   6  -1 -11 395.671 140.392   8
  -6   1  11 576.313 188.987   7
  -6   1  10-6.73173 87.0685   1
   6  -1 -10-157.860 111.758   8
  -6   1  10-87.4208 75.5084   7
   6  -1  -9 23.1077 82.0152   8
  -6   1   9 149.504 94.5314   1
  -6   1   9 289.965 143.565   7
  -6   1   8 49.1428 77.8371   1
   6  -1  -8 54.8976 91.8436   8
  -6   1   8-151.020 109.497   7
  -6   1   7 1448.15 209.600   1
   6  -1  -7 1213.43 216.383   8
  -6   1   7 1314.83 230.479   7
   6  -1  -6 1583.51 249.967   6
  -6   1   6 2084.80 240.749   1
   6  -1  -6 2113.02 282.947   8
  -6   1   6 1660.02 247.889   7
   6  -1  -5 765.069 174.402   6
  -6   1   5 546.564 147.010   7
  -6   1   5 369.346 108.654   1
   6  -1  -4 204.631 87.5648   1
   6  -1  -4 155.231 92.8295   6
  -6   1   4 17.3933 65.2650   7
   6  -1  -3 631.162 147.056   6
   6  -1  -3 729.515 139.016   1
   6  -1  -3 528.326 123.670   3
  -6   1   3 723.704 161.951   7
   6  -1  -2 1503.50 218.168   6
   6  -1  -2 1324.13 181.934   1
   6  -1  -2 1420.14 191.618   3
  -6   1   2 1187.31 192.274   7
   6  -1  -1 254.456 112.305   6
   6  -1  -1 177.352 63.1802   1
   6  -1  -1 261.715 87.2999   3
  -6   1   1 312.369 115.950   7
   6  -1   0 215.595 88.6461   6
   6  -1   0 121.446 68.2056   3
   6  -1   0 78.0135 66.3491   1
  -6   1   0 139.808 84.1486   7
   6  -1   1 159.710 111.675   6
   6  -1   1-48.1475 55.2816   3
   6  -1   1 69.6555 54.6103   1
  -6   1  -1 70.8942 77.4701   7
   6  -1   2 752.815 148.734   1
   6  -1   2 776.781 139.291   3
  -6   1  -2 631.522 142.684   7
   6  -1   3 1253.14 184.468   1
   6  -1   3 1159.35 163.624   3
  -6   1  -3 1246.19 197.134   7
  -6   1  -4 1669.64 228.259   7
  -6   1  -4 1878.89 259.444  10
   6  -1   4 1819.96 212.782   3
  -6   1  -5 2191.11 275.432  10
   6  -1   5 1906.96 219.382   3
  -6   1  -5 2066.85 258.940   7
  -6   1  -6-26.7386 63.4665   7
  -6   1  -6 110.819 67.0025  10
   6  -1   6 36.1733 64.8060   3
  -6   1  -7 361.987 126.157   7
  -6   1  -7 330.309 129.051  10
   6  -1   7 328.116 114.221   3
  -6   1  -8 59.8479 84.6368   7
  -6   1  -8 250.690 124.625  10
   6  -1   8 208.986 89.5266   3
  -6   1  -9 161.749 89.9098   7
  -6   1  -9 175.779 140.728  10
   6  -1   9 189.386 78.9005   3
  -6   1 -10-75.9619 93.1906   7
  -6   1 -10 47.1691 103.980  10
   6  -1  10 31.9603 67.4695   3
  -6   1 -11-23.3029 86.9589  10
   6  -1  11-25.0543 54.8198   3
   6  -1  12 188.985 99.1740   3
   6  -1  13-32.6427 72.6108   3
  -6   0  13 53.3968 65.6684   1
  -6   0  12 376.619 125.242   1
   6   0 -12 242.612 116.498   2
  -6   0  11 929.527 189.190   1
   6   0 -11 535.297 147.022   2
   6   0 -11 820.308 201.978   8
   6   0 -10 357.886 127.079   2
  -6   0  10 208.290 93.8831   1
   6   0 -10 324.418 144.242   8
  -6   0  10 348.012 143.772   7
  -6   0   9 360.149 122.654   1
   6   0  -9 306.166 123.050   8
  -6   0   9 261.339 139.017   7
   6   0  -8 151.554 108.459   8
  -6   0   8 69.7334 70.4209   1
  -6   0   8 160.774 85.4974   7
  -6   0   7 11.3856 53.9040   1
   6   0  -7-42.1856 94.0316   8
  -6   0   7-31.3037 71.1451   7
  -6   0   6 91.9266 54.7614   1
   6   0  -6 125.468 68.5064   1
   6   0  -6 21.7409 69.2657   8
  -6   0   6 217.273 128.666   7
   6   0  -5 249.342 110.206   6
  -6   0   5 142.412 78.1846   1
   6   0  -5 229.439 74.2232   1
  -6   0   5 396.995 140.857   7
  -6   0   4 639.975 122.935   1
   6   0  -4 477.483 142.786   6
   6   0  -4 526.336 113.200   1
  -6   0   4 539.043 147.111   7
   6   0  -3 265.316 105.496   6
  -6   0   3 445.404 137.879   7
   6   0  -3 333.417 95.6036   1
   6   0  -2 2956.06 301.482   6
   6   0  -2 2713.03 230.214   1
   6   0  -2 2614.54 235.458   3
  -6   0   2 2976.70 304.354   7
   6   0  -1 882.139 204.762   6
   6   0  -1 668.311 127.691   1
   6   0  -1 581.508 124.006   3
   6   0   0 14770.3 666.754   6
   6   0   0 14454.0 517.831   1
   6   0   0 14129.7 525.106   3
  -6   0   0 14540.3 657.445   7
   6   0   1 76.4463 64.1289   6
   6   0   1 97.4982 56.1823   3
   6   0   1-6.38834 55.8627   1
  -6   0  -1 2.37918 61.6510   7
   6   0   2 91.4759 51.7735   3
   6   0   2-28.4452 62.8461   1
  -6   0  -2-1.91697 62.8732   7
   6   0   3 390.934 93.2790   1
   6   0   3 491.914 102.571   3
  -6   0  -3 531.592 136.175   7
  -6   0  -4 88.5379 76.8511   7
   6   0   4 88.6531 62.8669   1
   6   0   4 39.3407 50.5891   3
   6   0   5 43.2188 41.5893   1
  -6   0  -5 278.908 113.819   7
   6   0   5 147.871 59.6628   3
  -6   0  -6 53.5295 95.3412   7
  -6   0  -6 5.85344 13.7773  11
  -6   0  -6 7.83390 67.7872  10
   6   0   6 59.6592 63.0335   1
   6   0   6-8.19391 45.1294   3
  -6   0  -7 133.881 82.2287   7
  -6   0  -7 64.4457 26.7599  11
  -6   0  -7 239.693 126.388  10
   6   0   7 79.3920 59.1182   3
  -6   0  -8 993.497 198.724   7
  -6   0  -8 512.347 80.7057  11
  -6   0  -8 1271.94 230.067  10
   6   0   8 945.672 151.064   3
  -6   0  -9 1169.01 217.769   7
  -6   0  -9 642.816 99.6953  11
  -6   0  -9 1391.54 238.338  10
   6   0   9 1048.30 174.222   3
  -6   0 -10 94.9559 59.3692  11
  -6   0 -10 197.354 149.115  10
   6   0  10 250.859 99.6280   3
  -6   0 -11-7.70399 76.4681  10
   6   0  11 52.6717 66.3368   3
   6   0  12-55.9993 70.8550   2
  -6   0 -12 216.554 93.2558  10
   6   0  12 182.140 82.0265   3
   6   0  13 256.069 116.370   2
   6   0  13 220.709 104.840   3
   6   0  14 146.727 95.9177   3
   6   0  15 88.5080 91.6244   3
   6   1 -12 217.545 108.189   2
   6   1 -12 252.763 126.602   8
  -6  -1  11 598.845 144.766   1
   6   1 -11 338.745 110.177   2
   6   1 -11 394.787 136.566   8
  -6  -1  10 63.3061 67.4280   1
   6   1 -10 114.234 90.8854   2
   6   1 -10 148.766 104.840   8
  -6  -1  10 282.832 126.377   7
   6   1  -9 196.772 106.645   2
  -6  -1   9 391.173 109.282   1
   6   1  -9 79.6018 81.8951   8
  -6  -1   9 170.904 105.512   7
   6   1  -8 1018.64 194.684   2
  -6  -1   8 1474.78 188.646   1
   6   1  -8 1362.11 225.594   8
  -6  -1   8 1065.82 214.587   7
   6   1  -7 1697.58 251.197   2
  -6  -1   7 1956.98 202.374   1
   6   1  -7 1850.09 250.913   8
  -6  -1   7 1781.33 268.441   7
   6   1  -6 1885.16 258.117   2
  -6  -1   6 1931.26 198.398   1
   6   1  -6 2076.89 256.521   8
  -6  -1   6 2167.09 284.015   7
   6   1  -6 1971.13 208.698   1
   6   1  -5 423.452 129.281   6
   6   1  -5 498.328 104.551   1
  -6  -1   5 497.596 102.494   1
  -6  -1   5 571.515 154.175   7
   6   1  -4 2031.39 247.092   6
  -6  -1   4 1893.12 182.861   1
  -6  -1   4 2173.71 290.390   7
   6   1  -4 2176.82 202.659   1
   6   1  -3 701.451 149.665   6
   6   1  -3 580.416 105.973   1
  -6  -1   3 879.663 190.011   7
   6   1  -2 969.803 186.412   6
   6   1  -2 859.979 128.226   3
  -6  -1   2 864.451 187.451   7
   6   1  -1 2599.43 274.272   6
   6   1  -1 2389.24 232.426   4
   6   1  -1 2297.71 197.944   3
  -6  -1   1 2162.95 257.609   7
   6   1   0-51.7364 72.0492   6
   6   1   0 67.5881 57.9019   4
   6   1   0 7.87109 39.8734   3
  -6  -1   0 28.7114 78.2806   7
   6   1   1 587.587 114.678   4
   6   1   1 500.166 88.6726   3
  -6  -1  -1 682.861 155.083   7
   6   1   2 173.259 93.6107   4
   6   1   2 269.126 68.7367   3
  -6  -1  -2 241.641 97.9794   7
   6   1   3 216.621 67.2615   1
   6   1   3 358.364 75.6341   3
  -6  -1  -3 269.897 103.258   7
  -6  -1  -4 1184.91 196.107   7
   6   1   4 1316.99 156.875   1
   6   1   4 1389.60 150.776   3
  -6  -1  -5 254.128 109.576   7
   6   1   5 324.410 77.5827   3
   6   1   5 297.175 80.8568   1
  -6  -1  -6 28.0368 82.6265   7
  -6  -1  -6 13.5822 10.8669  11
  -6  -1  -6 36.2427 15.6411  11
   6   1   6-3.26055 38.1896   1
   6   1   6 24.1537 38.7563   3
  -6  -1  -7 66.0525 74.6477   7
  -6  -1  -7 42.2444 66.0375  10
   6   1   7-18.4528 46.6699   1
   6   1   7 97.1014 58.1096   3
  -6  -1  -8 39.7756 63.9962   7
   6   1   8-24.3833 41.8729   1
  -6  -1  -8-11.6453 71.4140  10
   6   1   8-50.9116 39.8149   3
  -6  -1  -9 182.711 105.030   7
   6   1   9 49.0491 67.7316   2
  -6  -1  -9-4.86404 82.7456  10
   6   1   9-4.14523 50.4843   3
   6   1  10-92.8252 98.2008   2
  -6  -1 -10 134.439 98.2665  10
   6   1  10 10.7267 40.3598   3
   6   1  11 14.2959 63.6305   2
  -6  -1 -11 135.057 103.761  10
   6   1  11 15.4496 42.3843   3
   6   1  12 356.500 120.823   2
  -6  -1 -12 534.727 165.475  10
   6   1  12 244.301 101.653   3
   6   1  13 9.34990 59.9917   2
  -6  -1 -13 1.93024 82.9187  10
   6   1  13-16.3969 57.6814   3
   6   1  14 72.9516 61.6981   3
   6   1  14 80.0550 90.9907   2
   6   1  15-54.6495 60.8145   3
   6   1  16 107.748 84.5397   3
   6   2 -12 168.341 105.023   8
   6   2 -11 111.673 76.4001   2
   6   2 -11 204.819 126.030   8
   6   2 -10 107.436 82.8458   2
   6   2 -10 115.295 101.602   8
  -6  -2  10 150.620 117.936   7
  -6  -2   9 592.031 132.056   1
   6   2  -9 567.803 138.159   2
   6   2  -9 467.612 134.854   8
  -6  -2   9 293.692 140.861   7
  -6  -2   8 978.299 149.332   1
   6   2  -8 677.838 159.124   2
   6   2  -8 1049.66 190.167   8
  -6  -2   8 877.797 206.922   7
   6   2  -7 3981.89 375.276   2
  -6  -2   7 4261.86 284.051   1
   6   2  -7 4927.55 391.147   8
  -6  -2   7 4708.60 436.976   7
   6   2  -6 2.82926 51.9318   3
   6   2  -6 249.089 107.175   6
   6   2  -6-17.0422 88.0445   2
   6   2  -6-53.4084 62.2866   8
  -6  -2   6 47.0856 86.9795   7
  -6  -2   6 56.8358 51.9329   1
   6   2  -5 158.772 66.7386   3
   6   2  -5 213.950 97.5900   6
   6   2  -5 60.7324 32.2075  11
   6   2  -5 92.1810 100.823   2
  -6  -2   5 51.1011 53.5912   1
  -6  -2   5 10.8779 74.5597   7
   6   2  -4 339.531 90.9770   3
   6   2  -4 389.416 125.564   6
   6   2  -4 308.623 119.644   2
  -6  -2   4 175.085 58.9869   1
  -6  -2   4 217.115 95.4646   7
   6   2  -3 1711.10 224.799   6
   6   2  -3 1904.00 266.077   2
  -6  -2   3 2420.97 293.969   7
   6   2  -3 2129.44 171.942   1
   6   2  -2 1741.15 218.449   6
   6   2  -2 1814.94 189.103   4
   6   2  -2 1569.13 243.649   2
   6   2  -2 1783.37 159.041   3
  -6  -2   2 1992.76 261.496   7
   6   2  -2 1872.89 158.768   1
   6   2  -1 417.669 121.747   6
   6   2  -1 299.405 113.771   2
   6   2  -1 139.838 41.2273   4
   6   2  -1 119.863 48.7293   3
   6   2  -1 306.261 61.0149   1
  -6  -2   1 259.363 111.189   7
   6   2   0 82.3881 81.2556   6
   6   2   0-124.760 98.2780   2
   6   2   0 69.2028 63.6454   4
   6   2   0 70.8886 38.4496   3
   6   2   0-27.4967 39.3892   1
  -6  -2   0 161.633 112.899   7
   6   2   1 1035.44 104.001   1
   6   2   1 781.386 163.503   2
   6   2   1 1098.30 151.878   4
   6   2   1 848.069 97.9718   3
  -6  -2  -1 1184.90 193.276   7
   6   2   2 87.6920 88.0606   2
   6   2   2 78.9442 42.9447   1
   6   2   2 18.7805 42.1705   4
   6   2   2-21.6937 32.6819   3
  -6  -2  -2 136.455 116.917   7
   6   2   3 1610.95 139.986   1
   6   2   3 1639.83 247.072   2
   6   2   3 1642.44 197.550   4
   6   2   3 1758.82 141.763   3
  -6  -2  -3 1603.08 243.515   7
   6   2   4 4332.15 386.642   2
   6   2   4 4322.90 235.739   1
   6   2   4 4816.53 231.194   3
  -6  -2  -4 4662.85 379.123   7
   6   2   5 2044.38 270.438   2
   6   2   5 2316.89 164.979   3
  -6  -2  -5 2248.07 272.184   7
  -6  -2  -6 129.022 83.3593   7
  -6  -2  -6 100.449 30.4791  11
   6   2   6 202.140 121.169   2
   6   2   6 142.238 56.8815   3
  -6  -2  -7-26.3644 95.5777   7
   6   2   7-22.1541 43.0470   1
   6   2   7-29.6024 80.4025   2
   6   2   7 76.7866 52.4459   3
   6   2   8 3129.30 332.460   2
   6   2   8 4937.63 290.659   3
  -6  -2  -8 4846.73 418.133   7
  -6  -2  -9 1088.17 215.988   7
  -6  -2  -9 1144.10 202.870  10
   6   2   9 938.797 182.627   2
   6   2   9 1401.93 165.731   3
  -6  -2 -10-9.83992 73.5478  10
   6   2  10-45.3425 70.1151   2
   6   2  10-94.2222 47.9619   3
  -6  -2 -11 98.3014 110.144  10
   6   2  11 176.199 93.5564   2
   6   2  11 54.6166 52.5044   3
   6   2  12 61.9751 59.5682   3
  -6  -2 -12 45.7524 87.9784  10
   6   2  12 43.4737 61.0858   2
   6   2  13 110.138 74.1193   3
  -6  -2 -13 98.5854 97.8411  10
   6   2  13-125.858 103.059   2
   6   2  14-68.0655 62.0842   3
  -6  -2 -14-78.8471 93.3490  10
   6   2  14 82.8052 70.3625   2
   6   2  15 200.963 97.3987   3
   6   2  16 179.600 102.241   3
   6   3 -12 41.3136 85.5763   8
   6   3 -11 651.484 157.100   2
   6   3 -11 851.553 183.138   8
   6   3 -10 85.8757 78.7853   2
   6   3 -10 12.0869 64.7142   8
   6   3  -9 105.783 61.1926   2
   6   3  -9 187.501 95.2946   8
  -6  -3   9-4.87320 111.210   7
   6   3  -8-6.24539 69.4064   2
   6   3  -8 27.0176 65.5351   8
  -6  -3   8 8.67487 101.261   7
   6   3  -7 514.910 139.899   2
   6   3  -7 745.504 157.157   8
  -6  -3   7 432.111 139.792   7
   6   3  -6-60.8566 64.7789   6
   6   3  -6 10.1976 36.6766  11
   6   3  -6-3.07252 70.6356   2
  -6  -3   6 21.1322 36.9228   1
   6   3  -6-57.6391 56.0808   8
  -6  -3   6 57.1768 90.2126   7
   6   3  -5 27.0764 75.3404   6
   6   3  -5 13.0674 35.8667  11
  -6  -3   5 120.512 46.6594   1
   6   3  -5 153.874 78.5935   2
  -6  -3   5-28.1824 71.4531   7
   6   3  -4 446.949 121.869   6
   6   3  -4 122.498 47.5730  11
   6   3  -4 132.464 105.065   2
  -6  -3   4 379.454 135.904   7
   6   3  -3 237.888 95.9408   6
   6   3  -3 274.615 66.4912   4
   6   3  -3 108.558 102.412   2
  -6  -3   3 409.341 112.621   8
  -6  -3   3 276.958 115.357   7
   6   3  -3 366.044 67.3169   3
   6   3  -2 204.920 94.8343   6
   6   3  -2 5.36921 34.8798   4
   6   3  -2 122.002 81.1594   2
   6   3  -2 70.4614 36.6860   3
  -6  -3   2 28.1845 55.4471   8
  -6  -3   2 85.7501 82.5066   7
   6   3  -2 85.3098 39.3069   3
   6   3  -1 573.759 69.1769   3
   6   3  -1 682.924 147.658   6
   6   3  -1 537.936 93.6429   4
   6   3  -1 616.832 146.317   2
   6   3  -1 488.396 64.7454   3
  -6  -3   1 617.566 129.864   8
  -6  -3   1 584.969 151.046   7
   6   3   0 2422.44 296.084   2
   6   3   0 2258.40 202.203   4
   6   3   0 1853.65 110.990   3
   6   3   0 2185.03 125.757   3
  -6  -3   0 2433.75 243.217   8
  -6  -3   0 2455.85 289.690   7
   6   3   1 38.2651 83.4653   2
   6   3   1 145.773 68.3592   4
  -6  -3  -1-40.4538 76.7664   8
   6   3   1 45.2735 17.8157   3
   6   3   1 79.9480 22.4778   1
  -6  -3  -1 28.5291 72.8499   7
   6   3   2 103.907 101.206   2
  -6  -3  -2 277.654 106.661   8
   6   3   2 156.252 30.6758   1
   6   3   2 84.4169 22.7536   3
  -6  -3  -2 296.688 121.537   7
   6   3   3 389.101 52.6076   1
   6   3   3 405.881 135.748   2
  -6  -3  -3 371.685 114.457   8
   6   3   3 337.909 45.3185   3
  -6  -3  -3 383.925 142.676   7
  -6  -3  -4 2808.88 129.771  11
   6   3   4 3798.28 364.000   2
   6   3   4 4064.84 178.758   1
   6   3   4 4659.33 164.627   3
  -6  -3  -4 4740.53 352.806   8
  -6  -3  -4 4647.72 388.167   7
  -6  -3  -5 1233.35 214.653   7
  -6  -3  -5 819.462 82.5032  11
   6   3   5 1294.77 112.537   1
   6   3   5 1198.57 218.842   2
   6   3   5 1293.32 96.9658   3
  -6  -3  -6 914.782 183.181   7
  -6  -3  -6 777.712 90.6244  11
   6   3   6 780.223 176.224   2
   6   3   6 848.656 87.0406   3
   6   3   6 808.213 96.5137   1
  -6  -3  -7 1213.61 213.338   7
  -6  -3  -7 712.109 96.3785  11
   6   3   7 680.777 168.924   2
   6   3   7 1125.24 110.486   3
   6   3   8 100.558 42.7904   3
  -6  -3  -8 77.2886 88.7254   7
   6   3   8 153.158 100.450   2
   6   3   9 560.966 93.2968   3
  -6  -3  -9 585.908 175.378   7
   6   3   9 395.292 122.814   2
   6   3  10 382.222 85.9427   3
  -6  -3 -10 310.064 134.454   7
  -6  -3 -10 703.537 172.305  10
   6   3  10 236.795 101.146   2
   6   3  11 105.637 46.0658   3
  -6  -3 -11 197.794 127.299  10
   6   3  11 8.72618 100.700   2
   6   3  12 284.029 89.7144   3
  -6  -3 -12 367.433 139.839  10
   6   3  12 330.660 123.041   2
   6   3  13 366.363 104.112   3
  -6  -3 -13 191.520 96.0535   4
  -6  -3 -13 236.033 124.971  10
   6   3  13 118.149 62.2850   2
  -6  -3 -14-85.2118 98.4746   4
  -6  -3 -14 175.876 116.156  10
   6   3  14-42.2132 65.8508   2
  -6  -3 -15-65.1338 84.2310  10
   6   3  15-24.7131 74.9393   2
   6   3  16-5.04647 66.7406   1
   6   4 -10-32.3837 76.0712   2
   6   4 -10 64.4616 73.9881   8
   6   4  -9 312.835 113.801   2
   6   4  -9 405.884 116.271   8
   6   4  -8 2179.89 277.482   2
   6   4  -8 2407.04 261.409   8
  -6  -4   8 2706.07 355.435   7
   6   4  -7 1239.60 189.694   6
   6   4  -7 725.120 125.684  11
   6   4  -7 1110.18 203.102   2
   6   4  -7 1294.99 185.628   8
  -6  -4   7 1394.86 253.866   7
   6   4  -6 95.8608 57.9602   6
   6   4  -6 56.4962 60.0632  11
   6   4  -6 57.2724 84.6480   2
  -6  -4   6 127.065 107.876   7
   6   4  -5 338.584 94.1727   6
   6   4  -5 248.037 73.2616  11
   6   4  -5 103.721 71.2059   2
  -6  -4   5 230.164 113.571   7
   6   4  -4 368.394 101.377   6
   6   4  -4 449.299 93.1863  11
   6   4  -4 255.499 114.101   2
  -6  -4   4 499.522 159.995   7
   6   4  -3 46.2783 57.7891   6
   6   4  -3 21.3346 29.2626   4
   6   4  -3 137.176 94.4591   2
  -6  -4   3 36.5733 86.9410   7
   6   4  -2 955.583 154.237   6
   6   4  -2 809.475 101.079   4
   6   4  -2 792.159 177.513   2
   6   4  -2 391.459 45.6041   3
  -6  -4   2 865.308 140.413   8
  -6  -4   2 897.054 177.141   7
   6   4  -1 249.755 64.0096   4
   6   4  -1 265.409 125.111   2
  -6  -4   1 62.6165 56.2824   8
  -6  -4   1 147.115 87.4927   7
   6   4   0 430.776 161.022   2
  -6  -4   0 633.148 155.443   8
   6   4   1 17422.0 774.424   2
  -6  -4  -1 19286.8 648.799   8
  -6  -4  -1 19288.7 788.553   7
   6   4   2 1474.58 247.329   2
  -6  -4  -2 1569.29 206.603   8
  -6  -4  -2 1323.22 226.041   7
  -6  -4  -3 6866.25 266.413  11
   6   4   3 6627.68 473.506   2
  -6  -4  -3 7013.82 402.314   8
  -6  -4  -3 6869.98 465.364   7
  -6  -4  -4 211.395 110.880   7
  -6  -4  -4 146.189 47.3347  11
   6   4   4 222.238 109.596   2
  -6  -4  -4 187.240 87.1312   8
  -6  -4  -5 794.227 165.759   7
  -6  -4  -5 675.349 91.4244  11
   6   4   5 728.079 165.855   2
  -6  -4  -5 730.973 140.322   8
  -6  -4  -6 365.612 126.809   7
   6   4   6 89.4585 27.3814   1
  -6  -4  -6 130.408 47.2501  11
   6   4   6 164.242 84.5345   2
   6   4   6 224.959 41.8716   1
  -6  -4  -6 298.887 96.8293   8
  -6  -4  -7 6.59060 70.2331   7
   6   4   7 49.6469 25.6184   1
   6   4   7-116.906 92.3136   2
   6   4   7 42.0737 25.0186   1
  -6  -4  -8 46.0803 98.4499   7
  -6  -4  -8 85.0644 53.9606  11
   6   4   8 11.4635 66.7948   2
   6   4   8 95.6655 46.9867   1
  -6  -4  -9-10.5499 69.4140   7
   6   4   9 113.172 54.6949   1
  -6  -4 -10 180.748 95.4713   7
   6   4  10 100.119 83.0300   2
   6   4  10 124.343 66.4346   1
  -6  -4 -11 415.157 132.698   4
  -6  -4 -11 298.019 111.693  10
   6   4  11 548.983 145.070   2
   6   4  11 462.585 117.932   1
  -6  -4 -12 696.944 171.079   4
  -6  -4 -12 830.462 184.320  10
   6   4  12 505.033 146.462   2
   6   4  12 843.976 148.532   1
  -6  -4 -13-80.0946 81.4813  10
  -6  -4 -13-63.6844 86.2827   4
   6   4  13 3.92172 68.2457   2
   6   4  13 92.2349 75.0638   1
  -6  -4 -14-0.18965 75.0225   4
  -6  -4 -14 330.295 140.677  10
   6   4  14 234.968 111.341   2
   6   4  14 191.739 71.3119   1
  -6  -4 -15 478.817 156.445   4
  -6  -4 -15 341.768 152.909  10
   6   4  15 365.211 129.768   2
   6   4  15 217.023 106.662   1
  -6  -4 -16-228.405 127.524  10
   6   5 -10 15.4932 53.4110   2
   6   5  -9 21.4725 61.3763   2
   6   5  -8 413.388 125.772   6
   6   5  -8 441.756 151.961   2
  -6  -5   8 377.249 171.451   7
   6   5  -7 332.258 101.460   6
   6   5  -7 289.427 93.0847  11
   6   5  -7 441.079 138.627   2
  -6  -5   7 723.932 190.848   7
   6   5  -6 202.832 79.6113   6
   6   5  -6 163.427 79.9226  11
   6   5  -6 289.052 114.041   2
  -6  -5   6 241.418 125.624   7
   6   5  -5 15.3304 39.9406   6
   6   5  -5 146.324 89.2192  11
   6   5  -5 116.825 77.9312   2
  -6  -5   5 35.9542 95.9588   7
   6   5  -4 2405.15 237.440   6
   6   5  -4 2109.76 212.295  11
   6   5  -4 2290.45 293.969   2
  -6  -5   4 2470.42 320.201   7
   6   5  -3 2404.53 228.595   6
   6   5  -3 2147.92 203.552  11
   6   5  -3 2317.55 293.359   2
  -6  -5   3 2451.39 316.773   7
   6   5  -2 2369.19 302.518   2
  -6  -5   2 2686.99 322.438   7
   6   5  -1 40.3008 98.6296   2
  -6  -5   1 314.493 96.4036   8
  -6  -5   1 297.058 111.479   7
   6   5   0 451.331 153.932   2
  -6  -5   0 468.082 95.0507   8
  -6  -5   0 604.469 169.376   7
   6   5   1 657.951 172.894   2
  -6  -5  -1 328.685 93.6774   8
  -6  -5  -1 303.630 131.182   7
   6   5   2 170.221 94.8725   2
  -6  -5  -2 192.973 64.9825   8
  -6  -5  -2 314.245 112.545   7
   6   5   3 332.727 141.280   2
  -6  -5  -3 331.729 91.1996   8
  -6  -5  -3 299.476 107.161   7
   6   5   4 816.289 181.778   2
  -6  -5  -4 590.756 122.675   8
  -6  -5  -4 560.739 139.950   7
  -6  -5  -5 371.157 124.421   7
   6   5   5 450.187 129.894   2
  -6  -5  -5 330.009 84.6267   8
  -6  -5  -6 743.960 165.208   7
  -6  -5  -6 761.071 124.832  11
   6   5   6 751.332 190.332   2
  -6  -5  -6 684.052 135.366   8
  -6  -5  -7 2650.09 226.504  11
   6   5   7 2282.65 287.281   2
  -6  -5  -7 2846.25 319.423   7
  -6  -5  -8 2003.11 203.091  11
   6   5   8 2130.39 287.382   2
  -6  -5  -8 2560.25 305.318   7
  -6  -5  -9 57.5587 69.9519   7
  -6  -5  -9 41.9215 47.4542  11
   6   5   9 144.900 108.969   2
   6   5   9 86.4588 46.4582   1
  -6  -5 -10 109.546 68.8029   7
   6   5  10 131.973 98.6210   2
   6   5  10 20.9399 34.9611   1
  -6  -5 -11 90.0519 107.488   7
  -6  -5 -11 56.1188 75.8699   4
   6   5  11 29.1697 85.7622   2
  -6  -5 -12 107.899 76.7535  10
  -6  -5 -12 183.131 111.014   4
   6   5  12 32.1922 98.9189   2
  -6  -5 -13-3.93722 68.5348  10
  -6  -5 -13-43.4484 80.1713   4
   6   5  13-69.4146 84.8595   2
  -6  -5 -14 271.875 130.808  10
  -6  -5 -14 273.036 124.069   4
   6   5  14 372.638 123.990   2
  -6  -5 -15 189.763 90.1123  10
  -6  -5 -15 314.265 140.418   4
   6   5  15 317.546 123.639   2
  -6  -5 -16 111.810 109.639  10
  -6  -5 -17 151.957 113.706  10
   6   6  -9 64.0062 59.4783   2
   6   6  -8 906.210 196.463   2
   6   6  -7 65.0445 82.0677  11
   6   6  -7-40.1490 84.8267   2
  -6  -6   7-3.56433 77.8650   7
   6   6  -6 1027.43 171.940  11
   6   6  -6 1150.49 216.274   2
  -6  -6   6 1187.41 233.397   7
   6   6  -5 2838.71 273.447  11
   6   6  -5 3479.43 367.759   2
  -6  -6   5 3272.08 364.655   7
   6   6  -4 1993.97 227.002  11
   6   6  -4 1691.58 257.236   2
  -6  -6   4 1623.14 265.885   7
   6   6  -3 41.3207 64.8589  11
   6   6  -3-30.7052 71.4760   2
  -6  -6   3 62.8694 76.0522   7
   6   6  -2 956.618 203.841   2
  -6  -6   2 697.923 173.232   7
   6   6  -1 1468.75 238.722   2
  -6  -6   1 1511.29 237.475   7
   6   6   0 1673.76 257.976   2
  -6  -6   0 1517.93 240.156   7
   6   6   1 717.809 172.326   2
  -6  -6  -1 598.183 170.953   7
  -6  -6  -2 66.8522 55.2504  11
   6   6   2 137.496 115.569   2
  -6  -6  -2-25.7915 84.0865   7
  -6  -6  -3 131.503 51.5891  11
   6   6   3 105.176 94.2560   2
  -6  -6  -3 129.113 88.7578   7
  -6  -6  -4 270.382 86.5842  11
   6   6   4 339.966 131.975   2
  -6  -6  -4 277.063 80.7926   8
  -6  -6  -4 170.007 101.743   7
  -6  -6  -5 617.011 160.237   7
  -6  -6  -5 519.538 105.776  11
   6   6   5 536.753 168.397   2
  -6  -6  -5 416.797 92.9216   8
  -6  -6  -6 260.398 98.8386   7
  -6  -6  -6 208.788 82.5954  11
   6   6   6 40.8577 92.6932   2
  -6  -6  -6 189.176 85.4031   8
  -6  -6  -7 1483.34 240.015   7
  -6  -6  -7 1755.39 200.581  11
   6   6   7 1874.89 263.570   2
  -6  -6  -7 1889.42 210.522   8
  -6  -6  -8 1651.83 253.256   7
   6   6   8 1184.73 224.821   2
  -6  -6  -9 614.078 161.983   7
   6   6   9 585.974 165.969   2
  -6  -6 -10-92.1515 88.6370   7
  -6  -6 -10 27.2378 59.0465   4
   6   6  10 1.87037 75.5309   2
  -6  -6 -11 483.411 160.062   7
  -6  -6 -11 359.344 98.6505   4
   6   6  11 367.972 124.249   2
  -6  -6 -12 124.181 103.576   7
  -6  -6 -12 120.222 84.1412  10
  -6  -6 -12-58.7105 60.5429   4
   6   6  12-58.9554 84.1604   2
  -6  -6 -13 153.605 106.433  10
  -6  -6 -13 27.7041 77.7329   4
   6   6  13-55.3597 64.9350   2
  -6  -6 -14 199.566 86.1996  10
  -6  -6 -14 268.325 123.417   4
   6   6  14 422.415 146.637   2
  -6  -6 -15 110.861 101.535  10
  -6  -6 -15 37.0793 74.5573   4
   6   6  15 57.4968 76.4244   2
  -6  -6 -16 8.66040 72.9804  10
  -6  -6 -16-56.6458 92.2829   4
   6   6  16 101.245 80.0948   2
   6   7  -8 165.418 101.985   2
   6   7  -7 9.51380 84.0066  11
   6   7  -7 66.5424 83.8111   2
   6   7  -6-21.9559 92.8911  11
   6   7  -6 193.406 104.834   2
  -6  -7   6-33.3945 111.995   7
   6   7  -5 53.1029 59.4488  11
   6   7  -5-91.6075 104.060   2
  -6  -7   5-11.5112 90.5659   7
   6   7  -4 183.560 90.0312  11
   6   7  -4-80.9166 86.6006   2
  -6  -7   4 267.541 133.183   7
   6   7  -3 73.9266 72.6065  11
   6   7  -3-28.4200 78.0215   2
  -6  -7   3-8.13123 111.170   7
   6   7  -2 68.0661 112.023   2
  -6  -7   2-128.472 106.585   7
   6   7  -1-28.8688 70.2576   2
  -6  -7   1 17.1630 77.4767   7
   6   7   0 441.485 151.048   2
  -6  -7   0 76.8418 74.6300   7
   6   7   1 243.413 125.396   2
  -6  -7  -1 231.535 123.633   7
   6   7   2 1147.54 220.247   2
  -6  -7  -2 1160.77 204.050   7
   6   7   3 976.570 209.667   2
  -6  -7  -3 1038.61 201.298   7
   6   7   4 275.512 141.801   2
  -6  -7  -4 237.422 99.9295   7
   6   7   5 207.936 106.152   2
  -6  -7  -5 77.8264 91.0796   7
  -6  -7  -6 217.847 102.684   7
   6   7   6 323.588 125.670   2
  -6  -7  -7 1028.01 206.490   7
   6   7   7 742.991 177.622   2
  -6  -7  -8 129.463 85.7233   7
   6   7   8 184.226 108.576   2
  -6  -7  -9 92.0023 79.3087   7
   6   7   9 254.444 102.453   2
  -6  -7 -10 27.8701 78.9130   7
  -6  -7 -10 167.078 78.4299   4
   6   7  10 151.933 120.154   2
  -6  -7 -11-87.7457 84.0238   7
  -6  -7 -11-26.0979 64.0167   4
   6   7  11-195.242 108.983   2
  -6  -7 -12-74.3436 72.4972   7
  -6  -7 -12 65.6169 94.8796   4
   6   7  12-131.802 106.739   2
  -6  -7 -13-56.6457 72.7257  10
  -6  -7 -13 28.6268 67.4498   4
   6   7  13 142.965 119.857   2
  -6  -7 -14 123.877 119.770  10
  -6  -7 -14 216.573 114.658   4
   6   7  14 73.3952 101.879   2
  -6  -7 -15 442.796 143.104  10
  -6  -7 -15 241.634 138.913   4
   6   7  15 394.636 138.504   2
   6   8  -6-6.07982 104.770  11
   6   8  -5 692.240 176.257  11
   6   8  -5 739.445 203.971   2
  -6  -8   5 931.131 225.408   7
   6   8  -4 639.550 146.137  11
   6   8  -4 566.518 172.994   2
  -6  -8   4 995.954 215.734   7
   6   8  -3 130.392 104.928  11
   6   8  -3-33.9608 81.1668   2
  -6  -8   3-5.12559 86.2208   7
   6   8  -2 129.025 88.0397   2
  -6  -8   2 91.9828 106.092   7
   6   8  -1 396.260 150.275   2
  -6  -8   1 454.235 145.152   7
   6   8   0 65.6597 123.865   2
  -6  -8   0-70.1116 69.5032   7
   6   8   1 158.736 127.666   2
  -6  -8  -1 99.0201 107.332   7
   6   8   2-84.9082 106.387   2
  -6  -8  -2-72.2745 80.4377   7
   6   8   3 1038.04 210.094   2
  -6  -8  -3 1337.57 223.297   7
   6   8   4 1831.39 279.994   2
  -6  -8  -4 1853.39 260.625   7
   6   8   5 164.969 145.397   2
  -6  -8  -5 58.8808 92.6306   7
   6   8   6 1059.73 218.698   2
  -6  -8  -6 1283.53 220.074   7
  -6  -8  -7 1455.16 246.618   7
   6   8   7 1404.39 246.179   2
  -6  -8  -8 1143.92 214.043   7
   6   8   8 1122.75 229.951   2
  -6  -8  -9-69.9490 75.0950   7
   6   8   9 295.589 135.802   2
  -6  -8 -10 140.799 112.333   7
   6   8  10-134.811 101.299   2
  -6  -8 -11-129.870 98.2322   7
   6   8  11 51.6070 75.7579   2
  -6  -8 -12 129.452 76.6191   7
   6   8  12-91.4280 80.0693   2
  -6  -8 -13 126.499 116.320  10
   6   8  13-4.49832 71.1956   2
   6   9  -4 195.333 86.8253  11
  -6  -9   3 83.6033 144.368   7
  -6  -9   2 591.910 178.241   7
  -6  -9   1 1619.95 272.418   7
  -6  -9   0 778.672 192.114   7
  -6  -9  -1 24.8250 78.3760   7
  -6  -9  -2 286.075 134.327   7
  -6  -9  -3 289.302 128.145   7
  -6  -9  -4-25.1261 74.8822   7
  -6  -9  -5-9.07846 71.7602   7
  -6  -9  -6 97.5133 98.7928   7
  -6  -9  -7 452.980 164.611   7
  -6  -9  -8 626.022 161.179   7
  -6  -9  -9 134.939 115.142   7
  -6  -9 -10 532.101 180.714   7
  -6  -9 -11 825.328 207.133   7
  -6 -10   0 581.108 163.272   7
  -6 -10  -1 16.9595 88.6401   7
  -6 -10  -2 427.178 148.445   7
  -6 -10  -3 719.469 173.502   7
  -6 -10  -4 306.992 136.971   7
  -6 -10  -5 456.910 130.717   7
  -6 -10  -6 204.278 118.294   7
  -6 -10  -7-4.45308 66.1208   7
  -6 -10  -8 53.0648 96.8246   7
  -6 -10  -9-50.6383 101.073   7
  -6 -10 -10 1080.73 215.389   7
  -7   4   5 348.040 140.820  10
  -7   4   4 70.1887 85.5170  10
  -7   4   3 121.292 91.3492  10
   7  -4  -3-6.33060 76.0715   3
  -7   4   2 474.160 170.246  10
   7  -4  -2 147.086 96.0806   3
  -7   4   1 91.9440 93.4260  10
   7  -4  -1 74.8957 95.8068   3
  -7   4   0-219.515 154.341  10
   7  -4   0 88.4636 112.795   3
   7  -4   1 68.3579 94.0740   3
  -7   3   8 576.666 171.173   1
  -7   3   7 887.915 201.765   7
   7  -3  -6 910.294 218.602   3
  -7   3   6 1431.21 252.390   7
   7  -3  -5 88.8273 95.3382   3
  -7   3   5 63.9278 86.0669   7
   7  -3  -4 34.0707 77.1890   3
  -7   3   4 155.616 112.032   7
   7  -3  -3-22.6128 74.0221   3
  -7   3   3 129.850 119.897   7
  -7   3   2 572.299 156.905  10
   7  -3  -2 836.379 190.903   3
  -7   3   2 1205.26 218.086   7
  -7   3   1 613.224 184.402  10
   7  -3  -1 612.044 159.585   3
  -7   3   1 344.033 137.748   7
  -7   3   0 110.647 117.776  10
  -7   3   0 125.845 95.3931   7
  -7   3  -1 496.943 153.144  10
   7  -3   1 502.315 147.403   3
  -7   3  -1 432.717 129.956   7
  -7   3  -2-115.601 107.263  10
   7  -3   2-6.92184 69.9921   3
  -7   3  -2 112.037 78.4762   7
   7  -3   3 93.1478 78.2522   3
  -7   3  -3 154.496 88.7757   7
   7  -3   4 70.6519 77.3246   3
  -7   3  -4 50.3147 81.1528   7
   7  -3   5-77.6252 92.5918   3
  -7   3  -5 134.526 93.6677   7
   7  -3   6 57.9401 74.6457   3
  -7   3  -6 32.7632 68.9471   7
  -7   3  -7 88.9981 102.430   7
  -7   2   9-64.5839 67.0174   1
  -7   2   8 199.587 98.4462   1
  -7   2   7 295.126 134.403   1
  -7   2   7 81.0925 93.8861   7
  -7   2   6 9.58220 69.3878   7
   7  -2  -5 5110.39 436.539   3
  -7   2   5 5476.20 463.165   7
   7  -2  -4 1337.54 227.356   3
  -7   2   4 1426.06 232.721   7
   7  -2  -3 2409.90 286.121   3
  -7   2   3 2838.25 331.414   7
   7  -2  -2 467.340 151.766   6
   7  -2  -2 196.883 88.4814   3
  -7   2   2 792.435 185.063   7
   7  -2  -1 332.784 138.928   6
   7  -2  -1 237.375 95.7599   3
  -7   2   1 342.278 124.482   7
   7  -2   0 168.251 92.7074   6
   7  -2   0-189.014 105.939   3
  -7   2   0-143.769 98.8519   7
  -7   2  -1 381.272 154.978  10
   7  -2   1 359.381 109.256   3
  -7   2  -1 374.291 132.326   7
  -7   2  -2 543.393 155.240  10
   7  -2   2 522.055 137.121   3
  -7   2  -2 429.394 132.400   7
  -7   2  -3 72.0843 84.5107  10
   7  -2   3 231.318 98.2617   3
  -7   2  -3 278.469 124.241   7
  -7   2  -4 49.9941 112.903  10
   7  -2   4 139.173 81.2574   3
  -7   2  -4-54.2549 90.8200   7
   7  -2   5 503.559 139.487   3
  -7   2  -5 386.542 125.480   7
   7  -2   6 511.453 138.399   3
  -7   2  -6 523.357 150.612   7
  -7   2  -7 16.8885 74.0486   7
   7  -2   7 177.348 106.241   3
  -7   2  -8 101.060 113.555   7
   7  -2   8 184.050 98.4582   3
  -7   2  -9 625.439 175.216   7
   7  -2   9 709.624 173.410   3
  -7   1   7 208.866 95.9245   1
  -7   1   7 256.727 123.114   7
  -7   1   6-135.340 120.450   7
   7  -1  -5 224.446 123.205   6
  -7   1   5 179.287 85.0349   7
   7  -1  -4 92.7233 109.384   6
   7  -1  -4 33.8674 76.4448   3
  -7   1   4-70.4924 91.2158   7
   7  -1  -3 188.176 98.6031   6
   7  -1  -3 17.9768 54.9785   3
  -7   1   3 240.996 120.757   7
   7  -1  -2 588.148 182.618   6
   7  -1  -2 628.267 136.504   3
  -7   1   2 796.256 184.584   7
   7  -1  -1 384.895 152.215   6
   7  -1  -1 430.548 111.850   3
  -7   1   1 435.166 127.748   7
   7  -1   0 121.236 83.3695   6
   7  -1   0-40.6845 46.1241   3
  -7   1   0-74.8597 87.9107   7
   7  -1   1 843.277 159.846   3
  -7   1  -1 723.301 174.797   7
   7  -1   2 856.494 156.394   3
  -7   1  -2 734.393 167.036   7
  -7   1  -3-20.4031 75.8766  10
   7  -1   3-82.5305 64.5282   3
  -7   1  -3-30.3807 75.0985   7
   7  -1   4-42.2983 63.6394   3
  -7   1  -4-3.63913 69.7399   7
  -7   1  -5 81.5854 98.7243  10
   7  -1   5 33.0945 49.6853   3
  -7   1  -6-110.190 83.7137   7
   7  -1   6 22.0224 49.1986   3
  -7   1  -7 24.8554 77.0281   7
   7  -1   7 91.8108 75.3754   3
  -7   1  -8 204.992 110.630   7
   7  -1   8 117.371 74.7781   3
  -7   1  -9 381.659 147.647   7
   7  -1   9 121.624 79.3105   3
   7  -1  10 79.9178 74.4517   3
   7  -1  11-60.9385 68.3957   3
   7   0 -10 247.144 127.726   2
   7   0  -9 118.656 100.743   2
   7   0  -7 622.367 180.722   6
   7   0  -6 291.528 146.178   6
  -7   0   6 732.168 189.346   7
   7   0  -5 242.727 124.652   6
  -7   0   5 72.3133 78.0756   7
   7   0  -4 802.298 193.855   6
   7   0  -4 764.000 141.149   3
  -7   0   4 885.319 201.776   7
   7   0  -3 383.461 126.840   6
   7   0  -3 389.174 108.346   3
  -7   0   3 476.115 164.207   7
   7   0  -2 120.545 88.2943   6
   7   0  -2 47.2954 37.1716   3
  -7   0   2 202.831 122.827   7
   7   0  -1 126.403 112.055   6
   7   0  -1 132.873 58.0187   3
  -7   0   1 286.460 116.485   7
   7   0   0 153.913 97.1050   6
   7   0   0-86.6265 58.3878   3
  -7   0   0 77.4630 80.6983   7
   7   0   1 565.282 112.350   3
  -7   0  -1 850.231 197.240   7
   7   0   2 152.488 67.3476   3
  -7   0  -2 171.724 113.282   7
   7   0   3 83.5437 51.9467   3
  -7   0  -3 25.0919 80.7952   7
   7   0   4 806.164 138.554   3
  -7   0  -4 560.718 161.272   7
  -7   0  -5 1498.63 251.466   7
  -7   0  -5 1417.73 248.427  10
   7   0   5 1638.18 200.066   3
  -7   0  -6-1.51852 77.7971   7
  -7   0  -6 80.2781 110.877  10
   7   0   6-28.0268 49.9547   3
  -7   0  -7 83.1407 92.4168   7
  -7   0  -7-87.6638 93.7078  10
   7   0   7 23.8382 43.6474   3
  -7   0  -8 26.3190 82.5557   7
   7   0   8 81.8711 60.2803   3
  -7   0  -9 194.024 115.885   7
   7   0   9-37.7085 54.8091   3
   7   0  10 128.999 80.7392   3
   7   0  11 192.283 112.148   2
   7   0  11 179.885 88.2309   3
   7   0  12 3.85074 100.279   2
   7   1 -10 193.893 107.083   2
   7   1  -9 65.8002 82.6026   2
   7   1  -9-30.6072 127.822   8
   7   1  -8-47.2203 84.5043   6
   7   1  -8 62.3312 85.5077   2
   7   1  -7 356.904 148.687   6
   7   1  -7 271.815 134.952   2
   7   1  -6 195.831 84.0026   6
   7   1  -6 336.240 139.741   2
  -7  -1   6 452.468 176.158   7
   7   1  -5 58.7827 104.615   2
   7   1  -5 73.4053 84.0564   6
  -7  -1   5 154.416 95.8948   7
   7   1  -4 2830.64 324.250   6
   7   1  -4 1935.14 297.335   2
   7   1  -4 2841.10 258.434   3
  -7  -1   4 2951.56 353.039   7
   7   1  -3 1689.29 260.684   6
   7   1  -3 1526.23 183.628   3
  -7  -1   3 1596.23 262.731   7
   7   1  -2 313.552 132.930   6
   7   1  -2 417.218 102.403   3
  -7  -1   2 316.701 134.453   7
   7   1  -1 20.6288 65.3284   6
   7   1  -1 1.80654 34.1187   3
  -7  -1   1 44.2736 97.6419   7
   7   1   0 1064.64 203.918   6
   7   1   0 618.788 111.376   3
  -7  -1   0 1075.46 209.919   7
   7   1   1 600.371 107.137   3
  -7  -1  -1 512.517 169.464   7
   7   1   2-49.9626 56.0383   3
  -7  -1  -2 409.856 147.773   7
   7   1   3 586.099 100.996   3
  -7  -1  -3 739.088 179.661   7
   7   1   4 388.552 86.4489   3
  -7  -1  -4 390.138 139.580   7
  -7  -1  -5 82.6939 89.0233   7
   7   1   5 7.56697 35.8014   3
  -7  -1  -6 13.0320 88.5277   7
   7   1   6 207.997 72.9979   3
  -7  -1  -7 51.7503 94.1848   7
   7   1   7 9.66942 87.5025   2
  -7  -1  -7 46.4069 90.7600  10
   7   1   7 112.587 50.6480   3
  -7  -1  -8 462.306 171.727   7
   7   1   8 130.688 91.6302   2
  -7  -1  -8 269.471 126.472  10
   7   1   8 302.766 90.2338   3
  -7  -1  -9 456.806 164.748   7
   7   1   9 387.545 149.430   2
  -7  -1  -9 544.447 175.046  10
  -7  -1 -10-2.16574 96.2015   7
   7   1  10 129.730 103.265   2
   7   1  11-78.1813 96.7960   2
   7   1  12 101.917 95.9458   2
   7   1  13 128.202 104.659   2
   7   2 -10 53.2902 86.6919   2
   7   2  -9 43.8039 73.8802   6
   7   2  -9 45.8970 70.4328   2
   7   2  -9 129.520 86.2122   8
   7   2  -8 1109.08 212.384   6
   7   2  -8 511.163 155.938   2
   7   2  -7 223.991 105.679   6
   7   2  -7 220.426 114.435   2
   7   2  -6-121.878 70.3643   6
  -7  -2   6 19.2991 82.4798   7
   7   2  -5 56.3662 87.6515   6
   7   2  -5 142.065 110.634   2
  -7  -2   5 217.747 130.765   7
   7   2  -4 211.612 110.657   6
   7   2  -4 131.881 94.7710   2
  -7  -2   4 248.567 123.211   7
   7   2  -3 803.173 189.172   6
   7   2  -3 1164.80 223.849   2
  -7  -2   3 1486.78 256.169   7
   7   2  -2 757.347 176.356   6
   7   2  -2 879.035 204.131   2
  -7  -2   2 885.330 196.468   7
   7   2  -1 187.764 115.237   6
   7   2  -1-103.972 105.090   2
  -7  -2   1 79.0359 70.6285   7
   7   2   0 452.555 136.772   2
  -7  -2   0 607.937 178.449   7
   7   2   1 957.735 221.188   2
  -7  -2  -1 985.431 205.902   7
   7   2   2 748.446 189.171   2
  -7  -2  -2 986.019 201.364   7
   7   2   3 465.256 139.358   2
  -7  -2  -3 376.190 138.772   7
   7   2   4-68.0061 78.8413   2
  -7  -2  -4 207.919 101.399   7
  -7  -2  -5 64.8853 80.3124   7
   7   2   5 41.8066 69.0085   2
  -7  -2  -6 98.7700 94.4577   7
   7   2   6-58.4268 78.6610   2
  -7  -2  -7 18.9504 71.5238   7
   7   2   7 108.794 105.270   2
  -7  -2  -8 1140.81 222.838   7
  -7  -2  -8 1017.20 213.374  10
   7   2   8 835.758 195.993   2
  -7  -2  -9 1523.57 269.511   7
  -7  -2  -9 1735.81 282.224  10
   7   2   9 1073.65 213.201   2
  -7  -2 -10 166.821 134.858   7
  -7  -2 -10 6.23875 82.8623  10
   7   2  10 125.043 97.0369   2
   7   2  11 115.220 106.065   2
   7   2  12 88.6247 120.855   2
   7   2  13 754.297 179.286   2
   7   3  -9 287.575 129.968   6
   7   3  -9-5.81470 64.5133   2
   7   3  -9 521.639 142.327   8
   7   3  -8 262.246 115.730   6
   7   3  -8 103.993 84.0862   2
   7   3  -7 716.239 173.734   6
   7   3  -7 534.199 167.332   2
   7   3  -6 164.852 90.0819   6
   7   3  -6 161.023 95.7787   2
   7   3  -5-151.732 90.1851   6
   7   3  -5 168.076 107.603   2
  -7  -3   5-8.02733 94.1897   7
   7   3  -4 336.282 123.188   6
   7   3  -4 295.864 121.948   2
  -7  -3   4 552.666 168.406   7
   7   3  -3 319.017 113.646   6
   7   3  -3 373.788 135.535   2
  -7  -3   3 301.300 132.895   7
   7   3  -2 36.4615 74.5143   6
   7   3  -2 155.212 91.3398   2
  -7  -3   2 36.2335 72.5535   7
   7   3  -1-169.333 125.805   2
  -7  -3   1 78.2308 84.8983   7
   7   3   0-178.083 117.917   2
  -7  -3   0 5.73356 84.7073   7
   7   3   1-8.24315 89.5662   2
  -7  -3  -1-96.0702 115.447   7
   7   3   2-20.3229 77.3779   2
  -7  -3  -2 90.1166 110.169   7
   7   3   3 395.858 142.508   2
  -7  -3  -3 761.660 193.624   7
   7   3   4 1242.83 241.415   2
  -7  -3  -4 1912.47 275.176   7
  -7  -3  -5 519.268 163.158   7
   7   3   5 950.857 217.667   2
  -7  -3  -6 321.122 118.788   7
   7   3   6 406.541 165.648   2
  -7  -3  -7 424.809 154.715   7
   7   3   7 386.680 138.261   2
  -7  -3  -8 265.175 137.328   7
   7   3   8 408.522 129.038   2
  -7  -3  -9 491.301 174.150   7
  -7  -3  -9 304.402 131.684  10
   7   3   9 29.4463 82.9566   2
  -7  -3 -10-4.14508 98.6082   7
  -7  -3 -10 54.8590 112.663  10
   7   3  10 94.8658 96.6488   2
  -7  -3 -11 173.550 123.893  10
   7   3  11-50.1833 78.6332   2
   7   3  12 109.879 103.116   2
   7   3  13 29.5437 83.2672   2
   7   3  14 138.153 134.534   2
   7   4  -9 31.9544 84.0640   2
   7   4  -8-15.9616 56.4794   6
   7   4  -8 78.4526 87.4514   2
   7   4  -7 70.3950 77.0027   6
   7   4  -7-92.5840 81.2095   2
   7   4  -6 11.9053 64.5923   6
   7   4  -6-91.9365 112.682   2
   7   4  -5 520.018 136.476   6
   7   4  -5 461.968 178.919   2
   7   4  -4 1646.94 233.567   6
   7   4  -4 1695.30 274.541   2
  -7  -4   4 1978.63 293.788   7
   7   4  -3 1444.99 218.648   6
   7   4  -3 1154.09 223.001   2
  -7  -4   3 1789.91 290.580   7
   7   4  -2 339.051 139.659   2
  -7  -4   2 340.774 158.674   7
   7   4  -1 707.684 200.268   2
  -7  -4   1 886.091 200.871   7
   7   4   0 832.093 183.279   2
  -7  -4   0 1278.20 235.216   7
   7   4   1 337.536 152.304   2
  -7  -4  -1 498.472 149.992   7
   7   4   2 16.6063 75.0509   2
  -7  -4  -2-60.0264 91.6467   7
   7   4   3 155.618 112.366   2
  -7  -4  -3 181.095 126.508   7
   7   4   4 1797.13 277.374   2
  -7  -4  -4 1704.14 265.444   7
   7   4   5 822.439 186.876   2
  -7  -4  -5 1136.47 232.593   7
  -7  -4  -6-7.89780 87.6766   7
   7   4   6 158.216 115.025   2
  -7  -4  -7 1121.36 227.844   7
   7   4   7 980.692 221.931   2
  -7  -4  -8 1249.61 238.410   7
   7   4   8 1146.79 225.451   2
  -7  -4  -9 64.1537 83.2503   7
   7   4   9-99.4370 75.4918   2
  -7  -4 -10 66.8956 128.328  10
   7   4  10 4.71767 87.9948   2
  -7  -4 -11 89.7292 112.954  10
   7   4  11 22.8182 85.0906   2
   7   4  12 32.1459 78.6598   2
   7   4  13-25.5264 68.2854   2
   7   4  14 112.951 79.5512   2
   7   5  -7-75.8460 103.137   2
   7   5  -6 17.7293 112.891   2
   7   5  -5-10.5506 66.0091   6
   7   5  -5 5.76517 73.3705   2
   7   5  -4 226.586 99.0133   6
   7   5  -4 75.3471 86.2157   2
   7   5  -3 211.036 150.224   2
  -7  -5   3 116.938 89.6351   7
   7   5  -2 267.200 142.023   2
  -7  -5   2 393.875 160.192   7
   7   5  -1 572.258 186.943   2
  -7  -5   1 186.791 117.797   7
   7   5   0 2532.99 340.572   2
  -7  -5   0 3440.65 377.354   7
   7   5   1 362.416 160.244   2
  -7  -5  -1 134.388 124.638   7
   7   5   2 361.427 140.237   2
  -7  -5  -2 571.882 159.610   7
   7   5   3 314.543 117.284   2
  -7  -5  -3 244.443 102.129   7
   7   5   4 77.0341 110.765   2
  -7  -5  -4-67.9746 91.5918   7
   7   5   5 61.0993 102.616   2
  -7  -5  -5 59.4355 86.8553   7
  -7  -5  -6 82.1830 89.9775   7
   7   5   6-34.5456 82.7820   2
  -7  -5  -7 158.379 110.229   7
   7   5   7 259.253 148.468   2
  -7  -5  -8 303.177 149.478   7
   7   5   8 5.12872 83.1075   2
  -7  -5  -9 152.144 133.247   7
   7   5   9-42.7054 70.1829   2
   7   5  10 227.396 137.596   2
  -7  -5 -11 795.320 194.518  10
   7   5  11 461.639 149.630   2
  -7  -5 -12 990.619 241.587  10
   7   5  12 837.190 206.887   2
   7   5  13 109.225 105.299   2
   7   5  14-28.7693 85.1278   2
   7   6  -4 773.654 196.161   2
   7   6  -3 112.544 114.133   2
   7   6  -2-71.4340 86.2441   2
  -7  -6   2 7.41973 94.0513   7
   7   6  -1 348.886 141.056   2
  -7  -6   1 411.174 155.578   7
   7   6   0 472.297 164.378   2
  -7  -6   0 593.314 167.585   7
   7   6   1 124.075 86.9671   2
  -7  -6  -1 140.358 118.923   7
   7   6   2 259.246 146.684   2
  -7  -6  -2 314.744 147.927   7
   7   6   3 1058.59 231.390   2
  -7  -6  -3 946.617 198.377   7
   7   6   4 1255.56 249.593   2
  -7  -6  -4 1714.17 271.255   7
   7   6   5 760.610 204.244   2
  -7  -6  -5 450.616 170.511   7
   7   6   6-62.2988 92.2234   2
  -7  -6  -6 136.933 137.171   7
  -7  -6  -7 572.926 162.854   7
   7   6   7 325.563 148.370   2
  -7  -6  -8 170.338 110.469   7
   7   6   8-66.6577 112.103   2
   7   6   9-38.0315 81.9229   2
   7   6  10 49.5516 118.135   2
   7   6  11 152.204 103.899   2
  -7  -6 -12 422.635 148.308  10
  -7  -7   0 293.511 132.777   7
  -7  -7  -1 384.939 165.510   7
  -7  -7  -2 123.728 79.5482   7
  -7  -7  -3 168.446 116.270   7
  -7  -7  -4 216.922 139.471   7
  -7  -7  -5-74.9843 121.307   7
  -7  -7  -6 267.633 127.355   7
  -7  -7  -7 970.668 213.760   7
   8   3  -4 250.353 165.375   6
   8   3  -3 772.450 195.153   6
   8   4  -4 143.836 76.0300   6
   0   0   0    0.00    0.00   0
TITL GP176_1 in P-1
REM P-1 (#2 in standard setting)
CELL 0.71073   6.365375   9.236281  16.036062  75.2312  83.7088  76.8549
ZERR    2.00   0.000370   0.000469   0.001212   0.0054   0.0055   0.0046
LATT  1
SFAC C H B N F
UNIT 24.00 28.00 4.00 8.00 16.00
TREF
HKLF 4
END
;
_shelx_hkl_checksum              44383
loop_
_space_group_symop_operation_xyz
'x, y, z'
'-x, -y, -z'
loop_
_atom_site_label
_atom_site_type_symbol
_atom_site_fract_x
_atom_site_fract_y
_atom_site_fract_z
_atom_site_U_iso_or_equiv
_atom_site_adp_type
_atom_site_occupancy
_atom_site_site_symmetry_order
_atom_site_calc_flag
_atom_site_refinement_flags_posn
C1 C 0.0816(4) 0.5989(3) 0.24943(18) 0.0269(6) Uani 1 1 d .
H1A H -0.0563 0.6069 0.2238 0.035(8) Uiso 1 1 calc R
H1B H 0.0849 0.5252 0.3064 0.029(7) Uiso 1 1 calc R
C2 C 0.0983(4) 0.7531(3) 0.26003(19) 0.0298(6) Uani 1 1 d .
C3 C -0.2557(5) 1.0662(3) 0.38168(19) 0.0314(6) Uani 1 1 d .
C4 C -0.0842(4) 0.8256(3) 0.31779(18) 0.0288(6) Uani 1 1 d .
C5 C 0.4828(4) 0.3077(3) 0.12016(17) 0.0252(6) Uani 1 1 d .
C6 C 0.2718(5) 0.5436(3) 0.19043(19) 0.0294(6) Uani 1 1 d .
H6A H 0.4098 0.5301 0.2173 0.040(8) Uiso 1 1 calc R
H6B H 0.2728 0.6193 0.1343 0.051(10) Uiso 1 1 calc R
C7 C -0.4174(6) 1.3133(4) 0.4376(2) 0.0469(8) Uani 1 1 d .
C8 C 0.7376(4) 0.1598(3) 0.05694(19) 0.0338(7) Uani 1 1 d .
H8 H 0.8153 0.0746 0.0357 0.046(9) Uiso 1 1 calc R
C9 C -0.0794(5) 0.9905(3) 0.32297(18) 0.0310(6) Uani 1 1 d .
C10 C 0.7985(5) 0.2923(3) 0.04734(19) 0.0352(7) Uani 1 1 d .
H10 H 0.9285 0.3182 0.0188 0.044(9) Uiso 1 1 calc R
C11 C -0.2483(5) 1.2339(3) 0.3790(2) 0.0379(7) Uani 1 1 d .
C12 C 0.4099(5) 0.0528(3) 0.1263(2) 0.0352(7) Uani 1 1 d .
H12A H 0.3606 0.0396 0.1873 0.033(8) Uiso 1 1 calc R
H12B H 0.4960 -0.0444 0.1166 0.042(8) Uiso 1 1 calc R
H12C H 0.2845 0.0855 0.0905 0.052(10) Uiso 1 1 calc R
N1 N 0.6380(4) 0.3850(2) 0.08644(15) 0.0283(5) Uani 1 1 d D
H1 H 0.644(5) 0.4771(17) 0.086(2) 0.044(9) Uiso 1 1 d D
N2 N 0.5420(3) 0.1690(2) 0.10310(15) 0.0267(5) Uani 1 1 d .
F1 F 0.0963(3) 0.85301(18) 0.18152(11) 0.0458(5) Uani 1 1 d .
F2 F 0.2880(3) 0.7461(2) 0.29301(14) 0.0514(5) Uani 1 1 d .
F3 F 0.1126(3) 0.9882(2) 0.35038(15) 0.0585(6) Uani 1 1 d .
F4 F -0.4492(3) 1.0658(2) 0.35659(15) 0.0570(6) Uani 1 1 d .
F5 F -0.0930(4) 1.08062(19) 0.24343(12) 0.0603(6) Uani 1 1 d .
F6 F -0.2738(3) 0.8295(2) 0.28740(14) 0.0523(5) Uani 1 1 d .
F7 F -0.2725(4) 1.31985(19) 0.29825(12) 0.0595(6) Uani 1 1 d .
F8 F -0.2364(3) 0.98498(19) 0.46297(12) 0.0539(5) Uani 1 1 d .
F9 F -0.0740(3) 0.73546(18) 0.39801(12) 0.0509(5) Uani 1 1 d .
F10 F -0.0542(3) 1.2379(2) 0.40217(16) 0.0625(6) Uani 1 1 d .
F11 F -0.4003(4) 1.2441(2) 0.51879(13) 0.0720(7) Uani 1 1 d .
F12 F -0.6144(4) 1.3193(3) 0.41693(16) 0.0753(7) Uani 1 1 d .
F13 F -0.3928(4) 1.4555(2) 0.42556(16) 0.0772(8) Uani 1 1 d .
S1 S 0.23969(12) 0.36283(8) 0.17465(6) 0.0377(2) Uani 1 1 d .
Cl1 Cl -0.27755(11) 0.69605(7) 0.08096(5) 0.0321(2) Uani 1 1 d .
loop_
_atom_site_aniso_label
_atom_site_aniso_U_11
_atom_site_aniso_U_22
_atom_site_aniso_U_33
_atom_site_aniso_U_23
_atom_site_aniso_U_13
_atom_site_aniso_U_12
C1 0.0267(14) 0.0217(13) 0.0341(16) -0.0102(12) 0.0012(12) -0.0059(11)
C2 0.0262(15) 0.0277(14) 0.0373(17) -0.0106(12) -0.0013(12) -0.0062(11)
C3 0.0313(16) 0.0286(15) 0.0343(17) -0.0107(12) 0.0002(12) -0.0037(12)
C4 0.0273(15) 0.0272(14) 0.0319(16) -0.0085(12) -0.0019(12) -0.0036(11)
C5 0.0252(14) 0.0199(13) 0.0306(16) -0.0068(11) -0.0017(11) -0.0041(11)
C6 0.0330(16) 0.0201(13) 0.0376(17) -0.0116(12) 0.0049(12) -0.0086(11)
C7 0.056(2) 0.0331(17) 0.048(2) -0.0162(15) 0.0009(17) 0.0032(15)
C8 0.0269(15) 0.0358(16) 0.0383(18) -0.0160(13) 0.0007(12) 0.0012(12)
C9 0.0347(16) 0.0266(14) 0.0319(17) -0.0089(12) -0.0043(12) -0.0032(12)
C10 0.0260(15) 0.0443(17) 0.0358(17) -0.0120(14) 0.0018(13) -0.0074(13)
C11 0.0436(18) 0.0305(15) 0.0388(19) -0.0125(14) -0.0021(14) -0.0015(13)
C12 0.0393(17) 0.0225(14) 0.047(2) -0.0131(13) 0.0013(14) -0.0098(12)
N1 0.0255(12) 0.0241(12) 0.0367(14) -0.0084(10) 0.0009(10) -0.0078(10)
N2 0.0274(12) 0.0199(11) 0.0338(14) -0.0110(9) -0.0017(10) -0.0018(9)
F1 0.0695(13) 0.0250(8) 0.0425(11) -0.0111(8) 0.0188(9) -0.0155(8)
F2 0.0268(9) 0.0586(11) 0.0845(15) -0.0497(11) -0.0049(9) -0.0028(8)
F3 0.0312(10) 0.0537(11) 0.1074(18) -0.0517(12) -0.0067(10) -0.0048(8)
F4 0.0287(10) 0.0543(11) 0.0981(17) -0.0424(11) -0.0001(10) -0.0030(8)
F5 0.1058(17) 0.0261(9) 0.0366(11) -0.0069(8) 0.0162(11) 0.0014(10)
F6 0.0262(9) 0.0550(11) 0.0905(16) -0.0469(11) -0.0036(9) -0.0046(8)
F7 0.0959(16) 0.0295(9) 0.0419(12) -0.0074(8) 0.0131(11) 0.0005(10)
F8 0.0868(15) 0.0335(10) 0.0347(11) -0.0086(8) 0.0127(10) -0.0058(9)
F9 0.0775(14) 0.0283(9) 0.0392(11) -0.0065(8) 0.0167(9) -0.0067(9)
F10 0.0463(12) 0.0480(11) 0.1066(18) -0.0437(12) -0.0028(11) -0.0092(9)
F11 0.110(2) 0.0555(13) 0.0376(13) -0.0192(10) 0.0019(12) 0.0139(12)
F12 0.0514(14) 0.0803(16) 0.0922(18) -0.0462(14) -0.0018(12) 0.0184(11)
F13 0.1078(19) 0.0332(11) 0.0893(18) -0.0331(11) 0.0265(14) -0.0065(11)
S1 0.0293(4) 0.0288(4) 0.0619(6) -0.0254(4) 0.0137(3) -0.0109(3)
Cl1 0.0282(4) 0.0265(4) 0.0433(4) -0.0113(3) 0.0023(3) -0.0076(3)
loop_
_atom_type_symbol
_atom_type_description
_atom_type_scat_dispersion_real
_atom_type_scat_dispersion_imag
_atom_type_scat_source
C C 0.0033 0.0016 'International Tables Vol C Tables 4.2.6.8 and 6.1.1.4'
H H 0.0000 0.0000 'International Tables Vol C Tables 4.2.6.8 and 6.1.1.4'
N N 0.0061 0.0033 'International Tables Vol C Tables 4.2.6.8 and 6.1.1.4'
F F 0.0171 0.0103 'International Tables Vol C Tables 4.2.6.8 and 6.1.1.4'
S S 0.1246 0.1234 'International Tables Vol C Tables 4.2.6.8 and 6.1.1.4'
Cl Cl 0.1484 0.1585 'International Tables Vol C Tables 4.2.6.8 and 6.1.1.4'
loop_
_geom_angle_atom_site_label_1
_geom_angle_atom_site_label_2
_geom_angle_atom_site_label_3
_geom_angle
C2 C1 C6 108.6(2)
F2 C2 F1 106.1(2)
F2 C2 C1 111.1(2)
F1 C2 C1 109.6(2)
F2 C2 C4 107.4(2)
F1 C2 C4 107.1(2)
C1 C2 C4 115.0(2)
F8 C3 F4 108.6(2)
F8 C3 C9 109.4(2)
F4 C3 C9 108.5(2)
F8 C3 C11 108.3(2)
F4 C3 C11 107.8(2)
C9 C3 C11 114.1(2)
F6 C4 F9 108.3(2)
F6 C4 C2 108.2(2)
F9 C4 C2 108.4(2)
F6 C4 C9 107.9(2)
F9 C4 C9 108.3(2)
C2 C4 C9 115.4(2)
N1 C5 N2 107.8(2)
N1 C5 S1 130.46(19)
N2 C5 S1 121.74(19)
C1 C6 S1 107.54(18)
F11 C7 F12 108.0(3)
F11 C7 F13 109.7(3)
F12 C7 F13 107.5(3)
F11 C7 C11 112.4(3)
F12 C7 C11 110.8(3)
F13 C7 C11 108.3(3)
C10 C8 N2 107.5(2)
F5 C9 F3 107.2(2)
F5 C9 C3 107.8(2)
F3 C9 C3 107.7(2)
F5 C9 C4 108.4(2)
F3 C9 C4 108.2(2)
C3 C9 C4 117.3(2)
C8 C10 N1 107.5(2)
F7 C11 F10 107.5(3)
F7 C11 C7 107.1(2)
F10 C11 C7 106.8(3)
F7 C11 C3 109.9(2)
F10 C11 C3 109.1(2)
C7 C11 C3 116.1(3)
C5 N1 C10 108.5(2)
C5 N2 C8 108.7(2)
C5 N2 C12 124.3(2)
C8 N2 C12 126.9(2)
C5 S1 C6 100.55(12)
loop_
_geom_bond_atom_site_label_1
_geom_bond_atom_site_label_2
_geom_bond_distance
C1 C2 1.505(4)
C1 C6 1.528(4)
C2 F2 1.352(3)
C2 F1 1.357(3)
C2 C4 1.543(4)
C3 F8 1.331(3)
C3 F4 1.338(3)
C3 C9 1.543(4)
C3 C11 1.550(4)
C4 F6 1.340(3)
C4 F9 1.342(3)
C4 C9 1.553(4)
C5 N1 1.336(3)
C5 N2 1.340(3)
C5 S1 1.729(3)
C6 S1 1.809(2)
C7 F11 1.300(4)
C7 F12 1.318(4)
C7 F13 1.320(4)
C7 C11 1.534(4)
C8 C10 1.334(4)
C8 N2 1.374(4)
C9 F5 1.333(3)
C9 F3 1.337(3)
C10 N1 1.380(4)
C11 F7 1.339(4)
C11 F10 1.340(4)
C12 N2 1.461(3)
loop_
_geom_hbond_atom_site_label_D
_geom_hbond_atom_site_label_H
_geom_hbond_atom_site_label_A
_geom_hbond_distance_DH
_geom_hbond_distance_HA
_geom_hbond_distance_DA
_geom_hbond_angle_DHA
_geom_hbond_site_symmetry_A
N1 H1 Cl1 0.859(10) 2.171(12) 3.019(2) 169(3) 1_655
