#------------------------------------------------------------------------------
#$Date: 2017-01-09 08:43:29 +0200 (Mon, 09 Jan 2017) $
#$Revision: 190283 $
#$URL: file:///home/coder/svn-repositories/cod/cif/7/22/71/7227150.cif $
#------------------------------------------------------------------------------
#
# This file is available in the Crystallography Open Database (COD),
# http://www.crystallography.net/
#
# All data on this site have been placed in the public domain by the
# contributors.
#
data_7227150
loop_
_publ_author_name
'Hendon, Christopher H.'
'Pradaux-Caggiano, Fabienne'
'Hatcher, Lauren E.'
'Gee, William J.'
'Wilson, Chick C.'
'Butler, Keith T.'
'Carbery, David R.'
'Walsh, Aron'
'Melot, Brent C.'
_publ_section_title
;
 Magnetic coupling in a hybrid Mn(ii) acetylene dicarboxylate.
;
_journal_issue                   48
_journal_name_full               'Physical chemistry chemical physics : PCCP'
_journal_page_first              33329
_journal_page_last               33334
_journal_paper_doi               10.1039/c6cp06886c
_journal_volume                  18
_journal_year                    2016
_chemical_formula_moiety         'C4 H4 Mn O6'
_chemical_formula_sum            'C4 H4 Mn O6'
_chemical_formula_weight         203.01
_chemical_name_systematic
;
 ?
;
_space_group_crystal_system      monoclinic
_space_group_IT_number           15
_space_group_name_Hall           '-C 2yc'
_space_group_name_H-M_alt        'C 1 2/c 1'
_symmetry_space_group_name_Hall  '-C 2yc'
_symmetry_space_group_name_H-M   'C 1 2/c 1'
_atom_sites_solution_hydrogens   difmap
_audit_creation_method           SHELXL-2014
_cell_angle_alpha                90
_cell_angle_beta                 123.405(2)
_cell_angle_gamma                90
_cell_formula_units_Z            4
_cell_length_a                   13.4976(8)
_cell_length_b                   7.1793(4)
_cell_length_c                   7.8799(5)
_cell_measurement_reflns_used    5662
_cell_measurement_temperature    100(2)
_cell_measurement_theta_max      43.81
_cell_measurement_theta_min      3.67
_cell_volume                     637.44(7)
_computing_cell_refinement       'SAINT v8.34A (Bruker, 2013)'
_computing_data_collection       'APEX II (Bruker 2013)'
_computing_data_reduction        'SAINT v8.34A (Bruker, 2013)'
_computing_structure_refinement  'SHELXL-2014 (Sheldrick, 2014)'
_computing_structure_solution    'SHELXT-2014 (Sheldrick, 2014)'
_diffrn_ambient_temperature      100(2)
_diffrn_measured_fraction_theta_full 0.998
_diffrn_measured_fraction_theta_max 0.998
_diffrn_measurement_device_type  'Bruker PHOTON100'
_diffrn_measurement_method       '\f and \w scans'
_diffrn_radiation_type           synchrotron
_diffrn_radiation_wavelength     0.7749
_diffrn_reflns_av_R_equivalents  0.0370
_diffrn_reflns_av_unetI/netI     0.0231
_diffrn_reflns_Laue_measured_fraction_full 0.998
_diffrn_reflns_Laue_measured_fraction_max 0.998
_diffrn_reflns_limit_h_max       16
_diffrn_reflns_limit_h_min       -16
_diffrn_reflns_limit_k_max       8
_diffrn_reflns_limit_k_min       -8
_diffrn_reflns_limit_l_max       9
_diffrn_reflns_limit_l_min       -9
_diffrn_reflns_number            4229
_diffrn_reflns_point_group_measured_fraction_full 0.998
_diffrn_reflns_point_group_measured_fraction_max 0.998
_diffrn_reflns_theta_full        27.706
_diffrn_reflns_theta_max         28.967
_diffrn_reflns_theta_min         3.669
_diffrn_source                   synchrotron
_exptl_absorpt_coefficient_mu    2.573
_exptl_absorpt_correction_T_max  1.0000
_exptl_absorpt_correction_T_min  0.9391
_exptl_absorpt_correction_type   multi-scan
_exptl_absorpt_process_details
;
SADABS-2014/2 (Bruker,2014/2) was used for absorption correction.
;
_exptl_crystal_colour            colourless
_exptl_crystal_density_diffrn    2.115
_exptl_crystal_description       block
_exptl_crystal_F_000             404
_exptl_crystal_size_max          0.020
_exptl_crystal_size_mid          0.020
_exptl_crystal_size_min          0.010
_refine_diff_density_max         0.361
_refine_diff_density_min         -0.258
_refine_diff_density_rms         0.065
_refine_ls_extinction_method     none
_refine_ls_goodness_of_fit_ref   1.114
_refine_ls_hydrogen_treatment    refall
_refine_ls_matrix_type           full
_refine_ls_number_parameters     60
_refine_ls_number_reflns         649
_refine_ls_number_restraints     0
_refine_ls_restrained_S_all      1.114
_refine_ls_R_factor_all          0.0182
_refine_ls_R_factor_gt           0.0174
_refine_ls_shift/su_max          0.000
_refine_ls_shift/su_mean         0.000
_refine_ls_structure_factor_coef Fsqd
_refine_ls_weighting_details
'w=1/[\s^2^(Fo^2^)+(0.0189P)^2^+0.7414P] where P=(Fo^2^+2Fc^2^)/3'
_refine_ls_weighting_scheme      calc
_refine_ls_wR_factor_gt          0.0458
_refine_ls_wR_factor_ref         0.0462
_reflns_Friedel_coverage         0.000
_reflns_number_gt                629
_reflns_number_total             649
_reflns_threshold_expression     'I > 2\s(I)'
_cod_data_source_file            c6cp06886c2.cif
_cod_data_source_block           MnMOF
_cod_depositor_comments          'Adding full bibliography for 7227150.cif.'
_cod_database_code               7227150
_shelx_space_group_comment
;
The symmetry employed for this shelxl refinement is uniquely defined
by the following loop, which should always be used as a source of
symmetry information in preference to the above space-group names.
They are only intended as comments.
;
_shelx_estimated_absorpt_t_min   0.952
_shelx_estimated_absorpt_t_max   0.976
_shelxl_version_number           2014-1
_shelx_res_file
;
TITL shelxt_a.res in C2/c
CELL  0.77490  13.4976   7.1793   7.8799   90.000  123.405   90.000
ZERR     4.00   0.0008   0.0004   0.0005    0.000    0.002    0.000
LATT   7
SYMM  - X,   Y, 1/2 - Z
SFAC  C    H    O    MN
DISP    C     0.00399    0.00196         8.55
DISP    H     0.00000    0.00000         0.67
DISP    O     0.01328    0.00733        32.03
DISP    MN    0.35495    0.85629      3739.57
UNIT  16 16 24 4
ACTA
BOND $H
CONF
EQIV $1 -x+1, y, -z+3/2
HTAB O1 O2_$1
EQIV $2 -x+1/2, -y+3/2, -z+1
HTAB O1 O3_$2
TEMP -173
SIZE 0.02 0.02 0.01
MERG   2
FMAP   2
PLAN   5
BOND   $H
LIST  4
L.S.  20
SHEL 999 0.8
WGHT    0.018900    0.741400
FVAR       0.21213
C1    1    0.360043    0.623076    0.949146    11.00000    0.00762    0.00611 =
         0.00605   -0.00061    0.00280    0.00166
C2    1    0.458675    0.629263    1.163517    11.00000    0.00928    0.00820 =
         0.00860    0.00022    0.00594   -0.00120
O1    3    0.397795    0.867055    0.500858    11.00000    0.00795    0.01555 =
         0.00979    0.00450    0.00497    0.00224
O2    3    0.373667    0.715683    0.827211    11.00000    0.00808    0.00975 =
         0.00560    0.00033    0.00296   -0.00073
O3    3    0.271330    0.526684    0.903508    11.00000    0.00834    0.01092 =
         0.00840    0.00203    0.00231   -0.00234
MN1   4    0.250000    0.750000    0.500000    10.50000    0.00498    0.00698 =
         0.00403   -0.00029    0.00178    0.00037
H1A   2    0.464382    0.817593    0.549604    11.00000    0.03828
H1B   2    0.376474    0.913805    0.398442    11.00000    0.03153
HKLF    4

REM  shelxt_a.res in C2/c
REM R1 =  0.0174 for     629 Fo > 4sig(Fo)  and  0.0182 for all     649 data
REM     60 parameters refined using      0 restraints

END

WGHT      0.0189      0.7414

REM Highest difference peak  0.361,  deepest hole -0.258,  1-sigma level  0.065
Q1    1   0.4108  0.6266  1.0629  11.00000  0.05    0.36
Q2    1   0.5305  0.6493  1.2206  11.00000  0.05    0.23
Q3    1   0.3278  0.7049  0.7410  11.00000  0.05    0.20
Q4    1   0.3189  0.5388  0.9172  11.00000  0.05    0.18
Q5    1   0.4908  0.5650  1.2000  11.00000  0.05    0.18
;
_shelx_res_checksum              35324
_shelx_hkl_file
;
  -2   0   0  426.97   18.90
   4   0   0   17.48    0.79
   4   0   0   17.62    0.95
   4   0   0   16.94    0.78
  -4   0   0   18.68    0.97
  -4   0   0   16.03    0.98
   4   0   0   16.04    0.96
   4   0   0   17.24    0.79
  -6   0   0  481.60   21.18
  -6   0   0  466.60   21.19
  -8   0   0  534.00   24.13
  -8   0   0  542.73   24.14
  10   0   0  133.77    6.05
  10   0   0  137.24    6.02
  10   0   0  134.75    6.02
  12   0   0    4.15    0.31
  12   0   0    3.87    0.27
 -12   0   0    3.58    0.94
  12   0   0    3.22    0.25
 -14   0   0   64.23    2.88
  14   0   0   60.95    2.85
  16   0   0   23.24    1.12
 -16   0   0   22.42    1.16
  18   0   0   23.80    1.18
   1  -1   0   29.96    1.35
  -1  -1   0   30.61    1.35
   1  -1   0   29.47    1.35
   1  -1   0   31.19    1.46
   1  -1   0   29.93    1.97
  -1   1   0   30.28    2.01
   1   1   0   33.07    1.37
  -1   1   0   27.66    1.45
  -1   1   0   30.41    1.36
   1   1   0   32.24    1.99
   3  -1   0   15.83    0.72
  -3  -1   0   16.01    0.80
   3  -1   0   15.84    0.92
   3  -1   0   15.15    1.38
   3  -1   0   15.98    0.72
  -3  -1   0   14.23    0.80
  -3   1   0   14.18    1.39
   3   1   0   16.49    0.72
  -3   1   0   15.36    0.92
   3   1   0   16.07    0.71
   3   1   0   16.95    1.35
   3   1   0   15.82    0.74
  -5  -1   0   93.81    4.58
  -5  -1   0  103.81    4.59
   5  -1   0   93.78    4.40
   5  -1   0   96.41    4.41
   5  -1   0   95.71    4.41
   5   1   0   97.29    4.39
  -5   1   0  113.99    5.17
   5   1   0   98.41    4.98
  -5   1   0  103.59    4.73
   5   1   0  103.12    5.05
   5   1   0   96.38    4.40
  -7  -1   0    1.72    0.37
   7  -1   0    1.12    0.15
  -7  -1   0    1.73    0.37
   7  -1   0    1.72    0.14
   7  -1   0    1.67    0.13
  -7   1   0    1.42    0.41
  -7   1   0    1.52    0.42
   7   1   0    1.56    0.13
   7   1   0    1.59    0.16
   7   1   0    1.57    0.12
  -7   1   0    0.24    0.44
  -9  -1   0   -0.05    0.37
   9  -1   0    0.27    0.08
  -9  -1   0    0.53    0.41
   9  -1   0    0.31    0.08
   9  -1   0    0.29    0.09
  -9   1   0    0.70    0.36
   9   1   0    0.28    0.10
   9   1   0    0.28    0.08
  -9   1   0   -0.18    0.42
   9   1   0    0.29    0.07
  11  -1   0   78.45    3.58
 -11  -1   0   83.08    4.17
  11  -1   0   76.78    3.58
  11  -1   0   81.11    3.60
  11   1   0   74.81    3.61
 -11   1   0   87.78    4.25
  11   1   0   78.47    3.57
  13  -1   0    5.78    0.37
 -13  -1   0    6.23    0.40
  13  -1   0    6.11    0.36
  13   1   0    5.81    0.44
  13   1   0    5.86    0.36
  15  -1   0    0.01    0.11
 -15   1   0    0.16    0.14
  15   1   0    0.04    0.11
  17  -1   0    0.34    0.15
 -17   1   0    0.52    0.19
  17   1   0    0.62    0.15
   0   2   0  353.34   16.65
   0   2   0  400.57   18.01
   2  -2   0   40.80    2.10
   2  -2   0   42.96    3.10
   2  -2   0   41.58    1.90
  -2  -2   0   41.53    1.91
   2  -2   0   41.94    1.91
  -2   2   0   39.60    3.21
   2   2   0   41.69    3.06
  -2   2   0   42.50    2.11
   2   2   0   48.93    1.94
  -2   2   0   43.57    1.91
   4  -2   0    0.59    0.08
   4  -2   0    0.60    0.07
  -4  -2   0    0.58    0.13
  -4  -2   0    0.47    0.12
   4  -2   0    0.42    0.20
   4   2   0    0.50    0.07
  -4   2   0    0.59    0.24
   4   2   0    0.67    0.10
  -4   2   0    0.55    0.07
   4   2   0    0.76    0.83
   4   2   0    0.57    0.80
  -4   2   0    0.29    0.83
   6  -2   0   78.68    3.52
  -6  -2   0   76.67    3.68
  -6  -2   0   82.67    3.67
   6  -2   0   80.43    3.51
   6   2   0   80.67    3.49
  -6   2   0   82.55    5.00
   6   2   0   63.15    4.72
  -6   2   0   72.76    4.64
   6   2   0   80.94    3.55
  -6   2   0   83.26    3.92
   6   2   0   79.55    3.51
  -8  -2   0  188.79    8.32
   8  -2   0  179.52    8.02
   8  -2   0  174.46    8.01
  -8  -2   0  180.79    8.31
   8   2   0  176.92    8.01
  -8   2   0  187.19    8.46
   8   2   0  177.43    8.05
  -8   2   0  183.15    8.02
  -8   2   0  178.84    8.48
   8   2   0  182.27    8.96
  10  -2   0   74.90    3.48
 -10  -2   0   72.67    3.47
  10  -2   0   77.41    3.50
 -10  -2   0   85.43    4.03
  10   2   0   74.96    3.48
 -10   2   0   83.91    3.51
  10   2   0   76.17    3.53
 -12  -2   0   25.43    1.23
  12  -2   0   26.07    1.23
  12  -2   0   25.56    1.22
  12   2   0   25.76    1.22
  14  -2   0   57.44    2.59
  14   2   0   55.74    2.65
  14   2   0   56.08    2.58
  16  -2   0   70.10    3.41
 -16   2   0   79.98    3.44
 -18  -2   0   39.35    1.93
 -18   2   0   42.69    1.97
  -1  -3   0   10.01    0.49
  -1  -3   0   10.52    0.47
   1  -3   0   10.61    0.49
   1  -3   0   10.67    0.49
  -1   3   0   10.71    0.51
   1   3   0   10.61    0.60
  -1   3   0   10.18    0.68
   1   3   0   10.09    2.11
   1   3   0   11.39    1.97
  -1   3   0    8.53    1.95
  -1   3   0   10.27    0.71
   1   3   0    9.93    0.58
  -1   3   0   11.35    2.00
  -3  -3   0    1.44    0.12
   3  -3   0    0.97    0.10
   3  -3   0    1.02    0.11
   3   3   0    1.07    0.14
  -3   3   0    1.57    0.33
  -3   3   0    1.35    0.12
   3   3   0    2.54    1.15
  -3   3   0    1.76    1.28
   5  -3   0    2.69    0.19
   5  -3   0    2.60    0.17
  -5  -3   0    2.92    0.19
   5   3   0    2.79    0.22
   5   3   0    2.21    1.17
  -5   3   0    3.18    0.18
  -5   3   0    2.62    1.65
  -5   3   0    2.04    0.46
  -5   3   0    2.50    0.55
  -5   3   0    2.23    1.13
   7  -3   0   66.87    3.04
   7  -3   0   69.97    3.06
  -7  -3   0   65.01    3.01
  -7  -3   0   71.29    3.18
   7   3   0   66.75    3.09
  -7   3   0   65.85    3.45
  -7   3   0   67.19    5.13
   7   3   0   66.30    4.62
  -7   3   0   69.53    3.52
  -7   3   0   72.25    4.93
  -9  -3   0   34.63    1.91
   9  -3   0   36.82    1.65
   9  -3   0   35.18    1.66
  -9  -3   0   40.41    1.67
  -9  -3   0   34.52    1.96
  -9   3   0   31.26    2.18
   9   3   0   30.43    2.88
   9   3   0   35.68    1.70
  -9   3   0   38.44    3.32
  -9   3   0   37.42    4.97
   9   3   0   34.92    1.65
  -9   3   0   37.73    1.66
  11  -3   0   13.69    0.69
  11  -3   0   13.92    0.68
  11   3   0   12.91    0.68
  11   3   0   13.33    0.77
  13  -3   0    9.45    0.54
  13  -3   0    9.54    0.54
  13   3   0   10.27    0.60
 -15  -3   0   22.14    1.10
  15  -3   0   22.33    1.10
  15   3   0   22.31    1.17
 -17  -3   0    1.84    0.23
 -17   3   0    2.75    0.29
 -19  -3   0    2.66    0.31
 -19   3   0    1.83    0.28
   0  -4   0   64.31    2.81
   0  -4   0   61.05    2.80
   0   4   0   60.90    5.20
   0   4   0   64.26    3.03
   0   4   0   60.73    5.12
   0   4   0   64.18    2.84
   0   4   0   62.18    3.00
   2   4   0  551.09   26.98
  -2   4   0  530.25   24.21
  -2   4   0  533.38   26.61
  -2   4   0  535.28   24.18
   2   4   0  563.82   26.70
  -4   4   0  345.11   18.05
  -4   4   0  367.14   15.78
  -4   4   0  353.44   15.80
  -4   4   0  323.72   18.60
  -6  -4   0  127.65    5.85
   6  -4   0  125.89    5.84
   6  -4   0  130.13    5.86
  -6   4   0  132.18    6.28
  -6   4   0  133.32    6.33
  -6   4   0  123.54    8.06
   6   4   0  133.88    5.90
  -6   4   0  130.10    8.96
   6   4   0  151.88    9.09
  -6   4   0  134.28    5.86
   8  -4   0  123.65    5.38
  -8  -4   0  124.66    5.37
   8  -4   0  126.92    5.37
   8   4   0  124.58    5.42
  -8   4   0  125.81    5.90
  -8   4   0  112.45    9.09
  -8   4   0  110.42    7.36
  -8   4   0  108.12    5.88
  -8   4   0  117.23    5.38
  10  -4   0   64.34    2.90
 -10  -4   0   66.39    2.90
  10  -4   0   60.75    2.88
  10   4   0   63.36    2.95
 -12  -4   0   59.31    2.75
  12  -4   0   59.93    2.75
  12  -4   0   59.77    2.75
  12   4   0   62.25    2.82
  14  -4   0   13.67    0.70
 -14  -4   0   12.88    0.69
  14   4   0   13.24    0.77
 -16  -4   0   62.60    2.78
 -16   4   0   57.90    2.78
  16   4   0   60.60    2.86
 -18  -4   0    9.99    0.59
 -18   4   0   10.96    0.63
   1  -5   0    4.22    0.26
  -1  -5   0    5.08    0.27
   1  -5   0    4.42    0.25
  -1   5   0    4.54    0.60
  -1   5   0    4.77    0.30
  -1   5   0    3.30    1.85
   1   5   0    4.53    0.30
   1   5   0    6.24    2.23
   1   5   0    4.77    0.50
  -3  -5   0   23.73    1.11
   3  -5   0   22.36    1.10
   3  -5   0   24.79    1.11
  -3   5   0   25.06    1.50
  -3   5   0   25.54    1.14
   3   5   0   21.61    1.14
  -3   5   0   21.89    3.64
  -3   5   0   24.50    1.54
   5  -5   0    7.83    0.44
  -5  -5   0    8.57    0.44
   5  -5   0    8.07    0.43
  -5   5   0   12.33    2.98
  -5   5   0    6.46    2.74
   5   5   0    7.74    0.48
  -5   5   0    9.00    0.46
  -5   5   0    8.54    0.92
  -7  -5   0    2.26    0.20
   7  -5   0    2.53    0.22
   7  -5   0    2.36    0.19
  -7   5   0    2.52    0.23
  -7   5   0    2.82    3.06
  -7   5   0    2.42    0.57
  -7   5   0    1.98    1.82
  -7   5   0    2.25    0.69
   7   5   0    2.66    0.26
  -9  -5   0   35.49    1.70
   9  -5   0   38.83    1.70
   9  -5   0   36.57    1.71
   9   5   0   36.23    1.76
 -11  -5   0    0.14    0.10
  11  -5   0    0.03    0.11
  11  -5   0    0.07    0.10
  11   5   0    0.06    0.14
  13  -5   0    0.16    0.12
 -13  -5   0    0.14    0.12
  13  -5   0    0.12    0.11
  13   5   0    0.13    0.15
 -15   5   0    1.05    0.22
  15   5   0    1.29    0.26
 -17  -5   0    6.88    0.45
  17   5   0    7.12    0.57
 -17   5   0    7.00    0.48
   0  -6   0   59.31    2.67
   0   6   0   57.09    2.98
   0   6   0   60.54    2.72
   2  -6   0   76.82    3.38
   2  -6   0   79.01    3.39
  -2  -6   0   81.13    3.39
  -2   6   0   75.95    3.43
   2   6   0   74.52    3.52
  -2   6   0   72.59    3.76
  -2   6   0   74.44    3.84
   2   6   0   68.19    3.42
  -4  -6   0   47.99    2.15
   4  -6   0   49.63    2.15
   4  -6   0   47.03    2.15
  -4   6   0   47.65    2.18
   4   6   0   43.53    2.19
   6  -6   0   41.04    1.91
  -6  -6   0   43.84    1.92
   6  -6   0   42.77    1.92
  -6   6   0   37.88    2.54
  -6   6   0   38.38    2.52
   6   6   0   41.38    1.97
  -6   6   0   43.02    1.95
  -8  -6   0   59.30    2.62
   8  -6   0   59.08    2.63
   8   6   0   54.39    2.68
  10  -6   0   50.05    2.35
  10  -6   0   51.04    2.36
  10   6   0   52.71    2.42
  12  -6   0   34.40    1.60
 -12  -6   0   33.08    1.59
  12   6   0   34.00    1.67
 -14   6   0   24.04    1.20
  14   6   0   23.69    1.24
 -16  -6   0   40.32    1.91
 -16   6   0   41.97    1.94
  16   6   0   40.53    2.00
   1  -7   0    1.49    0.17
  -1  -7   0    1.62    0.17
   1   7   0    1.11    0.60
   1   7   0    1.62    0.21
  -1   7   0    1.70    0.23
  -1   7   0    0.55    0.59
  -1   7   0    1.68    0.65
   1   7   0    1.30    0.52
   3  -7   0    6.84    0.39
  -3  -7   0    6.44    0.38
   3  -7   0    6.52    0.38
   3   7   0    6.28    0.44
  -3   7   0    7.00    0.43
  -3   7   0    7.50    1.05
   5  -7   0   25.22    1.22
   5  -7   0   22.44    1.34
  -5  -7   0   26.98    1.22
  -5   7   0   26.47    1.27
   5   7   0   26.18    1.28
   7  -7   0    2.35    0.23
   7  -7   0    2.64    0.24
  -7  -7   0    2.57    0.22
   7   7   0    2.43    0.28
  -9  -7   0   11.70    0.62
   9  -7   0   11.59    0.64
   9  -7   0   11.62    0.63
   9   7   0   12.72    0.70
 -11  -7   0   10.01    0.56
  11  -7   0   10.32    0.57
  11   7   0    9.77    0.62
 -13  -7   0    4.01    0.29
 -13   7   0    3.91    0.34
  13   7   0    2.90    0.44
 -15  -7   0    0.25    0.13
  15   7   0    0.26    0.18
 -15   7   0    0.40    0.16
   0  -8   0  196.81    8.60
   0   8   0  190.32    8.66
  -2  -8   0   35.59    1.67
   2  -8   0   39.31    1.68
  -2   8   0   33.73    1.75
   2   8   0   35.45    1.74
  -4  -8   0   25.45    1.20
   4  -8   0   25.85    1.20
  -4   8   0   24.41    1.26
   4   8   0   24.31    1.26
  -6  -8   0   53.26    2.38
   6  -8   0   50.97    2.38
   6   8   0   51.50    2.45
  -8  -8   0   51.43    2.37
   8  -8   0   51.83    2.38
   8   8   0   52.01    2.44
  10  -8   0   42.99    2.07
 -10  -8   0   43.66    2.05
  10   8   0   46.92    2.14
 -12  -8   0    9.84    0.55
 -12   8   0    9.52    0.58
  12   8   0   10.44    0.65
 -14  -8   0   24.95    1.18
 -14   8   0   24.67    1.21
  14   8   0   23.60    1.26
   1  -9   0    8.67    0.49
  -1  -9   0    8.38    0.48
  -1   9   0    8.49    0.57
   1   9   0    9.19    0.57
   3  -9   0    4.61    0.33
  -3  -9   0    4.46    0.31
   3   9   0    5.06    0.41
  -3   9   0    4.25    0.41
   5  -9   0    0.65    0.15
  -5  -9   0    0.55    0.14
  -5   9   0    1.00    0.20
   5   9   0    0.62    0.19
  -7  -9   0    7.59    0.44
   7  -9   0    7.48    0.46
  -7   9   0    8.39    0.51
   7   9   0    6.90    0.51
   9  -9   0    0.04    0.14
  -9   9   0   -0.02    0.15
 -11  -9   0   13.23    0.69
 -11   9   0   12.78    0.74
  11   9   0   13.55    0.78
 -13  -9   0    1.15    0.19
 -13   9   0    1.07    0.20
  13   9   0    1.40    0.26
   0 -10   0   30.85    1.50
   0  10   0   32.89    1.60
  -2 -10   0   26.26    1.26
   2 -10   0   26.63    1.27
  -2  10   0   26.69    1.37
   2  10   0   25.74    1.34
  -4 -10   0   40.43    1.95
   4 -10   0   45.62    1.98
   4  10   0   40.51    2.04
   6 -10   0   34.36    1.85
   6  10   0   45.90    2.20
  -8 -10   0   17.05    0.85
  -8  10   0   14.97    0.92
   8  10   0   17.71    0.93
 -10 -10   0   20.42    1.00
 -10  10   0   19.86    1.04
  10  10   0   19.99    1.07
 -12 -10   0   26.32    1.22
  12  10   0   24.41    1.30
 -12  10   0   24.87    1.27
   1 -11   0    2.64    0.27
  -1 -11   0    2.75    0.28
  -1  11   0    3.99    0.47
  -3 -11   0    0.37    0.14
   3 -11   0    0.15    0.15
   3  11   0    0.35    0.22
   5 -11   0    0.43    0.16
  -5 -11   0    0.36    0.14
   5  11   0    0.35    0.18
  -7 -11   0    2.44    0.25
   7  11   0    2.60    0.35
  -9 -11   0    0.73    0.16
   9  11   0    0.75    0.21
   0 -12   0    1.07    0.17
  -2 -12   0   20.54    1.05
   2 -12   0   21.69    1.07
   2  12   0   21.70    1.17
   4 -12   0   40.81    1.89
  -4 -12   0   38.34    1.86
   4  12   0   40.37    1.96
  -6 -12   0   14.16    0.72
   6  12   0   12.74    0.81
  20   0  -1   -0.03    0.15
  18   0  -1   -0.01    0.11
  16   0  -1    0.07    0.10
 -16   0   1   -0.01    0.15
  14   0  -1    0.00    0.09
 -14   0   1   -0.05    0.11
 -12   0   1    0.34    0.11
  12   0  -1   -0.10    0.09
  12   0  -1    0.08    0.08
  10   0  -1    0.02    0.07
 -10   0   1   -0.32    0.42
  10   0  -1    0.16    0.08
  -8   0   1   -0.34    0.28
   8   0  -1    0.04    0.06
   8   0  -1    0.13    0.30
   8   0  -1    0.01    0.05
  -8   0   1    0.46    0.51
   8   0  -1   -0.01    0.05
   8   0  -1   -0.46    0.51
   6   0  -1    0.06    0.04
   6   0  -1   -0.03    0.05
   6   0  -1    0.10    0.05
   6   0  -1   -0.05    0.21
  -6   0   1   -0.18    0.36
  -6   0   1    0.23    0.23
   6   0  -1    0.78    0.56
   4   0  -1    0.18    0.17
   4   0  -1    0.01    0.04
   4   0  -1   -0.26    0.35
   4   0  -1    0.00    0.03
  -4   0   1   -0.23    0.36
  -4   0   1   -0.05    0.15
  -4   0   1   -0.02    0.04
   2   0  -1    0.02    0.09
  -2   0   1    0.09    0.11
   2   0  -1    0.02    0.02
   2   0  -1   -0.44    0.34
  -2   0   1    0.05    0.03
  -2   0   1    0.21    0.39
   0   0   1   -0.01    0.03
   0   0   1    0.00    0.02
   0   0  -1   -0.08    0.40
   0   0   1    0.12    0.08
   0   0  -1    0.00    0.01
   0   0  -1    0.05    0.08
   2   0   1   -0.09    0.13
  -2   0  -1    0.15    0.31
   2   0   1    0.03    0.05
   2   0   1    0.48    0.26
  -2   0  -1    0.17    0.13
   4   0   1    0.03    0.04
  -4   0  -1   -0.47    0.17
  -4   0  -1    0.04    0.19
   4   0   1   -0.02    0.04
   4   0   1    0.01    0.05
  -6   0  -1    0.27    0.30
  -6   0  -1    0.32    0.28
   8   0   1    0.03    0.06
   8   0   1    0.05    0.06
  -8   0  -1    0.17    0.41
   8   0   1    0.03    0.08
  -8   0  -1   -0.16    0.38
  10   0   1   -0.11    0.09
  10   0   1   -0.10    0.07
  10   0   1    0.03    0.07
  12   0   1    0.05    0.09
  12   0   1    0.10    0.09
  12   0   1    0.00    0.12
  14   0   1   -0.01    0.11
  16   0   1    0.05    0.15
  19  -1  -1   42.62    2.07
  19   1  -1   45.55    2.08
 -19   1   1   45.25    2.13
  17  -1  -1   21.46    1.04
  17   1  -1   20.98    1.04
 -17   1   1   20.74    1.08
  15  -1  -1   16.89    0.85
 -15  -1   1   16.54    0.89
  15   1  -1   17.34    0.85
 -15   1   1   16.95    0.87
 -13  -1   1  152.56    7.10
 -13  -1   1  165.72    7.78
 -13  -1   1  160.62    7.71
  13  -1  -1  167.10    7.10
  13   1  -1  159.19    7.14
 -13   1   1  164.43    7.12
  13   1  -1  147.60    7.09
  11  -1  -1   97.25    4.50
 -11  -1   1  100.96    5.05
  11  -1  -1  102.50    4.50
 -11  -1   1   97.09    4.49
  11   1  -1  102.91    4.50
 -11   1   1  100.00    5.04
 -11   1   1  103.66    5.00
  11   1  -1  100.61    4.53
  -9  -1   1   90.00    4.32
   9  -1  -1   82.21    4.75
  -9  -1   1   87.96    4.78
   9  -1  -1   90.67    3.94
  -9  -1   1   84.03    3.93
   9  -1  -1   91.79    3.95
   9   1  -1   85.44    3.94
   9   1  -1   90.34    3.97
  -9   1   1   91.24    4.96
   7  -1  -1  123.81    5.48
   7  -1  -1  127.28    5.82
   7  -1  -1  127.61    5.48
  -7  -1   1  127.13    5.75
  -7  -1   1  116.70    5.47
  -7  -1   1  115.88    6.92
   7  -1  -1  116.67    6.48
  -7   1   1  129.05    5.85
   7   1  -1  126.28    5.73
   7   1  -1  117.25    6.46
   7   1  -1  124.37    5.48
   7   1  -1  126.03    5.49
   5  -1  -1  172.27    7.79
  -5  -1   1  167.84    7.68
   5  -1  -1  170.57    8.59
  -5  -1   1  170.57    8.52
  -5   1   1  173.71    7.79
   5   1  -1  175.03    8.57
  -5   1   1  153.24    8.49
   5   1  -1  176.97    7.69
   3  -1  -1  750.43   35.49
  -3  -1   1  815.25   35.54
   3   1  -1  806.79   35.53
  -3   1   1  762.32   35.50
  -1  -1   1  334.17   15.21
   1  -1  -1  324.76   14.38
   1  -1  -1  322.77   15.22
  -1  -1   1  306.66   14.37
  -1   1   1  344.81   15.29
  -1   1   1  316.43   14.38
   1   1  -1  319.68   14.37
   1   1  -1  326.32   15.21
  -1  -1  -1  120.59    4.98
   1  -1   1  108.03    5.04
  -1  -1  -1  110.95    5.73
  -1   1  -1  110.86    5.05
  -1   1  -1  105.07    5.67
   1   1   1  106.28    4.96
   3  -1   1   19.82    0.91
   3  -1   1   21.77    0.93
   3  -1   1   21.24    0.94
  -3  -1  -1   20.19    1.57
  -3  -1  -1   20.80    1.07
   3   1   1   18.51    1.56
   3   1   1   20.13    0.95
  -3   1  -1   21.06    1.17
  -3   1  -1   17.91    1.51
  -3   1  -1   20.86    1.62
   3   1   1   20.21    0.91
   3   1   1   19.65    1.06
  -3   1  -1   18.90    1.13
   3   1   1   20.14    0.92
  -5  -1  -1  440.96   19.10
  -5  -1  -1  421.45   19.07
  -5   1  -1  389.57   19.22
  -5   1  -1  446.92   19.29
   5   1   1  459.01   19.20
  -5   1  -1  429.11   19.15
  -5   1  -1  403.03   19.17
  -7  -1  -1  337.61   15.57
  -7   1  -1  337.59   15.58
  -7   1  -1  357.46   15.68
   9  -1   1    0.78    0.12
   9  -1   1    0.99    0.15
   9  -1   1    0.85    0.12
  -9  -1  -1    0.49    0.53
  -9   1  -1    0.32    0.43
  -9   1  -1    0.22    0.50
   9   1   1    1.03    0.13
   9   1   1    1.04    0.16
   9   1   1    0.97    0.12
  11  -1   1   29.40    1.45
  11  -1   1   30.36    1.49
 -11  -1  -1   34.85    2.15
 -11  -1  -1   29.08    2.17
  11  -1   1   30.64    1.46
  11   1   1   32.05    1.46
  11   1   1   32.46    1.51
  13  -1   1  122.03    5.04
  13  -1   1  108.27    5.04
  13   1   1  104.79    5.09
  13   1   1  113.92    5.04
  15  -1   1   66.94    3.13
  15   1   1   70.19    3.13
 -17  -1  -1    4.05    0.40
 -17   1  -1    4.41    0.44
 -20  -2   1    0.14    0.16
 -18   2   1    1.68    0.25
  18   2  -1    2.12    0.23
  16  -2  -1    7.48    0.46
 -16   2   1    7.87    0.50
  16   2  -1    8.18    0.47
  14  -2  -1    4.68    0.31
  14   2  -1    4.85    0.38
  14   2  -1    4.74    0.31
 -14   2   1    4.54    0.34
 -12  -2   1   -0.11    0.09
  12  -2  -1   -0.05    0.09
 -12  -2   1    0.43    0.59
 -12  -2   1    0.61    0.73
  12   2  -1    0.21    0.09
  12   2  -1    0.05    0.11
 -10  -2   1   17.23    1.28
  10  -2  -1   17.36    0.86
 -10  -2   1   17.15    0.84
  10  -2  -1   19.00    0.85
 -10   2   1   16.75    1.31
 -10   2   1   15.35    1.88
  10   2  -1   18.65    0.89
  10   2  -1   16.60    0.85
 -10   2   1   18.45    0.84
   8  -2  -1   52.64    2.86
  -8  -2   1   51.33    3.74
   8  -2  -1   53.38    2.43
  -8  -2   1   53.13    2.41
  -8  -2   1   52.60    2.69
   8  -2  -1   53.11    2.43
  -8   2   1   55.01    3.78
  -8   2   1   54.39    2.88
  -8   2   1   55.96    2.41
   8   2  -1   56.90    2.47
   8   2  -1   53.58    2.43
   6  -2  -1   34.59    1.96
   6  -2  -1   34.44    3.03
  -6  -2   1   31.39    3.00
  -6  -2   1   35.28    1.77
  -6  -2   1   36.60    1.59
   6  -2  -1   36.13    1.61
   6  -2  -1   34.80    1.61
  -6  -2   1   31.39    3.00
  -6   2   1   35.91    3.12
  -6   2   1   34.63    1.96
  -6   2   1   35.40    1.59
   6   2  -1   39.39    1.78
   6   2  -1   34.72    3.01
   6   2  -1   35.87    1.64
   6   2  -1   36.36    1.61
  -4  -2   1  131.72    7.50
   4  -2  -1  141.20    7.50
   4  -2  -1  148.23    6.31
  -4  -2   1  131.79    6.08
   4   2  -1  129.15    6.03
   4   2  -1  131.23    6.08
   4   2  -1  147.89    7.56
  -4   2   1  134.28    7.51
  -4   2   1  130.74    6.27
  -2  -2   1  893.89   39.69
   2  -2  -1  901.29   39.70
  -2   2   1  883.85   39.71
   2   2  -1  890.18   39.63
  -2   2   1  763.33   38.26
   0  -2  -1    3.89    1.27
   0  -2   1    5.11    0.25
   0  -2   1    4.29    1.09
   0  -2   1    4.69    0.41
   0  -2   1    4.89    0.25
   0  -2  -1    5.17    0.26
   0  -2  -1    4.52    0.36
   0   2   1    5.52    0.37
   0   2   1    5.39    0.25
   0   2  -1    4.98    0.27
   0   2  -1    6.07    0.44
   0   2   1    5.42    0.27
   0   2  -1    4.93    1.36
   0   2   1    4.96    1.25
  -2  -2  -1  160.47    7.98
   2  -2   1  147.03    6.47
  -2  -2  -1  150.23    6.55
   2  -2   1  140.54    6.49
  -2   2  -1  135.24    6.49
  -2   2  -1  154.33    7.96
  -2   2  -1  149.10    6.75
  -2   2  -1  149.27    6.73
   2   2   1  139.49    6.54
   4  -2   1    2.18    0.16
  -4  -2  -1    2.22    0.30
  -4  -2  -1    2.19    0.30
   4  -2   1    2.43    0.14
  -4  -2  -1    2.10    0.15
  -4   2  -1    2.40    0.99
   4   2   1    1.56    0.85
  -4   2  -1    2.47    0.44
  -4   2  -1    1.88    0.43
  -4   2  -1    1.82    0.17
   4   2   1    2.32    0.18
  -4   2  -1    2.03    1.12
   4   2   1    2.37    0.13
   6  -2   1   24.87    1.11
   6  -2   1   24.86    1.09
  -6  -2  -1   24.08    1.37
  -6   2  -1   23.93    1.49
  -6   2  -1   23.97    1.52
   6   2   1   24.39    2.05
   6   2   1   23.42    1.10
  -6   2  -1   23.42    2.14
  -6   2  -1   23.28    2.14
   6   2   1   23.58    1.14
  -6   2  -1   20.90    1.11
   6   2   1   24.52    1.08
  -8  -2  -1    6.87    0.79
   8  -2   1    5.62    0.33
   8  -2   1    5.63    0.32
  -8   2  -1    6.06    0.86
   8   2   1    6.07    0.31
   8   2   1    6.02    0.33
   8   2   1    5.61    0.37
  -8   2  -1    4.77    0.34
 -10  -2  -1   25.19    1.69
  10  -2   1   23.71    1.13
 -10  -2  -1   24.93    1.79
  10  -2   1   24.38    1.12
  10   2   1   24.25    1.17
 -10   2  -1   19.97    1.15
  10   2   1   24.38    1.12
  10   2   1   24.32    1.11
  12  -2   1    0.20    0.12
  12  -2   1    0.13    0.11
  12   2   1    0.22    0.11
  12   2   1    0.38    0.15
  14  -2   1    5.30    0.37
  14  -2   1    5.25    0.37
  14   2   1    5.42    0.43
 -16  -2  -1   -0.15    0.16
 -18  -2  -1    4.61    0.49
 -19  -3   1   35.36    1.69
 -19   3   1   36.06    1.73
  17  -3  -1   41.81    1.96
 -17   3   1   41.89    1.97
  15  -3  -1   17.57    0.86
  15   3  -1   15.76    0.92
  15   3  -1   17.08    0.85
 -15   3   1   17.16    0.88
  13  -3  -1    3.71    0.27
  13   3  -1    3.89    0.27
  13   3  -1    3.31    0.32
 -11  -3   1  166.84    7.79
  11  -3  -1  172.95    7.43
  11  -3  -1  163.92    7.44
  11   3  -1  157.74    7.42
  11   3  -1  174.00    7.49
   9  -3  -1  165.06    7.53
  -9  -3   1  178.11    7.50
   9  -3  -1  171.60    7.54
  -9  -3   1  188.66    7.78
  -9   3   1  175.96    8.08
  -9   3   1  148.08    9.26
   9   3  -1  168.50    7.53
   9   3  -1  158.11    7.57
   7  -3  -1   22.85    1.06
   7  -3  -1   23.03    1.46
  -7  -3   1   23.03    1.16
  -7  -3   1   22.77    1.02
   7  -3  -1   23.06    1.07
   7  -3  -1   19.45    2.62
  -7  -3   1   22.05    1.17
   7   3  -1   23.64    1.11
   7   3  -1   22.34    1.06
  -7   3   1   23.54    2.75
  -7   3   1   20.44    1.43
  -7   3   1   24.03    1.04
  -5  -3   1  175.69    7.81
  -5  -3   1  180.76    7.80
   5  -3  -1  182.22    8.15
   5  -3  -1  176.37    9.77
  -5  -3   1  164.96    9.72
   5  -3  -1  171.58    7.79
   5   3  -1  170.31    9.77
  -5   3   1  186.31   10.06
   5   3  -1  172.66    7.82
  -5   3   1  179.59    8.17
   3  -3  -1  516.05   22.27
   3  -3  -1  481.10   24.03
  -3  -3   1  491.75   24.05
  -3   3   1  509.76   22.27
  -3   3   1  487.93   24.19
   3   3  -1  502.76   24.08
   1  -3  -1  512.34   23.98
   1  -3  -1  552.18   26.05
  -1  -3   1  540.16   25.98
  -1   3   1  527.16   23.99
   1   3  -1  518.29   23.96
  -1   3   1  550.57   26.09
   1   3  -1  590.25   26.13
  -1  -3  -1   99.13    4.37
  -1  -3  -1  104.05    4.46
  -1  -3  -1   91.21    6.25
   1  -3   1   96.59    4.36
   1   3   1   95.42    4.40
   1   3   1   98.51    4.45
  -1   3  -1   97.85    6.25
  -1   3  -1   97.65    4.64
   1   3   1  102.81    6.48
  -1   3  -1  101.09    4.62
  -3  -3  -1  359.28   16.13
  -3   3  -1  365.81   16.48
  -3   3  -1  358.41   16.43
  -3   3  -1  374.62   18.15
   3   3   1  370.65   17.94
  -5  -3  -1  299.64   13.55
  -5  -3  -1  294.95   13.55
  -5   3  -1  315.47   13.94
  -5   3  -1  314.84   15.28
  -5   3  -1  308.12   13.86
  -5   3  -1  297.62   15.74
   7  -3   1   90.01    3.93
   7  -3   1   88.46    3.95
  -7  -3  -1   85.52    3.94
  -7  -3  -1   86.20    4.15
  -7   3  -1   74.33    5.44
   7   3   1   88.90    3.99
  -7   3  -1   86.48    6.12
  -7   3  -1  100.46    3.97
  -7   3  -1   84.39    4.38
  -7   3  -1   89.28    4.48
   9  -3   1  134.69    6.26
   9  -3   1  135.30    6.28
  -9  -3  -1  137.93    6.27
  -9  -3  -1  148.10    6.66
   9   3   1  140.32    6.32
  -9   3  -1  148.62    6.30
  11  -3   1   69.55    3.03
 -11  -3  -1   70.32    3.04
  11  -3   1   66.96    3.04
  11   3   1   60.27    3.07
  13  -3   1   52.87    2.51
 -13  -3  -1   56.66    2.51
  13  -3   1   54.04    2.51
  13   3   1   54.51    2.57
 -15  -3  -1   26.58    1.29
  15   3   1   26.53    1.36
 -17  -3  -1   26.40    1.27
 -17   3  -1   24.88    1.28
 -20  -4   1    0.57    0.24
 -20   4   1    0.39    0.25
 -18  -4   1    0.07    0.13
  18  -4  -1    0.55    0.21
 -18   4   1    0.10    0.16
 -16  -4   1    1.35    0.20
  16  -4  -1    1.18    0.18
 -16   4   1    1.48    0.21
  16   4  -1    1.91    0.29
 -14  -4   1    3.75    0.29
  14  -4  -1    4.04    0.29
 -14   4   1    3.99    0.31
  14   4  -1    3.44    0.34
  12  -4  -1   11.47    0.63
 -12  -4   1   11.84    0.64
  12   4  -1   13.78    0.72
  10  -4  -1    0.38    0.10
  10  -4  -1    0.49    0.11
 -10  -4   1    0.33    0.11
  10   4  -1    0.23    0.12
   8  -4  -1    0.72    0.11
  -8  -4   1    0.82    0.12
   8  -4  -1    0.69    0.12
  -8   4   1    0.54    0.38
   8   4  -1    0.61    0.14
  -8   4   1    1.28    1.38
   6  -4  -1   26.30    1.22
   6  -4  -1   25.72    1.23
   6  -4  -1   27.14    1.66
  -6  -4   1   27.42    1.23
  -6   4   1   24.96    1.21
  -6   4   1   32.34    4.14
  -6   4   1   24.31    1.66
   6   4  -1   28.29    1.28
   4  -4  -1   78.06    3.67
   4  -4  -1   75.52    3.29
   4  -4  -1   72.75    3.29
  -4  -4   1   74.49    3.29
   4  -4  -1   78.17    5.69
  -4   4   1   66.32    3.77
   4   4  -1   64.91    6.41
  -4   4   1   74.58    3.29
   4   4  -1   76.76    5.94
  -4   4   1   73.60    6.07
   4   4  -1   71.53    3.32
   2  -4  -1   -0.48    1.20
  -2  -4   1    0.82    0.10
  -2  -4   1    0.70    0.07
   2  -4  -1    0.58    0.26
   2  -4  -1    0.83    0.10
  -2   4   1    0.89    0.10
   2   4  -1    0.20    1.12
   2   4  -1    0.79    1.29
   2   4  -1    0.68    0.12
  -2   4   1    1.27    0.33
  -2   4   1    2.29    1.82
   2   4  -1    0.72    0.24
  -2   4   1    0.77    0.11
   0  -4  -1    2.58    0.17
   0  -4   1    2.54    0.16
   0  -4  -1    2.19    0.32
   0  -4   1    2.47    0.16
   0   4  -1    2.76    0.20
   0   4  -1    2.30    1.43
   0   4   1    2.37    0.35
   0   4  -1    3.32    0.45
   0   4   1    2.43    0.19
   0   4   1    2.32    0.15
   0   4  -1    2.52    0.40
   2  -4   1   17.49    0.81
   2  -4   1   18.08    0.82
  -2  -4  -1   17.74    0.82
   2   4   1   15.99    2.63
  -2   4  -1   16.56    0.84
   2   4   1   17.77    0.86
  -2   4  -1   17.42    1.13
  -2   4  -1   16.87    1.18
  -4  -4  -1    9.48    0.48
   4  -4   1   10.09    0.48
   4  -4   1    9.61    0.49
  -4   4  -1    9.20    2.89
  -4   4  -1    9.25    0.50
   4   4   1    8.93    0.53
  -4   4  -1   10.53    0.91
  -4   4  -1    9.90    0.96
  -4   4  -1   11.53    2.53
   6  -4   1    4.03    0.25
  -6  -4  -1    3.99    0.26
   6  -4   1    4.15    0.27
  -6   4  -1    3.90    0.27
  -6   4  -1    5.12    0.80
  -6   4  -1    5.17    1.96
  -6   4  -1    5.03    0.70
   6   4   1    4.12    0.31
  -6   4  -1    6.27    2.45
   8  -4   1    8.03    0.47
  -8  -4  -1    9.27    0.47
   8  -4   1    8.33    0.45
  -8   4  -1    9.90    0.50
   8   4   1    7.03    0.53
  -8   4  -1    6.81    2.60
 -10  -4  -1    0.13    0.10
  10  -4   1    0.28    0.11
  10  -4   1    0.06    0.10
  10   4   1    0.11    0.13
  12  -4   1    0.11    0.11
 -12  -4  -1   -0.03    0.10
  12  -4   1    0.14    0.12
  12   4   1   -0.15    0.13
  14  -4   1    2.36    0.26
 -14  -4  -1    2.21    0.24
  14   4   1    2.55    0.33
 -16  -4  -1    3.45    0.32
  16   4   1    3.51    0.40
 -16   4  -1    3.42    0.34
 -18  -4  -1    0.99    0.23
 -18   4  -1    0.34    0.19
 -19  -5   1   44.55    2.14
 -19   5   1   47.66    2.18
 -17  -5   1   64.45    2.90
 -17   5   1   62.55    2.92
 -15  -5   1   40.53    1.91
  15  -5  -1   40.42    1.92
 -15   5   1   42.80    1.94
  15   5  -1   40.70    2.00
  13  -5  -1    8.12    0.46
 -13  -5   1    7.72    0.46
  13   5  -1    8.46    0.54
 -13   5   1    7.23    0.47
 -11  -5   1  147.52    6.42
  11  -5  -1  143.24    6.42
  11   5  -1  140.66    6.48
   9  -5  -1  123.97    5.66
   9  -5  -1  125.81    5.66
  -9  -5   1  129.83    5.66
   9   5  -1  127.58    5.72
   7  -5  -1   24.13    1.12
  -7  -5   1   23.03    1.11
   7  -5  -1   23.39    1.11
  -7   5   1   18.76    3.42
   7   5  -1   25.39    1.17
  -7   5   1   20.97    1.66
   5  -5  -1   87.74    4.19
   5  -5  -1   86.60    3.73
   5  -5  -1   85.57    3.74
  -5  -5   1   84.19    3.73
  -5   5   1   85.26    3.74
  -5   5   1   88.06    6.85
  -5   5   1   77.61    4.18
   5   5  -1   82.30    6.46
   5   5  -1   75.00    3.77
  -3  -5   1  122.43    5.36
   3  -5  -1  122.34    5.39
   3  -5  -1  126.52    5.78
  -3  -5   1  112.82    5.39
   3   5  -1  125.08    5.44
  -3   5   1  126.39    5.42
   3   5  -1  127.89    5.54
  -3   5   1  106.15    5.78
   3   5  -1  120.20    8.88
  -1  -5   1  112.36    5.14
  -1  -5   1  117.48    5.15
   1  -5  -1  117.98    5.16
  -1   5   1  116.80    5.15
   1   5  -1  119.65    5.47
  -1   5   1  112.53    5.18
   1   5  -1  112.07    5.19
  -1   5   1  119.44    5.47
   1  -5   1   10.96    0.57
   1  -5   1   11.79    0.57
  -1  -5  -1   12.44    0.58
   1   5   1   11.38    0.73
   1   5   1   11.93    0.62
  -1   5  -1   11.79    0.62
  -1   5  -1   11.48    0.93
  -1   5  -1    7.61    2.43
   1   5   1   12.55    0.55
   3  -5   1   99.79    4.54
  -3  -5  -1  104.57    4.55
   3  -5   1  100.42    4.55
   3   5   1  102.62    4.59
  -3   5  -1   97.96    4.57
  -3   5  -1  106.38    4.99
  -3   5  -1   99.49    7.42
  -3   5  -1  103.88    5.04
   5  -5   1   56.78    2.49
  -5  -5  -1   55.71    2.50
   5  -5   1   54.08    2.50
  -5   5  -1   56.61    3.06
   5   5   1   60.15    2.56
  -5   5  -1   51.42    2.53
  -5   5  -1   46.10    4.86
   7  -5   1    6.22    0.38
   7  -5   1    6.07    0.37
  -7   5  -1    7.82    0.43
   7   5   1    6.07    0.43
   9  -5   1   74.77    3.34
  -9  -5  -1   73.59    3.34
   9  -5   1   72.24    3.33
   9   5   1   74.54    3.40
 -11  -5  -1   30.02    1.46
  11  -5   1   31.88    1.47
  11  -5   1   31.61    1.47
  11   5   1   29.97    1.53
  13  -5   1   20.03    0.98
 -13  -5  -1   19.04    0.97
  13   5   1   19.44    1.05
 -15  -5  -1   13.15    0.72
  15   5   1   13.95    0.81
 -17  -5  -1   26.82    1.34
 -17   5  -1   28.52    1.37
  18   6  -1    5.89    0.62
 -18   6   1    7.73    0.49
 -16  -6   1    1.38    0.19
  16  -6  -1    1.40    0.21
 -16   6   1    1.29    0.20
  16   6  -1    1.13    0.24
  14  -6  -1    3.91    0.34
 -14  -6   1    4.15    0.31
  14   6  -1    3.74    0.37
 -14   6   1    4.40    0.35
  12  -6  -1    0.97    0.16
 -12  -6   1    1.12    0.17
 -12   6   1    0.96    0.18
  12   6  -1    1.12    0.21
  10  -6  -1    6.05    0.36
 -10  -6   1    5.53    0.36
  10   6  -1    5.90    0.44
  -8  -6   1   12.85    0.63
   8  -6  -1   12.41    0.63
   8   6  -1   11.30    0.68
   6  -6  -1   21.39    1.05
  -6  -6   1   22.06    1.05
   6   6  -1   23.09    1.12
  -6   6   1   21.96    1.07
  -6   6   1   21.35    1.65
   4  -6  -1   13.54    0.72
  -4  -6   1   15.17    0.73
  -4   6   1   14.55    1.26
   4   6  -1   15.70    0.79
  -4   6   1   15.06    0.76
  -2  -6   1   22.63    1.05
  -2  -6   1   21.33    1.02
   2  -6  -1   22.96    1.04
  -2   6   1   21.79    1.04
   2   6  -1   22.79    1.37
  -2   6   1   23.04    1.43
   2   6  -1   21.68    1.09
  -2   6   1   21.42    1.07
   2   6  -1   19.25    3.88
  -2   6   1   22.66    4.39
  -2   6   1   23.23    1.53
   0  -6   1   50.57    2.30
   0  -6  -1   50.01    2.31
   0  -6   1   50.75    2.30
   0   6  -1   50.43    2.35
   0   6  -1   44.74    6.88
   0   6   1   53.24    2.36
   0   6   1   72.86    9.70
   0   6   1   50.37    2.29
   0   6  -1   50.01    2.67
  -2  -6  -1   15.36    0.79
   2  -6   1   16.97    0.79
   2  -6   1   15.99    0.79
  -2   6  -1   17.04    0.84
   2   6   1   16.34    0.85
  -2   6  -1   16.96    1.35
  -4  -6  -1    9.68    0.48
   4  -6   1    8.50    0.48
   4  -6   1    8.70    0.46
  -4   6  -1   10.62    1.12
  -4   6  -1   12.07    3.11
   4   6   1    9.10    0.53
  -4   6  -1    8.08    0.51
  -6  -6  -1    1.92    0.19
   6  -6   1    1.98    0.19
   6  -6   1    1.85    0.20
  -6   6  -1    2.29    0.26
   6   6   1    1.89    0.24
  -8  -6  -1    0.05    0.10
   8  -6   1    0.04    0.10
   8   6   1    0.03    0.12
 -10  -6  -1    0.24    0.12
  10  -6   1    0.18    0.12
  10  -6   1    0.11    0.13
  10   6   1    0.33    0.17
 -12  -6  -1   22.23    1.09
  12  -6   1   22.61    1.10
  12   6   1   22.29    1.17
 -14  -6  -1    0.52    0.15
  14   6   1    0.48    0.18
 -16  -6  -1    0.16    0.15
  16   6   1   -0.03    0.18
 -16   6  -1    0.18    0.17
 -17  -7   1    4.37    0.34
 -17   7   1    3.95    0.37
 -15  -7   1    9.70    0.56
  15  -7  -1   10.24    0.60
  15   7  -1   10.17    0.65
 -15   7   1   10.08    0.59
  13  -7  -1   52.40    2.45
 -13  -7   1   54.63    2.45
  13   7  -1   53.46    2.52
 -13   7   1   52.25    2.47
  11  -7  -1   18.67    0.93
 -11  -7   1   18.15    0.92
  11   7  -1   19.17    1.00
 -11   7   1   18.55    0.95
   9  -7  -1   21.17    1.00
  -9  -7   1   19.89    0.99
   9   7  -1   19.94    1.06
  -9   7   1   20.19    1.02
  -7  -7   1   64.67    2.99
   7  -7  -1   66.68    2.99
  -7   7   1   67.14    3.01
   7   7  -1   65.52    3.06
   5  -7  -1   80.92    3.71
  -5  -7   1   80.22    3.71
  -5   7   1   84.20    3.75
   5   7  -1   81.00    3.77
  -5   7   1   89.74    3.73
  -5   7   1   76.78    4.32
  -3  -7   1  126.18    5.83
  -3   7   1  140.66    5.84
   3   7  -1  116.43    5.91
  -3   7   1  141.25    6.37
  -3   7   1  130.73    5.87
  -1  -7   1   78.43    3.75
  -1  -7   1   81.60    3.74
  -1   7   1   84.60    3.81
   1   7  -1   88.94    4.26
   1   7  -1   84.54    4.25
   1   7  -1   84.98    3.81
   1  -7   1  115.29    5.15
   1  -7   1  114.15    5.15
  -1  -7  -1  118.41    5.16
   1   7   1  114.86    5.21
  -1   7  -1  117.02    5.21
  -1   7  -1  111.85    5.62
   3  -7   1   94.24    4.12
  -3  -7  -1   87.93    4.11
   3  -7   1   96.75    4.12
   3   7   1   88.22    4.17
  -3   7  -1   86.62    4.74
  -3   7  -1   94.82    4.17
   5  -7   1  129.49    5.73
   5  -7   1  130.07    5.74
  -5  -7  -1  128.05    5.72
  -5   7  -1  129.02    5.77
   5   7   1  124.06    5.78
   7  -7   1  120.06    5.38
  -7  -7  -1  119.41    5.37
   7  -7   1  122.80    5.39
   7   7   1  118.25    5.44
  -9  -7  -1   24.22    1.14
   9  -7   1   23.49    1.15
   9  -7   1   23.75    1.15
   9   7   1   22.41    1.20
  11  -7   1   43.22    2.03
 -11  -7  -1   42.38    2.02
  11   7   1   44.92    2.10
 -13  -7  -1   50.63    2.23
  13   7   1   45.51    2.29
  15   7   1   37.33    1.82
 -15   7  -1   36.28    1.75
 -16  -8   1   -0.07    0.12
 -16   8   1    0.32    0.17
  16   8  -1   -0.09    0.18
 -14  -8   1    4.07    0.33
  14   8  -1    4.37    0.42
 -14   8   1    4.12    0.35
  12  -8  -1    6.34    0.42
 -12   8   1    5.59    0.42
 -10  -8   1    0.25    0.12
  10  -8  -1    0.26    0.13
 -10   8   1    0.44    0.17
  10   8  -1    0.03    0.14
   8  -8  -1    1.13    0.17
  -8  -8   1    0.88    0.15
   8   8  -1    0.85    0.20
  -8   8   1    0.69    0.17
  -6  -8   1   10.17    0.58
   6  -8  -1   11.45    0.59
   6   8  -1   10.89    0.66
  -6   8   1   11.62    0.62
   4  -8  -1   12.26    0.66
  -4  -8   1   14.07    0.66
  -4   8   1   12.22    0.73
  -4   8   1   13.52    0.69
   4   8  -1   12.10    0.72
  -2  -8   1    3.14    0.24
   2  -8  -1    3.08    0.24
   2   8  -1    2.78    0.29
   0  -8   1    2.06    0.20
   0  -8  -1    2.02    0.20
   0   8   1    1.85    0.27
   0   8  -1    1.96    0.27
   2  -8   1    2.66    0.25
   2  -8   1    2.68    0.22
  -2  -8  -1    2.55    0.22
  -2   8  -1    2.49    0.30
   2   8   1    2.39    0.30
   4  -8   1    9.01    0.52
   4  -8   1    8.95    0.50
  -4  -8  -1    9.25    0.50
  -4   8  -1    9.41    0.58
   4   8   1    8.42    0.56
  -6  -8  -1    1.28    0.16
   6  -8   1    1.26    0.18
   6  -8   1    0.84    0.16
   6   8   1    1.20    0.22
  -8  -8  -1    9.98    0.54
   8  -8   1    9.40    0.56
   8   8   1    9.76    0.62
 -10  -8  -1    0.69    0.20
  10  -8   1    0.63    0.16
  10   8   1    0.75    0.30
 -12  -8  -1    1.51    0.20
  12   8   1    1.76    0.27
 -14  -8  -1    5.05    0.36
  14   8   1    4.34    0.45
 -14   8  -1    4.52    0.39
 -15  -9   1   29.73    1.37
  15   9  -1   28.86    1.46
 -15   9   1   27.30    1.40
 -13  -9   1   82.63    3.78
  13   9  -1   82.35    3.86
 -13   9   1   86.04    3.82
 -11  -9   1   12.04    0.63
  11   9  -1   11.16    0.70
 -11   9   1   11.40    0.67
   9  -9  -1   15.53    0.84
  -9  -9   1   16.90    0.83
   9   9  -1   17.22    0.92
  -9   9   1   16.49    0.88
   7  -9  -1   62.83    2.86
  -7  -9   1   61.99    2.85
  -7   9   1   65.05    2.90
   7   9  -1   60.68    2.92
  -5  -9   1   29.74    1.43
   5  -9  -1   30.84    1.44
   5   9  -1   30.18    1.50
  -3  -9   1   26.39    1.23
   3  -9  -1   25.97    1.23
   3   9  -1   24.59    1.30
  -1  -9   1   11.48    0.59
   1  -9  -1   10.76    0.58
  -1   9   1   10.68    0.66
   1   9  -1   10.41    0.65
   1  -9   1   34.69    1.69
  -1  -9  -1   36.59    1.69
   1   9   1   36.84    1.78
  -1   9  -1   36.87    1.78
   3  -9   1    6.36    0.40
  -3  -9  -1    6.27    0.39
   3   9   1    6.38    0.47
  -3   9  -1    6.21    0.49
   5  -9   1   13.76    0.75
  -5  -9  -1   15.00    0.75
   5   9   1   14.31    0.81
  -7  -9  -1   36.04    1.71
   7   9   1   37.00    1.79
  -9  -9  -1    1.83    0.21
   9   9   1    1.98    0.28
 -11  -9  -1   12.24    0.62
 -11   9  -1   10.57    0.65
  11   9   1   11.63    0.70
 -13  -9  -1   16.69    0.82
 -13   9  -1   16.32    0.86
  13   9   1   15.06    0.89
 -12 -10   1    0.87    0.16
 -12  10   1    0.85    0.24
  12  10  -1    1.36    0.25
  10 -10  -1    9.67    0.58
 -10 -10   1   10.01    0.55
  10  10  -1    8.96    0.62
 -10  10   1   10.50    0.63
  -8 -10   1   11.63    0.64
   8  10  -1   12.43    0.73
  -6 -10   1    0.90    0.16
   6 -10  -1    0.83    0.16
   6  10  -1    0.77    0.22
  -4 -10   1    3.22    0.27
   4 -10  -1    2.80    0.27
   4  10  -1    2.60    0.34
  -2 -10   1   52.16    2.32
   2 -10  -1   49.65    2.32
   2  10  -1   49.17    2.40
   0 -10  -1    3.75    0.29
   0 -10   1    3.82    0.30
   0  10  -1    3.09    0.38
   0  10   1    3.48    0.39
   2 -10   1    5.90    0.38
  -2 -10  -1    5.73    0.36
  -2  10  -1    4.64    0.46
   2  10   1    5.43    0.45
  -4 -10  -1    2.81    0.25
   4 -10   1    2.91    0.31
   4  10   1    2.42    0.33
  -6 -10  -1    1.89    0.22
   6  10   1    2.01    0.30
  -8 -10  -1    2.72    0.27
  -8  10  -1    3.33    0.37
   8  10   1    3.55    0.39
 -10 -10  -1   10.56    0.58
  10  10   1   10.87    0.68
 -10  10  -1   10.20    0.64
 -11 -11   1    7.06    0.44
  11  11  -1    7.22    0.52
   9 -11  -1   25.14    1.17
  -9 -11   1   22.62    1.13
   9  11  -1   22.27    1.21
   7 -11  -1   32.64    1.55
  -7 -11   1   33.16    1.54
   7  11  -1   31.39    1.61
   5 -11  -1   23.81    1.19
  -5 -11   1   23.88    1.18
   5  11  -1   25.35    1.28
  -3 -11   1   11.09    0.60
   3 -11  -1   10.99    0.62
   3  11  -1   10.86    0.70
   1 -11  -1   42.59    2.05
  -1 -11   1   40.03    2.12
  -1  11   1   50.05    2.25
   1 -11   1   50.86    2.62
  -1 -11  -1   59.75    2.52
   1  11   1   54.58    2.73
  -1  11  -1   53.20    2.76
  -3 -11  -1   47.42    2.22
   3 -11   1   49.63    2.25
   3  11   1   47.44    2.31
  -5 -11  -1   14.07    0.75
   5  11   1   15.08    0.86
  -7 -11  -1   20.28    1.01
   7  11   1   20.82    1.12
  -9 -11  -1   57.04    2.58
   9  11   1   55.71    2.66
   6 -12  -1    2.85    0.30
  -6 -12   1    2.94    0.29
   6  12  -1    2.58    0.38
   4 -12  -1    5.99    0.41
  -4 -12   1    5.49    0.40
   4  12  -1    6.34    0.53
  -2 -12   1    0.12    0.14
   2 -12  -1   -0.04    0.14
   2  12  -1    0.40    0.25
   0 -12  -1    0.20    0.14
   0 -12   1    0.42    0.17
  -2 -12  -1    0.80    0.16
   2  12   1    0.80    0.27
  -4 -12  -1    0.12    0.14
   4  12   1    0.41    0.21
  -6 -12  -1    0.33    0.22
  20   0  -2   43.80    2.04
 -18   0   2    0.65    0.25
  18   0  -2    1.25    0.17
 -16   0   2   23.22    1.17
  16   0  -2   23.76    1.13
  14   0  -2   55.14    2.52
  12   0  -2   47.75    2.14
 -12   0   2   45.78    2.13
  12   0  -2   46.04    2.12
  10   0  -2    1.69    0.22
 -10   0   2    2.05    0.50
 -10   0   2    2.14    0.18
  10   0  -2    1.95    0.17
  10   0  -2    2.57    0.53
 -10   0   2    3.32    1.20
  -8   0   2   90.68    5.60
   8   0  -2  101.79    4.72
  -8   0   2   99.60    4.37
   8   0  -2   96.48    4.36
   8   0  -2  100.22    4.37
  -6   0   2  979.88   44.71
   6   0  -2  958.22   43.46
  -6   0   2 1000.00   43.48
   6   0  -2  986.58   44.69
   4   0  -2    4.06    0.42
  -4   0   2    2.68    0.93
  -4   0   2    3.14    0.39
   4   0  -2    3.97    1.01
   4   0  -2    3.83    0.19
  -4   0   2    3.45    0.20
   4   0  -2    3.94    0.19
  -2   0   2   70.79    3.06
   2   0  -2   74.31    4.32
  -2   0   2   67.79    3.23
   2   0  -2   66.16    3.06
  -2   0   2   65.42    4.31
   2   0  -2   70.36    3.25
   0   0  -2  732.32   33.37
   2   0   2  915.96   37.22
  -2   0  -2  790.78   36.46
   2   0   2  763.03   36.44
  -4   0  -2  305.21   13.70
   4   0   2  284.02   13.48
  -4   0  -2  307.25   13.51
  -6   0  -2  107.25    4.76
  -6   0  -2   95.88    4.78
   6   0   2   91.26    4.33
   6   0   2   94.56    4.32
   6   0   2   98.80    4.37
  -8   0  -2  291.48   12.25
   8   0   2  232.26   11.04
   8   0   2  245.52   11.09
   8   0   2  238.86   11.05
  10   0   2  120.49    5.44
  10   0   2  120.34    5.45
  10   0   2  124.64    5.50
  12   0   2  160.30    7.21
  12   0   2  162.71    7.16
  12   0   2  157.86    7.15
  21  -1  -2    0.87    0.17
  21   1  -2    1.13    0.17
  19  -1  -2   -0.08    0.11
  19   1  -2   -0.03    0.12
 -19   1   2    0.01    0.20
  17  -1  -2    0.16    0.11
 -17   1   2    0.54    0.17
  17   1  -2    0.47    0.13
  15  -1  -2   20.13    0.95
 -15  -1   2   18.52    0.96
  15   1  -2   19.80    0.95
 -15   1   2   18.37    0.96
  13  -1  -2    5.42    0.33
 -13  -1   2    4.73    0.94
 -13  -1   2    5.54    0.35
  13   1  -2    5.42    0.36
  13   1  -2    4.99    0.32
 -13   1   2    5.09    0.34
 -11  -1   2   19.16    0.95
  11  -1  -2   22.77    1.61
  11  -1  -2   22.65    0.95
 -11  -1   2   21.06    1.46
 -11  -1   2   19.89    2.30
  11  -1  -2   18.78    0.95
  11   1  -2   20.63    0.98
 -11   1   2   17.36    2.39
  11   1  -2   19.45    0.95
  11   1  -2   16.59    1.39
  11   1  -2   20.89    2.24
 -11   1   2   19.43    0.96
 -11   1   2   18.83    1.49
  -9  -1   2    1.20    0.13
   9  -1  -2    1.13    0.10
   9  -1  -2    1.22    0.13
   9  -1  -2    1.00    0.42
  -9  -1   2    0.87    1.12
   9  -1  -2    1.11    1.08
  -9  -1   2    1.09    0.43
   9   1  -2    1.26    0.14
  -9   1   2    1.30    0.15
   9   1  -2    1.16    0.13
  -9   1   2    0.77    0.40
  -9   1   2   -0.70    1.12
   9   1  -2    0.86    0.79
   9   1  -2    1.40    0.45
  -7  -1   2   43.53    2.15
  -7  -1   2   36.90    3.26
   7  -1  -2   40.93    1.88
   7  -1  -2   42.61    2.23
   7  -1  -2   39.76    3.39
  -7  -1   2   41.88    1.88
   7   1  -2   41.26    1.89
   7   1  -2   37.26    3.14
  -7   1   2   42.95    3.50
   7   1  -2   42.18    1.88
   7   1  -2   43.39    2.16
  -7   1   2   41.73    2.22
  -7   1   2   42.84    1.89
  -5  -1   2   56.33    2.81
   5  -1  -2   60.28    2.91
  -5  -1   2   63.84    2.62
  -5  -1   2   54.80    3.92
   5  -1  -2   61.60    4.08
   5  -1  -2   57.37    2.63
   5   1  -2   60.50    2.62
   5   1  -2   62.19    4.23
   5   1  -2   60.65    2.63
  -5   1   2   59.91    2.91
   5   1  -2   61.76    2.84
  -5   1   2   49.56    2.64
  -5   1   2   56.07    4.17
  -3  -1   2  170.69    8.01
   3  -1  -2  190.05    9.45
  -3  -1   2  164.34    9.18
   3  -1  -2  190.05    8.09
   3   1  -2  187.99    8.05
  -3   1   2  173.95    9.26
  -3   1   2  175.10    8.06
   3   1  -2  169.94    9.30
   1  -1  -2   36.15    1.72
  -1  -1   2   35.02    1.50
  -1  -1   2   33.36    1.52
   1  -1  -2   33.33    1.51
  -1  -1   2   34.70    1.72
   1  -1  -2   30.50    2.68
  -1   1   2   29.55    1.52
   1   1  -2   37.03    1.54
   1   1  -2   34.92    1.72
   1   1  -2   32.94    2.70
  -1   1   2   35.10    1.71
  -1   1   2   33.37    1.53
  -1  -1  -2  288.43   13.94
   1  -1   2  271.15   13.80
  -1  -1  -2  282.71   12.81
   1  -1   2  292.60   12.87
  -1   1  -2  284.39   12.86
   1   1   2  276.02   12.80
  -1   1  -2  309.47   13.99
   3  -1   2   22.67    1.01
  -3  -1  -2   22.32    1.00
   3  -1   2   21.66    0.98
  -3  -1  -2   24.97    1.95
   3  -1   2   20.40    1.27
   3  -1   2   22.56    1.03
  -3  -1  -2   20.98    1.25
  -3   1  -2   22.08    2.11
   3   1   2   21.33    1.00
  -3   1  -2   20.16    1.26
   3   1   2   21.20    1.23
   3   1   2   22.28    1.04
  -5  -1  -2   19.07    1.27
   5  -1   2   21.01    1.00
  -5  -1  -2   21.14    1.31
   5  -1   2   21.38    0.98
   5  -1   2   21.07    0.96
   5   1   2   20.29    0.97
   5   1   2   20.25    0.97
  -5   1  -2   26.21    1.71
  -5   1  -2   20.71    1.39
  -5   1  -2   20.61    1.34
   5   1   2   20.88    1.01
  -7  -1  -2   27.92    1.80
   7  -1   2   29.09    1.35
   7  -1   2   27.82    1.37
   7  -1   2   29.77    1.34
  -7  -1  -2   28.15    1.75
   7   1   2   29.70    1.34
   7   1   2   29.21    1.39
  -7   1  -2   30.82    1.90
   7   1   2   29.13    1.34
  -9  -1  -2    6.33    0.98
   9  -1   2    5.32    0.32
   9  -1   2    5.46    0.33
   9  -1   2    5.93    0.37
   9   1   2    5.25    0.32
  -9   1  -2    3.60    0.80
   9   1   2    5.64    0.38
   9   1   2    5.37    0.33
  -9   1  -2    5.58    1.14
  11  -1   2    4.49    0.31
  11  -1   2    4.04    0.28
  11   1   2    4.01    0.30
  11   1   2    3.45    0.32
  11   1   2    4.21    0.29
  13  -1   2   15.19    0.81
  13   1   2   15.90    0.87
 -15  -1  -2   -0.19    0.17
  20  -2  -2   47.67    2.21
 -20   2   2   47.62    2.24
  20   2  -2   47.01    2.20
  18  -2  -2   27.95    1.34
  18   2  -2   28.99    1.34
 -18   2   2   26.52    1.37
  16  -2  -2   54.32    2.52
  16   2  -2   57.16    2.53
 -16   2   2   53.93    2.55
  14  -2  -2  135.59    6.68
 -14  -2   2  158.39    6.70
  14   2  -2  153.72    6.69
 -14   2   2  149.41    6.71
  14   2  -2  153.26    6.75
  12  -2  -2  158.47    8.98
 -12  -2   2  161.66    7.53
  12  -2  -2  176.54    7.54
 -12  -2   2  186.10    8.07
 -12   2   2  171.99    7.55
  12   2  -2  162.38    7.57
 -10  -2   2   94.57    4.78
 -10  -2   2   99.70    6.19
  10  -2  -2  103.62    4.94
 -10  -2   2   97.18    4.42
  10  -2  -2  104.82    6.31
  10  -2  -2   99.78    4.43
  10   2  -2   98.37    4.43
 -10   2   2   92.75    6.08
 -10   2   2   99.67    4.44
  10   2  -2   98.96    4.46
 -10   2   2   99.20    4.94
  10   2  -2  101.69    4.79
  -8  -2   2  163.34    7.74
   8  -2  -2  173.30    7.75
  -8  -2   2  197.81    8.05
  -8  -2   2  177.39    9.61
   8  -2  -2  185.56    8.20
   8   2  -2  172.93    7.75
   8   2  -2  176.33   10.38
  -8   2   2  187.59    8.22
  -8   2   2  143.41    9.36
   8   2  -2  167.93    7.78
  -8   2   2  178.37    7.77
   6  -2  -2  576.11   27.03
   6  -2  -2  587.21   25.41
  -6  -2   2  551.16   25.24
  -6  -2   2  559.16   26.86
  -6   2   2  561.71   26.95
  -6   2   2  587.65   25.42
   6   2  -2  552.30   25.25
   6   2  -2  573.26   26.95
   4  -2  -2  463.30   19.50
   4  -2  -2  437.72   21.21
  -4  -2   2  450.24   21.09
  -4  -2   2  412.77   19.37
  -4   2   2  430.87   19.49
   4   2  -2  412.91   19.37
  -4   2   2  431.71   21.16
   4   2  -2  450.69   21.17
  -2  -2   2   65.71    4.53
  -2  -2   2   64.45    2.93
  -2  -2   2   63.26    2.92
   2  -2  -2   65.21    2.93
   2  -2  -2   69.77    3.15
  -2  -2   2   65.90    3.12
   2  -2  -2   70.86    4.72
  -2   2   2   65.92    2.93
  -2   2   2   68.49    4.69
  -2   2   2   69.32    3.15
   2   2  -2   65.23    2.95
   2   2  -2   64.42    3.12
  -2   2   2   63.82    2.94
   0  -2   2   79.32    3.47
   0  -2  -2   74.00    3.46
   0  -2  -2   83.35    3.66
   0  -2   2   76.31    3.70
   0   2  -2   80.68    3.72
   0   2   2   74.73    3.46
   0   2   2   77.54    3.63
   0   2   2   76.57    3.49
   0   2  -2   83.49    5.41
   2  -2   2  234.31   11.99
   2  -2   2  236.05   10.48
  -2  -2  -2  224.06   11.80
  -2  -2  -2  228.99   10.34
   2   2   2  231.28   10.32
  -2   2  -2  224.61   10.45
  -4  -2  -2  143.04    7.17
   4  -2   2  121.22    5.56
  -4  -2  -2  114.72    5.57
   4  -2   2  120.06    5.58
   4   2   2  123.17    5.56
  -4   2  -2  122.99    6.86
  -4   2  -2  126.68    6.00
   4   2   2  126.49    5.80
   4   2   2  136.38    5.62
  -4   2  -2  122.77    7.21
  -4   2  -2  128.64    5.97
   6  -2   2   13.67    0.61
   6  -2   2   11.91    0.63
  -6  -2  -2   12.79    0.62
  -6  -2  -2   12.96    1.02
   6   2   2   12.78    0.61
  -6   2  -2   13.32    1.12
  -6   2  -2   12.26    0.66
  -6   2  -2   13.54    1.97
   6   2   2   12.90    0.67
  -6   2  -2   10.76    1.61
  -6   2  -2   12.66    1.12
   8  -2   2   16.56    0.82
   8  -2   2   17.68    0.84
  -8  -2  -2   17.83    1.47
  -8  -2  -2   17.05    0.83
   8   2   2   16.68    0.88
  -8   2  -2   12.47    1.58
  -8   2  -2   18.29    0.88
   8   2   2   16.69    0.82
  10  -2   2   44.45    1.98
  10  -2   2   44.71    1.97
 -10  -2  -2   41.98    2.10
 -10   2  -2   40.20    2.01
  10   2   2   42.65    2.03
  12  -2   2   37.20    1.75
 -12  -2  -2   36.70    1.75
  12   2   2   37.75    1.81
  14  -2   2    9.42    0.55
 -14  -2  -2    9.80    0.57
  14   2   2    8.91    0.61
 -21  -3   2    0.33    0.16
  21  -3  -2    0.27    0.16
 -21   3   2    0.62    0.22
  19  -3  -2    2.07    0.23
 -19   3   2    1.53    0.24
  17  -3  -2    4.93    0.33
  17   3  -2    4.54    0.32
 -17   3   2    4.54    0.37
  15  -3  -2   10.32    0.56
  15   3  -2   10.76    0.65
 -15   3   2    9.97    0.58
  15   3  -2   10.44    0.56
  13  -3  -2    1.24    0.16
  13   3  -2    1.23    0.16
 -13   3   2    0.95    0.16
  13   3  -2    0.66    0.17
  11  -3  -2    0.55    0.46
  11  -3  -2    0.08    0.08
 -11  -3   2    0.59    0.51
 -11  -3   2    0.17    0.09
  11  -3  -2   -0.51    1.14
 -11   3   2    0.15    1.89
  11   3  -2    0.20    0.09
  11   3  -2   -0.61    1.66
 -11   3   2    0.18    0.10
  11   3  -2    0.16    0.10
   9  -3  -2   19.15    1.40
  -9  -3   2   19.39    0.87
   9  -3  -2   19.50    0.89
  -9  -3   2   23.68    2.78
  -9  -3   2   17.52    1.17
   9   3  -2   17.87    0.93
  -9   3   2   16.87    0.90
  -9   3   2   20.15    1.43
  -9   3   2   16.96    2.61
   9   3  -2   19.95    0.90
   7  -3  -2    2.11    0.52
   7  -3  -2    2.61    0.18
  -7  -3   2    3.60    1.43
  -7  -3   2    2.57    0.15
  -7  -3   2    2.29    0.34
  -7   3   2    2.83    0.55
   7   3  -2    2.66    0.18
  -7   3   2    1.77    1.21
  -7   3   2    2.23    0.19
   7   3  -2    2.58    0.22
  -5  -3   2   47.87    2.38
   5  -3  -2   46.18    4.18
   5  -3  -2   51.77    2.23
  -5  -3   2   50.32    2.20
   5  -3  -2   49.76    2.58
   5   3  -2   45.63    2.25
  -5   3   2   49.01    2.58
  -5   3   2   49.65    2.20
  -5   3   2   51.73    2.24
   5   3  -2   51.65    4.55
  -5   3   2   52.09    4.38
  -3  -3   2   74.09    3.29
   3  -3  -2   69.74    3.56
   3  -3  -2   77.72    3.31
   3  -3  -2   78.27    5.51
  -3  -3   2   75.24    3.48
   3   3  -2   74.57    3.34
  -3   3   2   75.30    3.61
  -3   3   2   78.47    5.83
  -3   3   2   73.67    3.31
  -3   3   2   68.71    3.31
   3   3  -2   75.44    3.51
   3   3  -2   73.30    5.47
   1  -3  -2  114.04    5.22
  -1  -3   2  117.39    5.26
   1  -3  -2  118.96    7.55
   1  -3  -2  115.25    5.01
  -1  -3   2  108.67    7.23
   1   3  -2  121.87    7.66
  -1   3   2  110.64    7.30
  -1   3   2  111.90    5.21
  -1   3   2   99.64    5.00
  -1   3   2  109.46    5.03
   1   3  -2  114.51    5.04
   1   3  -2  119.51    5.29
  -1  -3  -2   17.16    0.82
  -1  -3  -2   16.81    2.70
  -1  -3  -2   17.89    0.99
   1  -3   2   17.50    0.80
   1  -3   2   16.57    1.12
   1  -3   2   17.60    0.83
   1   3   2   17.85    0.98
  -1   3  -2   17.55    1.11
   1   3   2   16.79    0.80
  -1   3  -2   18.53    0.85
   1   3   2   18.45    0.86
   3  -3   2   22.27    1.05
  -3  -3  -2   23.98    1.26
  -3  -3  -2   23.06    1.07
   3  -3   2   22.55    1.08
  -3  -3  -2   27.18    3.57
  -3   3  -2   26.38    1.10
  -3   3  -2   18.55    3.08
   3   3   2   23.53    1.11
   3   3   2   22.17    1.21
  -3   3  -2   22.91    1.48
  -3   3  -2   21.75    1.41
  -3   3  -2   17.71    2.82
   3   3   2   23.11    1.04
  -5  -3  -2  111.27    5.21
  -5  -3  -2  116.72    5.45
   5  -3   2  115.48    5.20
  -5  -3  -2  117.68    5.45
   5  -3   2  115.42    5.22
  -5   3  -2  122.22    5.25
   5   3   2  111.14    8.04
  -5   3  -2  119.41    6.91
   5   3   2  115.66    5.19
  -5   3  -2  117.00    5.71
   5   3   2  124.47    5.27
  -5   3  -2  117.42    5.67
   7  -3   2   12.24    0.59
   7  -3   2   11.94    0.62
  -7  -3  -2   11.59    0.60
  -7  -3  -2   11.98    1.07
  -7   3  -2   10.91    1.90
  -7   3  -2   12.76    0.64
  -7   3  -2   10.67    1.24
   7   3   2   11.76    0.66
  -7   3  -2   14.76    2.73
   9  -3   2   12.34    0.63
  -9  -3  -2   12.05    0.63
   9  -3   2   11.87    0.64
   9   3   2   11.76    0.69
  -9   3  -2   13.32    0.68
 -11  -3  -2    0.59    0.15
  11  -3   2    0.46    0.13
  11   3   2    0.67    0.18
 -11   3  -2    0.39    0.17
 -13  -3  -2    6.12    0.42
  13  -3   2    6.51    0.43
  13   3   2    6.69    0.49
  15  -3   2    7.96    0.49
 -15  -3  -2    7.56    0.51
  15   3   2    8.13    0.58
  20  -4  -2    6.19    0.44
 -20   4   2    6.78    0.48
  18  -4  -2   13.90    0.74
 -18  -4   2   14.26    0.76
 -18   4   2   14.66    0.79
  16  -4  -2    4.88    0.33
 -16  -4   2    5.18    0.34
 -16   4   2    4.26    0.37
  16   4  -2    4.46    0.43
  14  -4  -2   49.75    2.20
  14   4  -2   45.43    2.26
 -14   4   2   47.90    2.22
  12  -4  -2   48.13    2.19
  12   4  -2   48.35    2.25
 -12   4   2   47.15    2.21
  10  -4  -2   47.25    2.78
 -10  -4   2   46.11    2.40
  10  -4  -2   45.09    4.93
  10  -4  -2   52.80    2.28
 -10   4   2   45.78    5.08
  10   4  -2   50.39    2.33
  10   4  -2   53.87    7.35
 -10   4   2   53.89    2.30
  -8  -4   2   10.37    0.58
  -8  -4   2   12.64    0.70
  -8  -4   2   14.84    2.88
   8  -4  -2   10.96    1.08
   8   4  -2   11.78    0.69
  -8   4   2   11.86    1.03
   8   4  -2   12.37    0.64
  -8   4   2   11.86    0.60
  -8   4   2   10.39    2.51
  -6  -4   2   28.41    1.42
  -6  -4   2   28.09    1.30
   6  -4  -2   27.93    1.30
  -6  -4   2   29.04    3.59
   6  -4  -2   28.02    1.73
  -6  -4   2   29.34    1.26
  -6   4   2   28.82    1.32
   6   4  -2   27.91    1.43
  -6   4   2   25.77    3.60
  -6   4   2   28.24    1.75
  -6   4   2   28.22    1.28
   6   4  -2   27.69    1.34
  -4  -4   2  690.71   33.19
   4  -4  -2  732.18   33.35
   4  -4  -2  683.52   30.45
  -4  -4   2  639.33   30.23
   4   4  -2  683.59   33.20
  -4   4   2  674.26   30.44
  -4   4   2  680.72   33.29
  -2  -4   2   95.57    4.53
  -2  -4   2   95.33    4.28
   2  -4  -2   99.36    4.29
  -2  -4   2  102.66    7.19
   2  -4  -2   98.60    4.57
  -2   4   2   96.17    4.31
  -2   4   2   90.89    7.11
  -2   4   2   95.20    4.58
  -2   4   2   91.80    4.28
   2   4  -2   90.97    7.02
   2   4  -2  101.50    4.58
   0  -4  -2   21.97    1.03
   0  -4   2   22.49    1.03
   0  -4   2   20.64    1.01
   0   4  -2   22.11    1.34
   0   4   2   24.55    1.27
   0   4  -2   22.32    1.06
   0   4   2   22.23    1.01
   0   4   2   22.20    4.03
   0   4   2   21.84    1.06
  -2  -4  -2  272.08   11.80
  -2  -4  -2  260.65   14.84
  -2   4  -2  273.06   12.11
   2   4   2  250.47   11.71
  -2   4  -2  256.21   14.27
   2   4   2  272.12   11.86
  -2   4  -2  261.63   12.04
  -4  -4  -2  365.28   15.55
  -4   4  -2  377.49   18.94
  -4   4  -2  352.68   15.94
  -4   4  -2  343.75   15.95
  -4   4  -2  313.52   15.50
  -4   4  -2  359.80   19.38
   6  -4   2  142.47    6.46
   6  -4   2  144.39    6.44
  -6  -4  -2  161.70    6.57
  -6  -4  -2  144.14    6.45
  -6   4  -2  154.57    6.50
  -6   4  -2  134.33    7.00
  -6   4  -2  139.30    8.45
  -6   4  -2  144.59    6.96
   6   4   2  136.32    6.50
   8  -4   2   28.83    1.33
   8  -4   2   29.64    1.32
  -8  -4  -2   28.26    1.32
  -8   4  -2   25.75    1.36
   8   4   2   27.97    1.38
  10  -4   2  149.85    6.58
 -10  -4  -2  141.39    6.57
  10   4   2  150.25    6.64
  12  -4   2   53.44    2.44
 -12  -4  -2   53.07    2.43
  12   4   2   51.68    2.49
  14  -4   2   30.36    1.31
  14   4   2   22.72    1.45
 -16  -4  -2   53.76    2.50
 -19  -5   2   12.04    0.64
  19  -5  -2   11.42    0.65
 -19   5   2   10.63    0.66
 -17  -5   2    1.08    0.17
  17   5  -2    1.16    0.25
 -17   5   2    1.04    0.20
 -15  -5   2   24.15    1.15
  15  -5  -2   23.13    1.15
  15   5  -2   23.63    1.24
 -15   5   2   23.74    1.17
 -13  -5   2    2.49    0.23
  13  -5  -2    2.21    0.22
  13   5  -2    2.49    0.30
 -13   5   2    2.67    0.26
  11  -5  -2   18.14    0.90
 -11  -5   2   18.62    0.91
 -11   5   2   19.19    0.93
  11   5  -2   17.93    0.97
   9  -5  -2   10.16    0.53
   9   5  -2   11.33    0.60
   9   5  -2    8.16    2.53
  -9   5   2    8.96    0.54
   7  -5  -2   39.44    2.32
  -7  -5   2   38.05    1.80
   7  -5  -2   40.15    1.80
  -7   5   2   35.49    1.80
  -7   5   2   47.03    5.70
   7   5  -2   43.05    1.86
  -7   5   2   37.30    2.33
   5  -5  -2    9.62    0.96
  -5  -5   2   10.33    0.49
   5  -5  -2   10.58    0.53
  -5  -5   2   10.73    0.53
  -5   5   2   10.82    2.90
  -5   5   2   10.96    0.54
  -5   5   2   10.73    0.54
   5   5  -2   10.81    0.59
  -5   5   2   11.10    1.02
   5   5  -2    9.19    0.78
   3  -5  -2   11.07    0.53
  -3  -5   2   10.77    0.52
   3  -5  -2   11.77    0.93
   3   5  -2   10.66    0.86
  -3   5   2   10.57    2.92
   3   5  -2    9.72    0.82
   3   5  -2   10.14    0.57
  -3   5   2    9.11    0.52
  -3   5   2   11.33    0.55
  -3   5   2   10.28    0.94
  -1  -5   2   23.71    1.08
   1  -5  -2   25.05    1.09
   1  -5  -2   23.20    1.39
  -1  -5   2   23.09    1.08
  -1   5   2   23.36    1.12
   1   5  -2   22.28    1.13
   1   5  -2   26.95    4.06
   1   5  -2   21.68    1.46
  -1   5   2   22.58    1.40
   1  -5   2   25.80    1.19
   1  -5   2   30.16    1.21
  -1  -5  -2   22.75    1.20
  -1   5  -2   24.14    1.57
   1   5   2   25.27    1.40
   1   5   2   25.85    1.25
  -1   5  -2   26.23    1.25
  -1   5  -2   28.63    4.01
  -1   5  -2   24.74    1.65
  -3  -5  -2    5.15    0.31
   3  -5   2    5.58    0.30
   3  -5   2    5.30    0.31
  -3   5  -2    5.65    0.78
  -3   5  -2    4.54    0.79
  -3   5  -2    4.73    0.34
  -3   5  -2    4.58    2.12
   3   5   2    5.59    0.37
   5  -5   2    2.27    0.18
   5  -5   2    2.64    0.21
  -5  -5  -2    2.74    0.21
   5   5   2    1.71    0.26
  -5   5  -2    2.33    0.23
   5   5   2    1.46    1.65
  -5   5  -2    2.30    0.66
  -5   5  -2    4.27    4.43
  -7  -5  -2    6.01    0.36
   7  -5   2    5.75    0.36
   7  -5   2    5.81    0.35
  -7   5  -2    5.91    0.41
   7   5   2    5.59    0.41
  -9  -5  -2    2.02    0.20
   9  -5   2    1.87    0.21
   9   5   2    1.64    0.25
  11  -5   2    0.16    0.12
 -11  -5  -2    0.06    0.11
  11   5   2    0.35    0.16
  13  -5   2    0.27    0.13
 -13  -5  -2    0.44    0.15
  15   5   2    2.63    0.35
  18  -6  -2   27.97    1.35
 -18  -6   2   28.28    1.34
 -18   6   2   27.31    1.37
 -16  -6   2   37.40    1.75
 -16   6   2   37.14    1.78
  14  -6  -2   49.61    2.36
 -14  -6   2   52.40    2.36
  14   6  -2   51.61    2.44
 -14   6   2   51.51    2.38
  12  -6  -2   57.16    2.69
 -12  -6   2   56.78    2.69
  12   6  -2   60.50    2.77
 -12   6   2   61.36    2.72
 -10  -6   2   75.36    3.39
  10  -6  -2   77.52    3.39
  10   6  -2   67.67    3.44
 -10   6   2   79.25    3.41
   8  -6  -2   81.81    3.56
  -8  -6   2   82.28    3.56
  -8   6   2   68.20    3.58
   8   6  -2   83.06    3.62
   6  -6  -2   99.22    4.74
  -6  -6   2   94.74    4.19
   6  -6  -2   95.83    4.19
  -6   6   2   89.49    4.73
   6   6  -2   85.69    4.23
  -6   6   2   96.40    4.20
  -6   6   2   93.28    4.20
  -4  -6   2  131.91    5.67
   4  -6  -2  135.61    6.21
   4  -6  -2  126.76    5.70
  -4  -6   2  131.35    5.70
  -4   6   2  128.17    5.73
  -4   6   2  128.90    5.71
   4   6  -2  111.18    5.94
  -4   6   2  143.67   11.66
   4   6  -2  124.72    5.75
  -2  -6   2   72.11    3.24
  -2  -6   2   71.65    3.25
   2  -6  -2   72.95    3.26
   2   6  -2   65.63    7.09
   2   6  -2   62.72    7.61
  -2   6   2   73.55    3.25
  -2   6   2   74.30    3.30
   2   6  -2   74.35    3.31
   2   6  -2   72.39    3.64
   0  -6   2   57.23    2.56
   0  -6   2   57.22    2.55
   0  -6  -2   56.94    2.56
   0   6   2   57.36    2.61
   0   6  -2   54.48    2.61
   0   6  -2   56.29    3.00
   2  -6   2   84.24    3.78
   2  -6   2   85.85    3.77
  -2  -6  -2   85.12    3.77
  -2   6  -2   83.46    4.33
   2   6   2   84.98    3.83
  -2   6  -2   80.63    3.82
  -4  -6  -2   63.84    2.97
   4  -6   2   67.32    2.97
  -4   6  -2   68.14    3.03
   4   6   2   63.52    3.03
   6  -6   2   27.36    1.24
   6  -6   2   26.58    1.25
  -6  -6  -2   25.24    1.23
  -6   6  -2   26.97    1.30
   6   6   2   24.33    1.30
  -8  -6  -2   19.09    0.91
   8  -6   2   18.33    0.92
   8   6   2   17.71    0.97
 -10  -6  -2   38.18    1.81
  10  -6   2   38.97    1.83
  10   6   2   39.60    1.89
  12  -6   2   24.25    1.13
  12   6   2   21.53    1.20
  14  -6   2   11.04    0.62
 -14  -6  -2   11.12    0.64
  14   6   2   11.20    0.70
 -17  -7   2   -0.10    0.12
  17  -7  -2   -0.08    0.15
  17   7  -2   -0.23    0.19
 -17   7   2    0.12    0.17
  15  -7  -2   29.76    1.64
 -15  -7   2   33.29    1.53
  15   7  -2   32.07    1.62
 -15   7   2   33.77    1.56
  13  -7  -2    4.70    0.33
 -13  -7   2    4.19    0.31
  13   7  -2    3.80    0.38
 -13   7   2    4.71    0.37
  11  -7  -2   20.57    1.00
 -11  -7   2   20.04    1.00
 -11   7   2   20.90    1.03
  11   7  -2   20.25    1.07
  -9  -7   2    2.58    0.23
   9  -7  -2    2.91    0.24
  -9   7   2    2.32    0.26
   9   7  -2    2.62    0.29
   7  -7  -2    4.46    0.29
  -7  -7   2    4.63    0.30
  -7   7   2    4.35    0.32
   7   7  -2    4.37    0.35
   5  -7  -2    1.19    0.15
  -5  -7   2    0.89    0.14
  -5   7   2    1.12    0.18
  -5   7   2    1.27    0.17
  -5   7   2    1.79    0.72
   5   7  -2    1.02    0.18
  -3  -7   2   36.25    1.68
   3  -7  -2   34.74    1.68
   3   7  -2   34.70    1.74
  -3   7   2   38.71    1.74
  -3   7   2   37.57    1.69
  -3   7   2   36.23    2.34
  -1  -7   2    1.64    0.17
  -1  -7   2    1.36    0.16
   1  -7  -2    1.01    0.15
   1   7  -2    1.13    0.22
  -1   7   2    1.45    0.21
   1   7  -2    1.44    0.64
   1  -7   2    0.11    0.10
   1  -7   2    0.17    0.09
  -1  -7  -2    0.20    0.09
  -1   7  -2    0.04    0.11
   1   7   2   -0.07    0.12
  -1   7  -2    1.25    0.72
   3  -7   2    1.20    0.16
  -3  -7  -2    1.07    0.15
   3  -7   2    1.42    0.18
  -3   7  -2    1.76    0.26
   3   7   2    1.22    0.21
   5  -7   2    0.33    0.12
   5  -7   2    0.48    0.14
  -5  -7  -2    0.67    0.13
   5   7   2    0.57    0.17
  -5   7  -2    0.82    0.20
   7  -7   2    8.05    0.47
  -7  -7  -2    8.06    0.47
   7   7   2    8.70    0.55
   9  -7   2    1.92    0.24
  -9  -7  -2    1.44    0.19
   9   7   2    1.74    0.26
 -11  -7  -2    1.48    0.19
  11  -7   2    1.33    0.20
  11   7   2    1.33    0.23
  13  -7   2    0.54    0.16
 -13  -7  -2    0.54    0.16
  13   7   2    0.51    0.20
 -16  -8   2   32.65    1.59
  16  -8  -2   34.20    1.62
 -16   8   2   34.54    1.63
  16   8  -2   33.51    1.69
 -14  -8   2   12.57    0.66
  14  -8  -2   12.59    0.67
  14   8  -2   11.33    0.72
 -14   8   2   12.64    0.69
  12  -8  -2   15.53    0.82
 -12  -8   2   17.59    0.83
 -12   8   2   16.53    0.86
  12   8  -2   15.05    0.88
  10  -8  -2   18.95    0.96
 -10  -8   2   20.06    0.96
  10   8  -2   18.24    1.02
 -10   8   2   20.25    1.00
   8  -8  -2   62.49    2.85
  -8  -8   2   63.11    2.85
  -8   8   2   64.20    2.87
   8   8  -2   60.30    2.91
  -6  -8   2   90.09    4.19
   6  -8  -2   87.16    4.19
   6   8  -2  102.34    4.27
  -6   8   2   93.50    4.22
   4  -8  -2    0.69    0.13
  -4  -8   2    0.58    0.13
   4   8  -2    0.57    0.16
  -4   8   2    0.55    0.17
  -4   8   2    0.47    0.15
  -2  -8   2   56.70    2.60
   2  -8  -2   56.00    2.60
  -2   8   2   56.42    2.67
   2   8  -2   59.44    2.67
   0  -8   2  120.08    5.02
   0  -8   2  107.18    5.02
   0  -8  -2  113.13    5.02
   0   8   2  108.25    5.08
   0   8  -2  111.67    5.09
   2  -8   2   59.95    2.74
   2  -8   2   55.20    2.72
  -2  -8  -2   62.59    2.73
  -2   8  -2   60.85    2.80
   2   8   2   61.01    2.80
   4  -8   2   23.60    1.19
  -4  -8  -2   25.48    1.19
   4  -8   2   25.23    1.21
   4   8   2   25.23    1.27
  -4   8  -2   24.33    1.27
   6  -8   2   23.00    1.18
  -6  -8  -2   22.56    1.11
   6   8   2   23.40    1.19
   8  -8   2   76.80    3.37
  -8  -8  -2   70.55    3.35
   8   8   2   74.48    3.43
 -10  -8  -2   17.99    0.90
  10  -8   2   16.88    0.90
  10   8   2   18.45    0.97
 -12  -8  -2   35.62    1.67
  12   8   2   35.04    1.74
 -15  -9   2    1.96    0.22
  15  -9  -2    1.58    0.26
 -15   9   2    1.79    0.26
  15   9  -2    1.49    0.27
  13  -9  -2    0.40    0.17
 -13  -9   2    0.18    0.12
  13   9  -2    0.52    0.18
 -13   9   2    0.30    0.19
  11  -9  -2    0.19    0.13
 -11  -9   2    0.16    0.13
  11   9  -2    0.15    0.16
 -11   9   2    0.03    0.16
   9  -9  -2    0.03    0.12
  -9  -9   2    0.17    0.12
  -9   9   2    0.22    0.19
   9   9  -2    0.23    0.16
  -7  -9   2    1.15    0.17
   7  -9  -2    1.73    0.20
   7   9  -2    1.57    0.25
  -7   9   2    1.52    0.23
   5  -9  -2    3.54    0.27
  -5  -9   2    3.63    0.28
   5   9  -2    3.55    0.34
   3  -9  -2    0.86    0.15
  -3  -9   2    0.83    0.15
   3   9  -2    0.53    0.18
   1  -9  -2    1.06    0.16
   1   9  -2    1.15    0.22
  -1   9   2    0.86    0.20
   1  -9   2    8.09    0.46
  -1  -9  -2    7.91    0.46
  -1   9  -2    7.49    0.53
   1   9   2    7.81    0.54
   3  -9   2    1.80    0.23
   3  -9   2    1.71    0.21
  -3  -9  -2    1.71    0.20
   3   9   2    1.47    0.24
  -3   9  -2    1.82    0.27
   5  -9   2   12.53    0.66
  -5  -9  -2   11.58    0.63
   5   9   2   11.57    0.70
  -7  -9  -2    5.66    0.37
   7  -9   2    6.07    0.42
   7   9   2    5.24    0.45
   9  -9   2    3.60    0.33
  -9  -9  -2    3.72    0.30
   9   9   2    3.72    0.38
 -11  -9  -2    0.98    0.19
  11   9   2    1.27    0.25
  14 -10  -2   12.63    0.71
 -14 -10   2   12.85    0.66
 -14  10   2   11.06    0.69
  12 -10  -2   18.97    0.96
 -12 -10   2   18.41    0.93
  12  10  -2   18.82    1.02
 -12  10   2   18.53    0.98
 -10 -10   2   22.80    1.15
  10 -10  -2   25.22    1.17
 -10  10   2   25.26    1.22
  10  10  -2   21.71    1.22
  -8 -10   2   27.52    1.49
   8  10  -2   31.84    1.51
   6 -10  -2   29.43    1.41
  -6 -10   2   29.44    1.41
   6  10  -2   30.10    1.49
   4 -10  -2   16.11    0.86
  -4 -10   2   18.31    0.88
   4  10  -2   17.34    0.96
   2 -10  -2   44.16    2.09
  -2 -10   2   44.91    2.10
   2  10  -2   46.56    2.18
   0 -10   2   44.25    2.06
   0 -10  -2   46.16    2.05
   0  10   2   42.63    2.13
   0  10  -2   43.20    2.14
   2 -10   2   14.82    0.98
  -2 -10  -2   18.20    0.87
  -2  10  -2   17.40    0.98
   2  10   2   18.43    0.98
  -4 -10  -2   19.53    0.97
  -6 -10  -2   37.64    1.76
   6  10   2   37.63    1.85
  -8 -10  -2   31.44    1.55
   8  10   2   34.53    1.65
 -10 -10  -2    7.51    0.47
 -10  10  -2    8.85    0.55
  10  10   2    6.52    0.52
 -11 -11   2    0.59    0.16
  11 -11  -2    0.39    0.20
  11  11  -2    0.58    0.21
   9 -11  -2   -0.23    0.14
  -9 -11   2    0.22    0.14
   9  11  -2   -0.16    0.16
   7 -11  -2    1.89    0.24
  -7 -11   2    2.19    0.25
   7  11  -2    2.03    0.29
   5 -11  -2    0.36    0.14
  -5 -11   2    0.29    0.14
   5  11  -2    0.20    0.19
   3 -11  -2   -0.12    0.11
  -3 -11   2   -0.06    0.15
   3  11  -2    0.02    0.18
   1 -11  -2    0.21    0.13
   1  11  -2   -0.08    0.20
  -1  11   2   -0.03    0.22
  -1 -11  -2    7.49    0.46
   1  11   2    7.99    0.60
  -3 -11  -2    0.07    0.12
   3  11   2   -0.07    0.18
  -5 -11  -2   10.39    0.56
   5  11   2    9.60    0.65
  -7 -11  -2    4.92    0.35
   7  11   2    5.97    0.47
  -8 -12   2   13.49    0.71
   8 -12  -2   13.05    0.73
   8  12  -2   13.07    0.80
  -6 -12   2    1.62    0.22
   6 -12  -2    2.33    0.26
   6  12  -2    2.56    0.34
  -4 -12   2   46.54    2.13
   4 -12  -2   44.90    2.12
   4  12  -2   45.38    2.21
   2 -12  -2   24.79    1.22
   2  12  -2   25.48    1.34
   0 -12  -2    8.67    0.53
  -2 -12  -2    5.09    0.36
   2  12   2    5.53    0.56
  -4 -12  -2   12.70    0.71
   4  12   2   15.24    0.94
  22   0  -3   -0.28    0.12
  20   0  -3    0.00    0.11
  18   0  -3    0.00    0.10
 -18   0   3    0.09    0.17
 -16   0   3    0.00    0.12
  16   0  -3    0.11    0.10
  14   0  -3    0.02    0.09
 -14   0   3   -0.05    0.10
  14   0  -3   -1.01    0.76
 -12   0   3    0.03    0.09
 -12   0   3    0.02    1.38
  12   0  -3    0.06    0.08
  12   0  -3    0.15    0.09
 -10   0   3   -0.34    0.38
 -10   0   3    0.07    0.07
  10   0  -3    0.01    0.05
  10   0  -3    0.82    0.41
  10   0  -3    0.00    0.06
  10   0  -3   -0.61    1.21
 -10   0   3    0.50    1.33
  -8   0   3    0.01    0.30
   8   0  -3    0.06    0.05
  -8   0   3    0.00    0.06
  -8   0   3   -0.33    1.22
   8   0  -3   -0.10    0.05
   8   0  -3   -0.08    0.27
   8   0  -3    0.27    1.33
   6   0  -3    0.05    0.26
  -6   0   3   -0.20    0.94
  -6   0   3   -0.03    0.19
   6   0  -3   -0.01    0.04
   6   0  -3    0.17    0.88
  -6   0   3    0.02    0.06
   6   0  -3   -0.02    0.04
  -4   0   3    0.15    0.22
   4   0  -3   -0.18    0.75
   4   0  -3    0.05    0.04
  -4   0   3    0.00    0.05
   4   0  -3    0.01    0.03
   4   0  -3    0.31    0.24
  -4   0   3    0.41    0.79
   2   0  -3    0.03    0.02
  -2   0   3    0.02    0.05
  -2   0   3   -0.55    1.06
   2   0  -3   -0.11    0.21
  -2   0   3    0.05    0.21
   2   0  -3   -0.38    0.76
   2   0  -3    0.02    0.05
   0   0  -3   -0.12    0.70
   0   0   3   -0.02    0.05
   0   0  -3   -0.01    0.02
   0   0  -3   -0.21    0.15
  -2   0  -3   -0.01    0.03
   2   0   3   -0.06    0.05
   2   0   3   -0.11    0.25
   2   0   3   -0.01    0.06
  -2   0  -3   -0.03    1.00
  -2   0  -3    0.05    0.26
   4   0   3    0.04    0.08
  -4   0  -3    0.39    0.81
   4   0   3    0.10    0.31
   4   0   3    0.00    0.06
  -4   0  -3    0.22    0.32
   6   0   3   -0.04    0.06
   6   0   3    0.05    0.08
   6   0   3    0.16    0.07
  -6   0  -3    0.52    0.48
  -6   0  -3    0.64    0.48
  -8   0  -3   -0.30    0.67
   8   0   3    0.05    0.08
   8   0   3    0.12    0.08
   8   0   3   -0.12    0.09
  10   0   3    0.03    0.10
  10   0   3    0.06    0.12
  12   0   3    0.03    0.13
  12   0   3   -0.01    0.13
  21  -1  -3   23.90    1.21
  21   1  -3   26.34    1.23
  19  -1  -3   38.54    1.84
  19   1  -3   43.06    1.88
 -19   1   3   36.41    1.87
  17  -1  -3   14.43    0.74
 -17  -1   3   14.93    0.79
  17   1  -3   14.14    0.73
 -17   1   3   14.18    0.77
 -15  -1   3  110.78    4.86
  15  -1  -3  106.99    4.83
 -15   1   3  108.42    4.85
  15   1  -3  104.63    4.83
 -13  -1   3  102.45    4.66
  13  -1  -3  104.97    4.66
 -13   1   3  103.30    4.67
  13   1  -3  108.89    4.69
  13   1  -3  107.61    4.67
 -13   1   3   95.15    5.23
  11  -1  -3   44.37    1.91
  11  -1  -3   40.69    2.37
 -11  -1   3   39.58    1.90
 -11  -1   3   41.10    2.36
 -11  -1   3   42.34    3.96
  11   1  -3   40.42    1.90
 -11   1   3   40.40    4.05
 -11   1   3   41.74    1.91
  11   1  -3   42.73    1.92
   9  -1  -3  243.69   10.66
  -9  -1   3  221.78   10.20
  -9  -1   3  224.58   10.55
  -9  -1   3  239.47   12.36
  -9   1   3  239.44   10.21
   9   1  -3  231.31   10.20
   9   1  -3  214.93   10.21
  -9   1   3  213.50   12.18
  -9   1   3  236.31   10.66
   9   1  -3  241.56   10.59
  -7  -1   3  378.42   16.76
  -7  -1   3  377.33   18.50
   7  -1  -3  360.20   16.75
   7  -1  -3  355.33   18.39
  -7   1   3  389.20   16.79
   7   1  -3  372.40   18.53
  -7   1   3  363.78   18.52
   7   1  -3  376.20   16.71
   5  -1  -3  242.97   13.19
   5  -1  -3  265.54   11.57
  -5  -1   3  255.81   13.32
  -5  -1   3  263.76   11.53
  -5   1   3  256.88   13.33
   5   1  -3  260.16   13.34
  -5   1   3  255.53   11.55
   5   1  -3  237.76   11.49
   3  -1  -3   11.88    0.84
   3  -1  -3   14.68    2.19
  -3  -1   3   13.45    0.62
  -3  -1   3   10.25    2.04
   3  -1  -3   13.54    0.61
  -3  -1   3   13.91    0.89
  -3   1   3   13.27    0.63
   3   1  -3   12.36    0.88
   3   1  -3   13.46    0.64
   3   1  -3   15.74    2.28
  -3   1   3   14.36    0.63
  -3   1   3   10.76    1.95
  -3   1   3   12.61    0.87
   3   1  -3   13.14    0.60
  -1  -1   3  718.55   30.29
   1  -1  -3  695.78   30.25
  -1   1   3  630.24   30.23
   1   1  -3  714.20   30.30
   1   1  -3  642.50   32.80
   1  -1   3  470.46   21.02
  -1  -1  -3  422.00   20.95
  -1  -1  -3  452.29   22.48
   1  -1   3  505.16   22.66
   1   1   3  457.18   20.95
  -1   1  -3  478.45   21.05
  -1   1  -3  497.51   22.66
   1   1   3  478.12   22.82
   3  -1   3    3.95    0.60
  -3  -1  -3    3.85    0.55
  -3  -1  -3    4.48    0.23
   3  -1   3    3.89    0.27
  -3  -1  -3    5.28    1.52
   3  -1   3    3.96    0.24
   3  -1   3    4.18    0.21
   3   1   3    3.71    0.52
  -3   1  -3    3.56    1.38
   3   1   3    3.73    0.23
  -3   1  -3    4.31    0.61
   3   1   3    4.37    0.28
   5  -1   3  100.35    4.60
  -5  -1  -3  115.32    5.10
   5  -1   3  100.87    4.63
  -5  -1  -3   95.23    4.61
   5  -1   3  105.05    4.66
   5   1   3  100.19    4.62
   5   1   3  105.91    5.02
  -5   1  -3  111.64    5.64
  -5   1  -3  105.97    5.08
   5   1   3  101.46    4.67
   7  -1   3  159.96    7.59
  -7  -1  -3  175.34    7.61
   7  -1   3  169.80    7.65
   7  -1   3  187.08    7.62
   7   1   3  164.44    7.61
  -7   1  -3  161.51    8.16
   7   1   3  179.45    7.67
  -9  -1  -3   86.04    3.73
   9  -1   3   82.84    3.73
  -9  -1  -3   82.43    4.45
  -9  -1  -3   83.42    4.48
   9   1   3   80.77    3.72
   9   1   3   80.42    3.77
  11  -1   3    4.21    0.32
 -11  -1  -3    3.77    0.32
  11   1   3    3.33    0.41
 -11   1  -3    4.46    0.37
  11   1   3    4.04    0.35
  13  -1   3   23.86    1.19
  13   1   3   24.26    1.25
  22  -2  -3    3.66    0.32
 -22   2   3    3.65    0.45
  20  -2  -3    0.94    0.18
 -20   2   3    1.13    0.23
  20   2  -3    1.10    0.17
  18  -2  -3    0.07    0.10
  18   2  -3   -0.07    0.10
 -18   2   3    0.16    0.15
  16  -2  -3    0.93    0.16
 -16   2   3    1.50    0.20
  16   2  -3    1.08    0.16
  14  -2  -3    1.01    0.15
 -14  -2   3    0.84    0.15
  14   2  -3    0.83    0.18
  14   2  -3    0.72    0.13
 -14   2   3    0.94    0.17
  12  -2  -3    9.01    1.98
 -12  -2   3   11.63    1.23
  12  -2  -3   11.04    0.56
 -12  -2   3   10.71    0.56
 -12  -2   3    9.78    2.02
  12  -2  -3   11.89    1.26
 -12   2   3   10.56    1.20
 -12   2   3   11.82    2.51
  12   2  -3   11.19    1.22
 -12   2   3   11.10    0.59
  12   2  -3   10.88    0.60
  12   2  -3   11.57    0.57
  12   2  -3    7.85    1.90
 -10  -2   3    0.60    1.02
  10  -2  -3    0.01    0.31
 -10  -2   3    0.23    0.08
 -10  -2   3    0.16    0.39
  10  -2  -3    0.03    0.07
 -10   2   3    0.84    1.20
 -10   2   3   -0.05    0.46
 -10   2   3   -0.02    0.08
  10   2  -3    0.44    0.38
  10   2  -3    0.04    0.08
  10   2  -3    0.00    0.07
   8  -2  -3  112.25    5.15
  -8  -2   3  102.11    7.02
  -8  -2   3  104.67    4.68
  -8  -2   3  106.39    5.00
   8  -2  -3   97.86    4.68
  -8   2   3  109.61    7.18
  -8   2   3   99.10    4.70
   8   2  -3  103.76    4.68
  -8   2   3  111.52    5.15
   8   2  -3  109.38    5.01
   8   2  -3  105.91    4.71
  -6  -2   3   75.37    3.34
   6  -2  -3   72.95    3.34
  -6  -2   3   76.62    5.48
   6  -2  -3   78.36    3.71
  -6  -2   3   72.08    3.58
   6  -2  -3   78.76    5.76
   6   2  -3   73.19    3.61
   6   2  -3   76.32    5.47
  -6   2   3   74.04    5.41
  -6   2   3   74.62    3.71
   6   2  -3   79.93    3.37
   6   2  -3   72.13    3.33
  -6   2   3   73.11    3.35
   4  -2  -3    1.19    0.34
  -4  -2   3    1.85    1.56
   4  -2  -3    1.26    0.10
  -4  -2   3    1.38    0.30
   4  -2  -3    0.78    1.26
  -4  -2   3    1.31    0.11
   4   2  -3    1.29    0.14
  -4   2   3    1.31    1.12
   4   2  -3    1.50    1.45
   4   2  -3    0.83    0.28
  -4   2   3    1.25    0.12
  -4   2   3    1.28    0.10
  -4   2   3    0.75    0.31
   4   2  -3    1.17    0.10
  -2  -2   3   69.42    3.13
  -2  -2   3   69.78    3.10
  -2  -2   3   67.21    3.38
  -2  -2   3   63.96    5.04
   2  -2  -3   72.01    5.31
  -2   2   3   69.79    3.14
   2   2  -3   72.02    5.34
   2   2  -3   72.87    3.15
   2   2  -3   74.59    3.44
  -2   2   3   72.14    3.41
  -2   2   3   71.18    5.31
  -2   2   3   66.88    3.13
   0  -2   3   29.76    1.66
   0  -2   3   29.62    1.36
   0  -2  -3   33.08    1.35
   0  -2  -3   29.25    1.62
   0  -2  -3   29.20    3.25
   0   2  -3   30.14    1.70
   0   2   3   29.35    1.35
   0   2  -3   32.52    3.30
   0   2   3   28.65    1.61
   0   2   3   29.06    1.38
   0   2  -3   28.42    1.38
  -2  -2  -3    0.37    0.07
   2  -2   3    0.23    0.04
   2  -2   3    0.32    0.08
  -2  -2  -3    0.19    0.26
  -2  -2  -3   -0.19    1.08
   2  -2   3    0.08    0.31
   2   2   3    0.17    0.09
  -2   2  -3   -0.36    1.59
   2   2   3    0.24    0.27
  -2   2  -3    0.67    0.28
  -2   2  -3    0.11    0.08
   2   2   3    0.27    0.07
   4  -2   3    2.06    0.17
  -4  -2  -3    2.12    0.15
  -4  -2  -3    2.11    1.18
   4  -2   3    2.07    0.13
   4   2   3    2.25    0.46
  -4   2  -3    2.22    1.74
   4   2   3    1.97    0.15
  -4   2  -3    1.79    0.19
   4   2   3    2.17    0.21
  -4   2  -3    1.47    0.50
  -6  -2  -3   18.33    0.91
   6  -2   3   19.12    0.92
  -6  -2  -3   19.77    1.47
   6  -2   3   19.35    0.89
   6   2   3   18.72    0.96
  -6   2  -3   19.01    1.52
   6   2   3   19.20    0.90
  -8  -2  -3    3.19    0.24
   8  -2   3    3.13    0.25
  -8  -2  -3    1.90    0.89
  -8   2  -3    2.71    0.27
   8   2   3    2.86    0.23
   8   2   3    2.77    0.27
 -10  -2  -3    8.23    0.48
  10  -2   3    7.42    0.47
 -10   2  -3    9.74    0.55
  10   2   3    7.94    0.53
 -12  -2  -3    1.01    0.20
  12  -2   3    0.54    0.14
  12   2   3    0.73    0.18
  14  -2   3   13.95    0.76
  14   2   3   14.10    0.82
  21  -3  -3    4.88    0.36
 -21   3   3    4.62    0.42
  19  -3  -3    5.81    0.38
 -19   3   3    6.07    0.44
  19   3  -3    5.47    0.37
  17  -3  -3  100.14    4.66
  17   3  -3  101.50    4.66
 -17   3   3  109.45    4.70
  15  -3  -3   42.89    2.04
  15   3  -3   45.34    2.05
  15   3  -3   45.97    2.13
 -15   3   3   43.04    2.06
  13  -3  -3    3.71    0.26
  13   3  -3    3.82    0.32
  13   3  -3    3.84    0.27
 -13   3   3    4.10    0.30
 -11  -3   3   39.60    4.56
  11  -3  -3   37.43    2.39
 -11  -3   3   36.56    2.22
 -11  -3   3   42.23    1.82
  11  -3  -3   41.27    1.83
  11   3  -3   37.43    2.25
 -11   3   3   36.72    4.54
 -11   3   3   40.27    1.85
 -11   3   3   35.58    2.38
  11   3  -3   41.81    1.83
  11   3  -3   42.01    1.88
  -9  -3   3  161.36    7.07
   9  -3  -3  156.50    6.74
  -9  -3   3  152.89    6.73
   9  -3  -3  162.60    7.28
  -9  -3   3  146.24    9.06
  -9   3   3  151.05    7.25
  -9   3   3  151.28    6.76
   9   3  -3  154.19    7.06
   9   3  -3  138.58    6.78
  -9   3   3  142.04    9.15
   9   3  -3  150.66    6.74
  -7  -3   3  199.11   11.70
   7  -3  -3  206.15    9.22
  -7  -3   3  213.21    9.50
   7  -3  -3  197.04    9.62
  -7   3   3  214.85    9.24
  -7   3   3  212.29    9.69
   7   3  -3  217.55    9.26
   7   3  -3  200.20    9.22
  -7   3   3  213.88   11.95
  -5  -3   3   14.24    2.66
  -5  -3   3   14.67    0.95
   5  -3  -3   14.66    0.70
   5  -3  -3   16.27    1.08
   5  -3  -3   16.28    2.96
   5   3  -3   15.40    0.74
  -5   3   3   14.67    0.69
  -5   3   3    9.70    2.43
  -5   3   3   14.09    0.71
   5   3  -3   16.33    2.92
   5   3  -3   14.32    0.99
  -5   3   3   15.71    1.10
  -3  -3   3  106.53    4.21
  -3  -3   3   91.54    4.50
   3  -3  -3   96.69    6.91
   3  -3  -3   91.85    4.22
  -3  -3   3   92.36    4.22
  -3  -3   3   86.61    6.56
   3  -3  -3  102.44    4.56
   3   3  -3   97.30    4.54
   3   3  -3   90.67    4.25
  -3   3   3   90.12    4.23
  -3   3   3   93.76    4.22
   3   3  -3   92.46    6.76
  -3   3   3   98.84    4.55
  -3   3   3   94.86    6.79
   1  -3  -3  166.54   10.20
  -1  -3   3  170.63    7.70
   1  -3  -3  166.43    7.65
  -1  -3   3  167.13   10.05
  -1  -3   3  167.47    7.37
   1  -3  -3  163.47    7.36
   1   3  -3  172.86    7.73
  -1   3   3  162.30    7.39
  -1   3   3  157.55    7.36
  -1   3   3  163.73    7.64
  -1   3   3  154.51   10.10
   1   3  -3  180.41    7.40
   1  -3   3  249.25   11.69
  -1  -3  -3  242.46   14.17
  -1   3  -3  266.18   11.74
   1   3   3  260.41   11.58
  -1   3  -3  259.56   14.31
   3  -3   3  193.11    8.57
  -3  -3  -3  187.81    8.59
  -3  -3  -3  187.06   11.30
   3  -3   3  184.83    8.60
  -3   3  -3  206.56   11.64
   3   3   3  205.22    8.87
  -3   3  -3  194.72    8.63
  -3   3  -3  200.07    9.03
   3   3   3  190.82    8.64
   5  -3   3   21.59    1.04
   5  -3   3   22.31    1.02
  -5  -3  -3   21.82    1.02
  -5   3  -3   18.07    2.94
   5   3   3   22.74    1.01
  -5   3  -3   20.14    3.62
  -5   3  -3   20.54    1.07
  -5   3  -3   19.68    1.52
   5   3   3   22.67    1.09
  -5   3  -3   23.02    1.65
  -7  -3  -3   86.81    3.85
   7  -3   3   80.34    3.85
  -7   3  -3   90.84    3.90
   7   3   3   84.17    3.90
   9  -3   3  114.14    5.20
  -9  -3  -3  120.07    5.20
  -9   3  -3  105.88    5.24
   9   3   3  123.64    5.26
 -11  -3  -3   76.50    3.59
  11  -3   3   79.95    3.59
  11   3   3   80.85    3.65
 -13  -3  -3   17.16    0.92
  13   3   3   17.94    0.96
  15  -3   3   19.79    1.03
  15   3   3   21.04    1.12
  20  -4  -3    0.50    0.15
 -20  -4   3    0.63    0.17
 -20   4   3    0.25    0.16
  18  -4  -3    0.15    0.13
 -18   4   3    0.48    0.20
  16  -4  -3    0.78    0.15
  16   4  -3    0.83    0.21
 -16   4   3    0.95    0.18
  14  -4  -3    7.64    0.46
 -14   4   3    7.92    0.49
  14   4  -3    8.91    0.48
  14   4  -3    9.56    0.56
  12  -4  -3    0.02    0.08
  12   4  -3   -0.05    0.10
 -12   4   3    0.06    0.10
  12   4  -3    0.10    0.09
 -10  -4   3    8.13    0.83
 -10  -4   3   10.98    2.57
  10  -4  -3    7.58    1.53
  10  -4  -3    8.12    0.45
  10   4  -3    8.71    0.50
 -10   4   3    7.23    2.84
 -10   4   3    6.47    0.97
 -10   4   3    7.97    0.47
  10   4  -3    9.23    0.46
   8  -4  -3    0.19    0.45
  -8  -4   3    2.44    1.64
  -8  -4   3    0.51    0.34
  -8   4   3   -0.30    2.16
  -8   4   3    0.37    0.50
  -6  -4   3    2.41    0.41
  -6  -4   3    2.07    2.10
   6  -4  -3    2.22    0.55
  -6  -4   3    2.59    0.17
  -6  -4   3    2.76    0.19
  -6   4   3    2.99    0.60
  -6   4   3    2.62    0.20
   6   4  -3    3.15    0.24
  -6   4   3    1.72    1.85
  -6   4   3    2.52    0.17
   6   4  -3    2.61    0.47
   6   4  -3    1.78    1.76
  -4  -4   3    5.43    0.31
  -4  -4   3    6.18    0.66
   4  -4  -3    6.45    0.33
   4  -4  -3    5.88    0.70
  -4  -4   3    5.89    0.31
   4   4  -3    5.73    0.36
  -4   4   3    6.11    0.33
  -4   4   3    5.32    1.03
  -4   4   3    6.00    0.33
  -2  -4   3   38.11    1.86
  -2  -4   3   42.52    1.88
   2  -4  -3   41.92    1.88
  -2  -4   3   43.39    2.22
   2   4  -3   44.80    1.93
  -2   4   3   38.07    2.20
   2   4  -3   39.63    2.21
  -2   4   3   42.79    1.91
  -2   4   3   41.51    1.88
   0  -4   3   16.13    3.36
   0  -4   3   16.24    0.79
   0  -4  -3   17.06    1.09
   0  -4   3   16.31    1.13
   0  -4  -3   15.28    3.37
   0  -4   3   17.22    0.76
   0  -4  -3   16.74    0.78
   0   4   3   16.64    0.83
   0   4  -3   17.43    3.51
   0   4  -3   15.28    1.17
   0   4   3   15.59    1.08
   0   4  -3   16.76    0.83
   0   4   3   16.05    0.77
   2  -4   3   -0.03    0.07
  -2  -4  -3    0.86    2.70
   2  -4   3    0.05    0.05
  -2  -4  -3   -0.08    0.30
  -2  -4  -3    0.14    0.07
  -2   4  -3    0.40    2.12
  -2   4  -3    0.01    0.08
  -2   4  -3   -0.16    0.40
   2   4   3    0.05    0.05
   2   4   3    0.22    0.27
   2   4   3   -0.09    0.08
  -4  -4  -3    2.29    0.48
   4  -4   3    3.14    0.19
  -4  -4  -3    2.65    0.21
   4  -4   3    2.65    0.22
  -4   4  -3    0.42    2.45
  -4   4  -3    2.50    1.55
   4   4   3    3.11    0.27
  -4   4  -3    2.53    0.68
  -4   4  -3    2.38    0.24
  -4   4  -3    3.38    0.68
  -6  -4  -3   11.92    0.58
   6  -4   3   10.99    0.59
   6   4   3   10.93    0.63
  -6   4  -3   10.64    0.62
   8  -4   3    4.95    0.33
  -8  -4  -3    5.08    0.33
   8   4   3    5.42    0.39
  -8   4  -3    4.70    0.38
  10  -4   3    0.71    0.15
 -10  -4  -3    0.42    0.14
  10   4   3    0.64    0.17
 -12  -4  -3    0.18    0.15
  12  -4   3    0.23    0.13
  12   4   3    0.13    0.17
  14  -4   3    2.50    0.28
 -14  -4  -3    2.39    0.30
  14   4   3    2.89    0.35
 -19  -5   3   11.87    0.64
  19  -5  -3   11.26    0.63
 -19   5   3   11.55    0.66
  17  -5  -3  117.24    5.48
  17   5  -3  127.49    5.60
  15  -5  -3   53.25    2.41
 -15  -5   3   55.20    2.41
 -15   5   3   51.65    2.43
  15   5  -3   49.31    2.48
 -13  -5   3   26.60    1.28
  13  -5  -3   27.83    1.28
 -13   5   3   25.40    1.29
  13   5  -3   27.42    1.35
  11  -5  -3   98.96    4.47
 -11  -5   3  102.33    4.48
 -11   5   3   99.91    4.49
  11   5  -3   98.02    4.54
  -9  -5   3  163.38    7.42
   9  -5  -3  158.01    7.97
   9  -5  -3  168.15    7.42
  -9  -5   3  175.90   11.23
  -9  -5   3  169.23    7.59
   9   5  -3  176.31    7.48
  -9   5   3  149.31   10.73
  -9   5   3  170.23    7.44
   7  -5  -3  215.35    9.25
  -7  -5   3  215.52    9.25
   7  -5  -3  215.45    9.78
  -7  -5   3  209.28    9.46
  -7  -5   3  201.09    9.21
  -7   5   3  192.32    9.76
  -7   5   3  222.36    9.27
  -7   5   3  224.71   14.57
   7   5  -3  189.30    9.29
   5  -5  -3   77.34    3.94
  -5  -5   3   78.36    3.77
  -5  -5   3   75.65    3.45
   5  -5  -3   82.35    3.48
   5  -5  -3   78.62    7.09
  -5  -5   3   77.67    3.47
  -5   5   3   75.28    3.48
  -5   5   3   72.34    3.92
   5   5  -3   74.27    3.77
  -5   5   3   78.34    3.48
   5   5  -3   81.00    3.53
   3  -5  -3  182.47    8.44
   3  -5  -3  200.23    8.89
  -3  -5   3  188.93    8.44
  -3  -5   3  198.73    8.86
  -3  -5   3  194.45    8.44
  -3  -5   3  199.20   12.58
   3   5  -3  178.51    8.49
  -3   5   3  196.45    8.48
  -3   5   3  188.02    8.44
  -3   5   3  180.00   12.51
   1  -5  -3  104.77    4.42
  -1  -5   3   93.89    4.40
  -1  -5   3   98.79    4.41
  -1   5   3   95.23    4.75
  -1   5   3   99.17    4.45
   1   5  -3  104.39    4.47
  -1   5   3   95.41    4.40
   1  -5   3  116.41    5.12
   1  -5   3  118.72    5.15
  -1  -5  -3  119.27    5.14
  -1   5  -3  111.22    8.25
   1   5   3  116.12    5.12
   1   5   3  115.04    5.19
  -1   5  -3  118.28    5.66
  -1   5  -3  105.84    5.18
   3  -5   3  152.11    6.96
  -3  -5  -3  157.28    6.95
   3  -5   3  167.90    6.95
  -3   5  -3  192.45   13.99
  -3   5  -3  148.46    7.51
   3   5   3  131.07   12.63
   3   5   3  157.83    7.01
  -3   5  -3  144.87    9.75
  -3   5  -3  157.92    7.00
  -5  -5  -3    9.31    0.50
   5  -5   3    9.42    0.51
  -5   5  -3    8.81    0.54
   5   5   3    9.94    0.57
   7  -5   3   26.07    1.28
  -7  -5  -3   25.69    1.27
  -7   5  -3   29.02    1.34
   7   5   3   26.44    1.34
   9  -5   3   42.28    2.01
  -9  -5  -3   42.22    2.00
   9   5   3   45.30    2.08
  11  -5   3   40.55    1.90
 -11  -5  -3   40.03    1.90
  11   5   3   41.03    1.96
 -13  -5  -3    4.25    0.39
  13  -5   3    4.19    0.33
  13   5   3    4.32    0.40
  15   5   3    2.82    0.39
  20  -6  -3    0.44    0.18
 -20  -6   3    0.57    0.17
 -20   6   3    0.15    0.16
 -18  -6   3   13.68    0.73
  18  -6  -3   13.66    0.73
 -18   6   3   14.44    0.77
  18   6  -3   13.87    0.86
  16  -6  -3   -0.04    0.11
  16   6  -3    0.04    0.17
 -14  -6   3    2.84    0.25
  14  -6  -3    2.84    0.26
 -14   6   3    2.67    0.29
  14   6  -3    2.77    0.33
  12  -6  -3    2.53    0.23
 -12  -6   3    2.52    0.23
  12   6  -3    2.73    0.30
 -12   6   3    2.71    0.26
 -10  -6   3   14.78    0.73
  10  -6  -3   14.60    0.73
 -10   6   3   14.32    0.75
  10   6  -3   14.29    0.79
   8  -6  -3   19.97    0.99
  -8  -6   3   20.48    1.02
  -8   6   3   23.03    1.05
   8   6  -3   19.52    1.05
   6  -6  -3  142.90    6.43
  -6  -6   3  146.94    6.40
  -6   6   3  143.68    6.41
  -6   6   3  143.91    6.42
  -6   6   3  138.89    6.99
   6   6  -3  145.45    6.51
  -4  -6   3   14.15    0.68
  -4  -6   3   14.22    0.67
   4  -6  -3   13.77    0.69
   4  -6  -3   11.83    4.48
  -4   6   3   11.64    4.12
   4   6  -3   13.04    1.16
   4   6  -3   13.18    0.74
  -4   6   3   13.20    0.69
  -4   6   3   14.65    0.72
  -2  -6   3   23.98    1.06
  -2  -6   3   21.97    1.06
   2  -6  -3   21.28    1.06
   2   6  -3   21.55    1.12
  -2   6   3   23.27    1.06
  -2   6   3   23.88    1.12
   2   6  -3   20.88    1.53
   2   6  -3   22.14    1.56
   0  -6  -3    0.23    0.45
   0  -6  -3    0.48    0.11
   0  -6   3    0.38    0.10
   0  -6   3    0.41    0.10
   0   6  -3    0.55    0.14
   0   6   3    0.78    0.49
   0   6  -3    0.17    0.57
   0   6   3    0.39    0.13
   2  -6   3   69.97    3.06
  -2  -6  -3   65.16    3.05
   2  -6   3   67.64    3.04
  -2   6  -3   65.04    3.11
   2   6   3   70.18    3.12
  -4  -6  -3   30.04    1.40
   4  -6   3   29.66    1.41
   4   6   3   30.05    1.47
   6  -6   3   17.93    0.88
  -6  -6  -3   17.85    0.87
  -6   6  -3   15.45    0.92
   6   6   3   18.56    0.94
  -8  -6  -3    5.82    0.37
   8  -6   3    5.23    0.37
   8   6   3    5.89    0.43
  10  -6   3    2.64    0.26
 -10  -6  -3    2.56    0.26
  10   6   3    2.55    0.32
 -12  -6  -3    0.29    0.15
  12  -6   3    0.34    0.15
  12   6   3    0.08    0.17
  14  -6   3    0.21    0.15
 -14  -6  -3    0.52    0.19
  14   6   3    0.72    0.21
 -19  -7   3   16.86    0.92
  19  -7  -3   19.48    0.96
 -19   7   3   19.70    0.97
 -17  -7   3    2.26    0.25
  17  -7  -3    2.32    0.27
 -17   7   3    2.43    0.30
  17   7  -3    1.67    0.27
 -15  -7   3   15.95    0.78
  15  -7  -3   17.06    0.81
  15   7  -3   14.44    0.87
 -15   7   3   13.30    0.81
  13  -7  -3   31.94    1.48
 -13  -7   3   30.90    1.48
 -13   7   3   30.21    1.51
  13   7  -3   32.16    1.56
  11  -7  -3   16.34    0.81
 -11  -7   3   17.00    0.82
 -11   7   3   16.76    0.85
  11   7  -3   14.68    0.87
  -9  -7   3   17.59    0.89
   9  -7  -3   18.74    0.90
   9   7  -3   17.54    0.95
  -9   7   3   18.92    0.93
   7  -7  -3   13.09    0.67
  -7  -7   3   13.86    0.68
  -7   7   3   13.50    0.70
   7   7  -3   12.63    0.74
   5  -7  -3   47.85    3.21
  -5  -7   3   48.92    2.25
   5  -7  -3   48.56    2.25
   5   7  -3   43.77    2.30
  -5   7   3   52.13    2.27
  -5   7   3   51.39    2.30
  -5   7   3   53.18    3.00
  -3  -7   3   39.73    1.82
  -3  -7   3   40.60    1.82
   3  -7  -3   38.11    1.82
   3  -7  -3   39.02    2.45
  -3   7   3   40.71    1.88
  -3   7   3   39.32    2.51
   3   7  -3   39.69    2.47
   3   7  -3   37.26    1.88
   3   7  -3   37.27    2.52
  -3   7   3   42.10    1.83
   1  -7  -3   62.13    2.89
  -1  -7   3   64.24    2.90
  -1  -7   3   66.48    2.89
   1   7  -3   67.63    3.63
   1   7  -3   60.31    2.95
  -1   7   3   64.63    2.96
  -1  -7  -3   42.37    2.01
   1  -7   3   44.91    2.01
   1   7   3   43.59    2.08
  -1   7  -3   44.48    2.08
  -3  -7  -3   22.92    1.11
   3  -7   3   22.69    1.12
  -3   7  -3   23.68    1.18
   3   7   3   23.00    1.18
   5  -7   3   93.63    4.12
  -5  -7  -3   91.42    4.10
  -5   7  -3   87.87    4.18
   5   7   3   91.90    4.18
   7  -7   3   68.10    3.07
  -7  -7  -3   68.31    3.06
   7   7   3   65.26    3.12
   9  -7   3   41.33    1.89
  -9  -7  -3   38.66    1.86
  11  -7   3   23.27    1.13
 -11  -7  -3   22.90    1.12
  11   7   3   21.98    1.18
 -13  -7  -3   39.12    1.85
  13  -7   3   41.28    1.85
  13   7   3   37.24    1.90
  16  -8  -3    1.28    0.21
 -16  -8   3    1.18    0.18
  16   8  -3    1.19    0.25
 -16   8   3    1.32    0.22
 -14  -8   3    4.36    0.33
  14  -8  -3    4.35    0.33
  14   8  -3    4.68    0.41
 -14   8   3    4.76    0.38
 -12  -8   3    1.35    0.18
  12  -8  -3    1.38    0.19
 -12   8   3    1.76    0.25
  12   8  -3    1.76    0.26
 -10  -8   3    3.56    0.28
  10  -8  -3    3.41    0.27
 -10   8   3    3.58    0.32
  10   8  -3    2.86    0.32
  -8  -8   3    2.46    0.23
   8  -8  -3    2.62    0.24
   8   8  -3    2.97    0.29
  -8   8   3    2.38    0.28
  -6  -8   3    4.47    0.29
   6  -8  -3    3.89    0.29
  -6   8   3    3.90    0.34
   6   8  -3    4.29    0.36
  -4  -8   3    2.00    0.21
   4  -8  -3    1.82    0.20
   4   8  -3    2.13    0.27
  -4   8   3    2.09    0.30
  -2  -8   3   27.48    1.26
   2  -8  -3   26.32    1.26
  -2   8   3   26.34    1.33
   2   8  -3   25.98    1.33
   0  -8   3    6.09    0.38
   0  -8   3    6.02    0.39
   0  -8  -3    6.54    0.38
   0   8  -3    5.91    0.44
   0   8   3    5.87    0.44
   2  -8   3    0.22    0.13
  -2  -8  -3    0.35    0.12
  -2   8  -3    0.29    0.17
   2   8   3    0.39    0.16
  -4  -8  -3    3.47    0.27
   4  -8   3    3.22    0.29
  -4   8  -3    3.46    0.38
   4   8   3    3.18    0.34
  -6  -8  -3   20.80    1.07
   6  -8   3   22.65    1.09
   6   8   3   22.85    1.16
   8  -8   3    0.48    0.15
  -8  -8  -3    0.46    0.14
   8   8   3    0.38    0.17
 -10  -8  -3    0.78    0.16
  10  -8   3    0.56    0.15
  10   8   3    0.79    0.20
 -12  -8  -3    0.37    0.17
  12  -8   3    0.73    0.18
  12   8   3    0.84    0.23
 -15  -9   3   32.45    1.49
  15  -9  -3   29.89    1.50
  15   9  -3   30.60    1.57
 -15   9   3   32.57    1.53
  13  -9  -3   65.43    3.17
 -13  -9   3   71.00    3.17
 -13   9   3   70.86    3.20
  13   9  -3   71.34    3.25
  11  -9  -3   39.04    1.91
 -11  -9   3   39.11    1.90
 -11   9   3   43.36    1.93
  -9  -9   3   41.25    1.91
   9  -9  -3   41.65    1.91
   9   9  -3   38.84    1.97
  -9   9   3   42.39    1.95
  -7  -9   3   40.33    1.95
   7  -9  -3   39.44    1.95
   7   9  -3   46.69    2.04
  -5  -9   3   92.95    4.15
   5  -9  -3   92.60    4.15
   5   9  -3   90.89    4.23
   3  -9  -3   44.93    2.04
  -3  -9   3   42.64    2.04
   3   9  -3   44.36    2.11
  -1  -9   3   61.27    2.79
   1  -9  -3   59.42    2.77
   1   9  -3   63.27    2.86
  -1   9   3   59.59    2.86
  -1  -9  -3   34.58    1.64
   1   9   3   34.38    1.73
  -1   9  -3   36.24    1.73
   3  -9   3    6.57    0.46
  -3  -9  -3    7.29    0.43
  -3   9  -3    7.21    0.54
   3   9   3    6.78    0.52
  -5  -9  -3   55.20    2.47
   5  -9   3   54.93    2.49
   5   9   3   51.10    2.54
   7  -9   3   19.59    1.02
  -7  -9  -3   20.84    1.01
   7   9   3   20.61    1.09
  -9  -9  -3    6.70    0.42
   9  -9   3    6.56    0.45
   9   9   3    5.99    0.48
  14 -10  -3   -0.19    0.15
 -14 -10   3    0.18    0.13
 -14  10   3   -0.11    0.19
  14  10  -3    0.22    0.19
  12 -10  -3    1.42    0.21
 -12 -10   3    1.27    0.18
  12  10  -3    0.93    0.22
 -12  10   3    1.51    0.27
  10 -10  -3    0.16    0.14
 -10 -10   3   -0.05    0.12
  10  10  -3    0.03    0.15
  -8 -10   3    7.68    0.55
   8 -10  -3   10.42    0.54
   8  10  -3   10.11    0.63
   6 -10  -3    1.89    0.22
  -6 -10   3    2.10    0.26
   6  10  -3    2.02    0.30
   4 -10  -3    0.90    0.16
  -4 -10   3    0.79    0.17
   4  10  -3    1.06    0.22
   2 -10  -3    4.03    0.31
  -2 -10   3    4.15    0.34
   2  10  -3    3.67    0.38
   0 -10  -3    9.10    0.50
   0  10  -3    8.06    0.59
   0  10   3    8.41    0.60
  -2 -10  -3    4.77    0.33
   2  10   3    4.57    0.43
  -2  10  -3    4.70    0.47
  -4 -10  -3   -0.11    0.11
   4  10   3   -0.02    0.16
  -6 -10  -3    4.00    0.31
   6 -10   3    3.98    0.39
   6  10   3    4.11    0.42
  -8 -10  -3    0.06    0.13
   8  10   3    0.11    0.18
  11 -11  -3   10.99    0.61
 -11 -11   3   11.25    0.61
  11  11  -3   10.56    0.68
   9 -11  -3    6.80    0.45
  -9 -11   3    7.43    0.46
   9  11  -3    7.55    0.54
  -7 -11   3   13.32    0.73
   7 -11  -3   13.59    0.73
   7  11  -3   13.89    0.80
  -5 -11   3   11.07    0.65
   5 -11  -3   11.60    0.63
   5  11  -3   11.58    0.72
   3 -11  -3   16.77    0.92
   3  11  -3   20.35    1.02
   1 -11  -3    9.39    0.52
   1  11  -3    8.33    0.60
  -1 -11  -3   19.01    0.94
  -1  11  -3   17.83    1.27
   1  11   3   19.59    1.08
  -3 -11  -3   42.14    1.98
   3  11   3   43.66    2.10
  -5 -11  -3   16.38    0.83
   5  11   3   16.56    0.94
  -8 -12   3    0.22    0.17
   8 -12  -3    0.51    0.17
   8  12  -3    0.78    0.25
   6 -12  -3    0.29    0.15
  -6 -12   3    0.18    0.19
   6  12  -3    0.10    0.20
   4 -12  -3    0.76    0.17
   4  12  -3    0.35    0.22
   2 -12  -3    2.46    0.28
   2  12  -3    2.71    0.35
   0 -12  -3    1.54    0.21
  -2 -12  -3    0.56    0.16
   2  12   3    0.23    0.25
  22   0  -4   18.74    0.93
  20   0  -4   34.26    1.62
 -20   0   4   34.71    1.68
 -18   0   4   82.60    3.74
  18   0  -4   81.39    3.71
  16   0  -4   21.82    1.04
 -16   0   4   21.28    1.07
  14   0  -4   42.38    2.86
 -14   0   4   49.33    2.22
  14   0  -4   50.08    2.21
  12   0  -4   69.03    3.71
  12   0  -4   72.83    3.20
 -12   0   4   68.33    3.69
 -12   0   4   69.78    3.20
 -12   0   4   66.84    5.32
  12   0  -4   75.21    3.19
  10   0  -4    8.04    0.42
 -10   0   4    7.95    2.37
 -10   0   4    8.21    0.44
  10   0  -4    7.39    0.88
  10   0  -4    8.53    0.43
   8   0  -4  170.26   10.50
   8   0  -4  184.46    8.09
  -8   0   4  183.21    8.47
  -8   0   4  188.87    8.10
   6   0  -4   24.96    3.24
   6   0  -4   27.42    1.23
   6   0  -4   28.96    1.25
   6   0  -4   25.93    1.59
  -6   0   4   24.89    3.28
  -6   0   4   27.24    1.25
  -6   0   4   26.15    1.58
  -4   0   4    7.31    0.70
   4   0  -4    8.26    0.39
   4   0  -4    8.39    0.42
   4   0  -4    5.08    2.14
   4   0  -4    8.99    0.72
  -4   0   4    7.01    1.95
  -4   0   4    8.21    0.42
   2   0  -4   80.13    3.97
   2   0  -4   87.61    3.63
  -2   0   4   86.33    3.97
   2   0  -4   81.97    3.58
  -2   0   4   77.67    3.61
   2   0  -4   65.24    5.55
   0   0  -4   99.74    7.36
   0   0   4  118.55    5.25
   0   0   4  120.92    5.27
   0   0   4  125.93    5.61
   0   0  -4  118.64    5.63
   2   0   4   68.97    3.15
   2   0   4   72.30    3.11
  -2   0  -4   66.76    3.07
  -2   0  -4   76.42    5.48
   2   0   4   63.99    3.49
  -2   0  -4   71.01    3.51
  -4   0  -4   28.56    1.25
  -4   0  -4   24.37    1.74
   4   0   4   28.21    1.28
  -4   0  -4   24.94    4.25
   4   0   4   26.71    1.31
   4   0   4   27.43    1.76
  -6   0  -4  192.40    8.32
  -6   0  -4  174.05    8.90
   6   0   4  195.34    8.35
  -6   0  -4  186.68    8.92
   8   0   4   39.38    1.83
   8   0   4   39.18    1.87
  10   0   4   20.44    1.02
 -12   0  -4   85.64    3.94
 -14   0  -4   78.83    3.79
  23  -1  -4    2.06    0.30
  23   1  -4    3.91    0.44
  21  -1  -4    8.05    0.49
  21   1  -4    8.38    0.48
 -21   1   4    8.12    0.57
  19  -1  -4    4.03    0.30
  19   1  -4    3.61    0.29
 -19   1   4    3.96    0.35
 -17  -1   4    6.91    0.47
  17  -1  -4    7.62    0.43
  17   1  -4    7.73    0.44
 -17   1   4    7.03    0.46
  15  -1  -4   33.55    1.53
 -15  -1   4   30.90    1.55
 -15   1   4   32.62    1.55
  15   1  -4   33.39    1.53
  15   1  -4   33.17    2.47
 -13  -1   4    3.00    0.24
  13  -1  -4    2.52    0.24
  13   1  -4    2.66    0.24
  13   1  -4    3.68    0.81
 -13   1   4    2.76    0.24
 -13   1   4    1.82    0.58
 -11  -1   4    1.03    0.14
  11  -1  -4    0.15    0.39
  11  -1  -4    0.69    0.12
 -11  -1   4    0.36    0.48
 -11   1   4    0.98    0.14
  11   1  -4    0.82    0.12
  11   1  -4    0.75    0.13
  -9  -1   4    3.31    0.23
   9  -1  -4    2.00    1.50
   9  -1  -4    3.94    0.19
   9  -1  -4    2.85    0.58
   9  -1  -4    3.43    0.22
  -9  -1   4    3.40    1.62
  -9  -1   4    3.25    0.59
   9   1  -4    3.65    0.22
   9   1  -4    3.39    0.24
  -9   1   4    4.77    1.70
   9   1  -4    3.38    1.67
  -9   1   4    3.37    0.24
   9   1  -4    2.52    0.87
  -9   1   4    3.45    0.57
   7  -1  -4   44.37    2.00
  -7  -1   4   44.23    2.00
   7  -1  -4   46.69    4.24
  -7  -1   4   45.99    2.36
  -7  -1   4   42.73    4.14
   7  -1  -4   46.99    1.99
  -7   1   4   41.90    4.20
  -7   1   4   42.83    2.39
   7   1  -4   41.21    2.01
   7   1  -4   45.00    1.99
   7   1  -4   44.74    2.37
   7   1  -4   45.11    4.27
  -7   1   4   43.97    2.01
  -5  -1   4   26.23    3.27
   5  -1  -4   30.64    1.33
   5  -1  -4   25.99    1.66
   5  -1  -4   29.09    1.34
   5  -1  -4   30.08    3.86
  -5  -1   4   28.18    1.34
  -5  -1   4   27.74    1.64
   5   1  -4   29.53    1.32
   5   1  -4   31.36    1.36
   5   1  -4   29.62    3.54
   5   1  -4   29.23    1.68
  -5   1   4   29.18    3.55
  -5   1   4   28.48    1.68
  -5   1   4   30.62    1.34
  -3  -1   4   -0.50    1.01
  -3  -1   4   -0.03    0.06
   3  -1  -4    0.05    0.04
  -3  -1   4    0.18    0.21
   3  -1  -4   -0.22    0.19
   3  -1  -4   -0.33    1.10
   3   1  -4   -0.11    0.21
  -3   1   4   -0.47    0.22
  -3   1   4    0.44    1.15
   3   1  -4   -1.66    1.20
   3   1  -4    0.03    0.03
  -3   1   4    0.13    0.06
   3   1  -4    0.05    0.06
  -3   1   4    0.00    0.05
   1  -1  -4   -1.43    1.69
   1  -1  -4    0.63    0.07
  -1  -1   4    0.37    0.25
   1  -1  -4    0.40    0.31
  -1  -1   4    0.74    0.10
   1   1  -4    0.90    1.37
   1   1  -4    0.65    0.11
  -1   1   4    0.56    0.30
  -1   1   4    0.64    0.09
  -1   1   4    0.68    0.11
   1   1  -4    0.58    0.29
   1  -1   4   99.62    4.76
  -1  -1  -4   99.56    4.32
  -1  -1  -4  100.47    7.02
   1  -1   4   95.86    4.35
  -1  -1  -4  106.44    4.74
  -1   1  -4   78.10    6.65
  -1   1  -4  102.03    4.77
   1   1   4  100.95    4.38
   1   1   4   92.93    4.34
  -1   1  -4   90.83    4.38
   1   1   4  102.14    4.71
  -3  -1  -4    5.96    0.33
   3  -1   4    6.27    0.36
  -3  -1  -4    9.93    2.06
   3  -1   4    6.49    0.82
  -3  -1  -4    6.77    0.85
   3   1   4    6.99    0.36
   3   1   4    7.20    0.79
   3   1   4    6.82    0.41
   3   1   4    4.25    2.01
  -3   1  -4    9.00    2.42
   5  -1   4    2.93    0.22
  -5  -1  -4    4.17    0.92
  -5  -1  -4    3.14    0.21
   5   1   4    2.61    0.26
  -5   1  -4    3.80    0.76
   5   1   4    2.85    0.22
   5   1   4    3.02    0.69
  -7  -1  -4    7.73    1.15
  -7  -1  -4    6.27    0.37
   7  -1   4    6.80    0.39
   7   1   4    5.66    0.37
   7   1   4    6.49    0.43
  -9  -1  -4   26.73    1.39
   9  -1   4   30.46    1.34
   9   1   4   29.24    1.34
  -9   1  -4   23.50    1.37
   9   1   4   29.81    1.39
  11  -1   4    2.71    0.28
 -11   1  -4    2.79    0.33
  11   1   4    2.28    0.31
  13  -1   4    1.54    0.22
  22  -2  -4    6.70    0.44
  22   2  -4    6.87    0.43
 -22   2   4    7.18    0.54
  20  -2  -4   30.75    1.49
 -20   2   4   30.71    1.53
  20   2  -4   32.73    1.49
  18  -2  -4   52.99    2.40
  18   2  -4   51.77    2.39
 -18   2   4   51.85    2.42
  16  -2  -4   31.82    1.54
 -16   2   4   32.45    1.56
  16   2  -4   34.42    1.55
 -14  -2   4   45.10    2.15
  14  -2  -4   47.77    2.14
  14   2  -4   47.56    2.14
 -14   2   4   45.98    2.15
  14   2  -4   47.05    2.19
  12  -2  -4  157.77    7.56
 -12  -2   4  153.58    7.00
  12  -2  -4  160.02    7.01
 -12  -2   4  148.40    9.63
  12  -2  -4  147.91   11.14
 -12   2   4  179.15   10.01
 -12   2   4  156.16    7.59
  12   2  -4  167.97    7.53
  12   2  -4  152.35    7.04
  12   2  -4  159.38    7.00
 -12   2   4  151.99    7.01
 -10  -2   4  291.35   13.18
  10  -2  -4  294.17   13.30
 -10  -2   4  277.26   15.42
 -10  -2   4  278.91   12.77
 -10   2   4  293.24   13.29
 -10   2   4  282.23   15.55
 -10   2   4  302.02   12.79
   8  -2  -4  212.66    9.50
   8  -2  -4  194.11   12.40
  -8  -2   4  217.76   12.29
   8  -2  -4  226.34    9.96
  -8  -2   4  213.68    9.86
  -8  -2   4  205.93    9.50
  -8   2   4  216.95    9.94
  -8   2   4  208.01    9.51
   8   2  -4  201.79    9.53
   8   2  -4  225.79    9.91
  -8   2   4  225.23   12.61
   8   2  -4  206.55    9.49
   8   2  -4  258.48   14.52
  -6  -2   4  179.02    8.24
  -6  -2   4  191.71   11.24
   6  -2  -4  207.05   11.37
   6   2  -4  184.84    8.23
   6   2  -4  191.17    8.27
  -6   2   4  161.20    8.24
   6   2  -4  183.74   11.10
  -6   2   4  193.69    8.66
  -6   2   4  185.95   11.29
   6   2  -4  195.31    8.60
   4  -2  -4  495.49   21.76
   4  -2  -4  480.56   24.45
  -4  -2   4  498.08   21.76
  -4  -2   4  482.26   24.40
   4   2  -4  478.19   21.76
   4   2  -4  485.76   24.50
  -4   2   4  492.17   21.75
  -4   2   4  465.46   24.42
   2  -2  -4  567.49   26.06
  -2  -2   4  576.05   28.90
  -2  -2   4  554.61   26.05
   2  -2  -4  607.83   28.96
   2   2  -4  578.73   29.12
   2   2  -4  591.46   26.11
  -2   2   4  609.60   26.08
   0  -2  -4  235.02   10.26
   0  -2  -4  258.62   13.43
   0  -2   4  220.96    9.89
   0  -2   4  227.55   10.29
   0   2   4  201.94    9.88
   0   2   4  220.07    9.92
   0   2  -4  231.49   10.31
   0   2  -4  209.96   12.74
   0   2   4  216.39   10.23
  -2  -2  -4   83.95    6.53
  -2  -2  -4   89.05    4.35
   2  -2   4   88.61    4.41
   2  -2   4   84.07    3.95
  -2  -2  -4   87.74    3.93
   2   2   4   89.86    3.94
  -2   2  -4   91.17    3.99
  -2   2  -4   84.64    7.07
  -2   2  -4   92.06    4.45
   2   2   4   91.72    4.00
   2   2   4   84.21    4.30
  -4  -2  -4  130.87    8.43
   4  -2   4  131.87    6.42
   4  -2   4  136.41    5.95
  -4  -2  -4  138.48    5.93
  -4   2  -4  155.13    9.00
  -4   2  -4  132.24    6.46
   4   2   4  133.87    5.93
  -4   2  -4  112.27    5.96
   4   2   4  138.29    6.39
   4   2   4  133.74    5.98
   6  -2   4  128.85    5.87
  -6  -2  -4  135.07    5.86
   6   2   4  136.01    5.86
   6   2   4  125.59    5.91
  -8  -2  -4   35.43    1.76
   8  -2   4   37.03    1.76
   8   2   4   38.79    1.82
  -8   2  -4   39.86    1.82
  10  -2   4    8.76    0.51
 -10   2  -4    9.84    0.59
  10   2   4    8.07    0.56
  12  -2   4   23.75    1.15
  12   2   4   22.20    1.19
  14  -2   4   27.49    1.38
  14   2   4   29.04    1.45
  21  -3  -4   -0.01    0.12
  21   3  -4    0.07    0.13
 -21   3   4   -0.09    0.17
  19   3  -4   28.36    1.35
  17  -3  -4    0.14    0.11
  17   3  -4    0.14    0.11
 -17   3   4   -0.05    0.12
  15  -3  -4    2.03    0.21
  15   3  -4    1.90    0.20
 -15   3   4    1.93    0.24
  15   3  -4    1.80    0.31
  13  -3  -4   19.85    0.95
 -13  -3   4   19.88    0.96
  13   3  -4   20.27    1.01
 -13   3   4   18.99    0.97
  13   3  -4   19.37    0.95
  13   3  -4   18.19    1.78
 -11  -3   4   18.89    0.85
 -11  -3   4   17.52    3.09
  11  -3  -4   17.60    1.47
  11  -3  -4   17.86    0.85
 -11  -3   4   16.69    1.36
 -11   3   4   17.54    1.51
  11   3  -4   17.25    0.85
 -11   3   4   15.92    0.86
  11   3  -4   18.42    0.90
 -11   3   4   17.59    3.13
  -9  -3   4    0.43    0.09
   9  -3  -4    0.45    0.10
  -9  -3   4    2.28    1.69
  -9  -3   4    0.05    0.39
  -9   3   4    1.14    1.81
  -9   3   4    0.34    0.49
   9   3  -4    0.41    0.12
   9   3  -4    0.50    0.10
   9   3  -4    0.29    0.45
  -9   3   4    0.28    0.11
   7  -3  -4   17.57    0.82
   7  -3  -4   15.68    0.79
  -7  -3   4   17.79    0.82
   7  -3  -4   17.30    1.27
   7  -3  -4   17.77    3.29
  -7  -3   4   16.71    1.16
  -7  -3   4   17.93    3.33
   7   3  -4   17.21    3.66
   7   3  -4   17.62    0.86
  -7   3   4   17.19    1.30
  -7   3   4   17.08    3.22
   7   3  -4   17.23    0.81
  -7   3   4   18.38    0.84
   5  -3  -4   55.55    2.37
  -5  -3   4   54.18    2.37
   5  -3  -4   50.96    2.76
  -5  -3   4   53.99    2.36
  -5  -3   4   50.37    2.69
  -5   3   4   57.26    2.39
   5   3  -4   51.55    2.72
   5   3  -4   47.63    2.41
  -5   3   4   49.60    2.76
  -5   3   4   53.62    2.38
  -3  -3   4    8.50    0.39
   3  -3  -4    8.56    0.83
  -3  -3   4    7.73    0.42
   3  -3  -4    8.70    0.42
  -3  -3   4    7.85    0.76
  -3   3   4    8.23    0.44
  -3   3   4    6.66    0.77
   3   3  -4    8.91    0.47
  -3   3   4    8.12    0.43
   1  -3  -4   66.53    6.75
   1  -3  -4   58.43    2.68
  -1  -3   4   63.53    2.70
  -1  -3   4   64.60    3.13
  -1   3   4   60.17    2.69
  -1   3   4   60.84    2.72
   1   3  -4   64.32    3.14
  -1   3   4   56.42    3.04
   1   3  -4   52.55    6.38
   1   3  -4   52.70    2.72
   1  -3   4    3.59    0.57
   1  -3   4    3.36    0.23
  -1  -3  -4    3.19    0.20
  -1  -3  -4    2.15    2.78
   1   3   4    2.76    0.20
  -1   3  -4    2.90    0.24
  -1   3  -4    3.94    0.67
   1   3   4    2.76    0.24
   1   3   4    2.97    0.52
  -1   3  -4    1.59    2.14
   3  -3   4    8.73    1.05
   3  -3   4   11.00    0.54
  -3  -3  -4   10.49    0.52
  -3  -3  -4   14.51    3.17
  -3   3  -4   12.65    4.02
  -3   3  -4    9.80    0.96
   3   3   4   10.71    0.58
   3   3   4   10.98    0.52
   3   3   4    9.71    1.26
  -3   3  -4    8.37    0.55
  -5  -3  -4   17.59    1.54
   5  -3   4   17.15    0.84
  -5  -3  -4   17.96    0.83
  -5   3  -4   14.46    0.87
   5   3   4   17.19    0.82
   5   3   4   18.26    0.90
  -7  -3  -4   14.76    0.87
   7  -3   4   17.00    0.81
  -7   3  -4   15.25    0.85
   7   3   4   16.57    0.86
   9  -3   4    0.64    0.14
   9   3   4    0.23    0.15
  -9   3  -4    0.33    0.18
  11  -3   4    1.07    0.19
  11   3   4    0.74    0.19
  13  -3   4   11.18    0.63
  13   3   4   11.13    0.69
  22  -4  -4   12.79    0.76
 -22   4   4   13.13    0.83
 -20  -4   4   50.77    2.36
  20  -4  -4   49.56    2.35
 -20   4   4   52.64    2.39
  18  -4  -4   37.28    1.72
 -18   4   4   36.18    1.74
  16  -4  -4   30.04    1.48
  16   4  -4   32.02    1.48
  16   4  -4   30.99    1.57
 -16   4   4   32.29    1.51
  14  -4  -4    7.35    0.42
  14   4  -4    7.82    0.49
 -14   4   4    7.12    0.44
  14   4  -4    7.02    0.42
  12  -4  -4   66.85    3.07
  12   4  -4   67.80    3.07
  12   4  -4   67.98    3.13
 -12   4   4   69.10    3.09
 -10  -4   4  248.99   11.12
  10  -4  -4  228.12   11.29
  10  -4  -4  237.27   14.43
 -10  -4   4  262.27   10.74
  10  -4  -4  227.52   10.74
  10   4  -4  231.50   10.80
 -10   4   4  234.96   14.16
 -10   4   4  267.22   10.77
  10   4  -4  241.43   10.75
  10   4  -4  249.39   14.57
 -10   4   4  236.81   11.34
  -8  -4   4    1.85    0.16
  -8  -4   4    0.38    1.85
   8  -4  -4    1.99    0.17
  -8  -4   4    1.67    0.49
  -8   4   4    1.92    0.20
  -8   4   4    0.94    1.90
   8   4  -4    1.88    0.22
  -8   4   4    2.86    0.64
   8   4  -4    2.13    0.54
  -6  -4   4    3.07    0.54
   6  -4  -4    2.64    0.19
   6  -4  -4    2.62    0.53
  -6  -4   4    2.95    0.19
  -6  -4   4    3.29    2.05
  -6  -4   4    2.61    0.19
  -6   4   4    2.61    0.19
  -6   4   4    2.64    0.21
  -6   4   4    3.41    0.61
  -4  -4   4  177.12   11.52
  -4  -4   4  177.99    7.76
  -4  -4   4  169.57    7.78
  -4  -4   4  182.35    8.17
   4  -4  -4  178.31    8.20
   4  -4  -4  178.33    7.78
  -4   4   4  172.69    7.79
   4   4  -4  160.85    7.82
  -4   4   4  174.63   11.60
   4   4  -4  186.57    8.19
  -4   4   4  167.18    7.78
  -4   4   4  183.25    8.25
   2  -4  -4  197.63    8.86
  -2  -4   4  197.27    8.87
  -2  -4   4  194.54    9.25
  -2   4   4  210.10    9.28
  -2   4   4  196.32    8.90
   2   4  -4  193.36    8.91
  -2   4   4  204.06    8.86
   2   4  -4  209.33    9.31
   0  -4  -4   11.13    3.27
   0  -4  -4   11.96    0.57
   0  -4   4   12.13    0.58
   0   4  -4   12.69    3.73
   0   4  -4   10.70    0.60
   0   4   4    9.93    0.56
   0   4   4   12.27    0.62
   0   4  -4   12.60    1.12
   0   4   4   10.64    0.98
   2  -4   4    2.30    0.20
   2  -4   4    2.38    0.63
  -2  -4  -4    2.14    0.18
  -2  -4  -4    2.60    3.80
  -2   4  -4   -0.24    2.89
   2   4   4    2.71    0.18
   2   4   4    2.93    0.25
  -2   4  -4    2.23    0.23
  -2   4  -4    3.37    0.67
   4  -4   4  153.64    6.94
  -4  -4  -4  153.13    6.92
  -4   4  -4  158.38    6.98
   4   4   4  157.65    6.99
  -6  -4  -4   59.28    2.70
   6  -4   4   57.46    2.71
  -6   4  -4   61.43    2.77
   8  -4   4   57.22    2.52
  -8  -4  -4   54.53    2.51
   8   4   4   59.07    2.58
  -8   4  -4   47.94    2.56
 -10  -4  -4   33.52    1.65
  10  -4   4   35.97    1.65
  10   4   4   34.57    1.70
  12  -4   4   17.58    0.93
  12   4   4   18.88    0.99
  14  -4   4   59.96    2.75
  14   4   4   59.32    2.81
 -21  -5   4    3.42    0.30
 -21   5   4    3.34    0.36
  19  -5  -4   10.88    0.59
 -19  -5   4   10.68    0.59
 -19   5   4   10.30    0.61
  17  -5  -4    8.91    0.53
 -17  -5   4    9.39    0.54
 -17   5   4    9.47    0.56
  17   5  -4   10.06    0.65
  15  -5  -4    0.05    0.10
 -15  -5   4    0.01    0.11
 -15   5   4    0.03    0.12
  15   5  -4    0.07    0.14
  13  -5  -4    0.35    0.11
 -13  -5   4    0.37    0.12
 -13   5   4    0.19    0.13
  13   5  -4    0.30    0.15
 -11  -5   4    2.46    0.22
  11  -5  -4    2.52    0.22
  11   5  -4    2.74    0.28
 -11   5   4    2.89    0.25
  -9  -5   4   32.84    1.94
   9  -5  -4   33.71    1.55
   9  -5  -4   29.90    2.14
  -9  -5   4   34.63    1.55
  -9   5   4   35.17    1.57
   9   5  -4   31.23    1.60
   9   5  -4   35.07    2.05
  -7  -5   4    0.02    0.07
   7  -5  -4    0.07    0.07
  -7  -5   4   -0.03    0.07
  -7  -5   4    0.48    0.46
   7  -5  -4    0.02    0.47
   7   5  -4    0.14    0.11
  -7   5   4    0.02    0.10
   7   5  -4    0.38    0.49
  -7   5   4   -0.06    0.54
  -5  -5   4    5.12    2.77
  -5  -5   4    6.18    0.34
  -5  -5   4    6.25    0.34
   5  -5  -4    6.11    0.35
  -5  -5   4    6.36    0.76
  -5   5   4    5.66    0.83
  -5   5   4    5.95    0.36
   5   5  -4    6.19    0.40
  -5   5   4    6.49    0.37
   5   5  -4   10.96    4.24
   5   5  -4    6.74    0.85
   3  -5  -4   11.70    0.58
  -3  -5   4   11.72    0.56
   3  -5  -4   12.12    1.12
  -3  -5   4   11.12    0.58
  -3   5   4   11.32    1.11
  -3   5   4   11.11    0.58
   3   5  -4   13.18    0.66
  -3   5   4   10.42    0.61
   1  -5  -4    4.36    0.27
  -1  -5   4    4.11    0.73
  -1  -5   4    4.29    0.25
  -1  -5   4    4.92    0.29
   1   5  -4    4.98    0.34
  -1   5   4    4.36    0.27
  -1   5   4    4.33    0.32
   1  -5   4   11.08    0.57
  -1  -5  -4   10.58    1.12
  -1  -5  -4   10.85    0.55
   1   5   4   11.20    0.61
  -1   5  -4    9.93    0.61
   3  -5   4   46.17    2.12
   3   5   4   45.93    2.17
   5  -5   4   20.17    0.97
  -5  -5  -4   18.16    0.95
   5   5   4   19.75    1.02
  -5   5  -4   20.28    1.01
   7  -5   4    0.34    0.13
  -7  -5  -4    0.50    0.14
  -7   5  -4    0.15    0.15
   7   5   4    0.48    0.16
  -9  -5  -4    3.40    0.30
   9  -5   4    4.19    0.31
   9   5   4    3.29    0.35
 -11  -5  -4    7.29    0.56
  11  -5   4    8.68    0.50
  11   5   4    8.65    0.57
  13  -5   4   12.26    0.69
  13   5   4   12.60    0.76
  20  -6  -4   14.20    0.75
 -20  -6   4   14.25    0.75
 -20   6   4   14.39    0.78
  18  -6  -4   24.05    1.18
 -18  -6   4   25.42    1.18
 -18   6   4   23.09    1.20
  16  -6  -4   32.63    1.47
 -16  -6   4   30.04    1.46
 -16   6   4   29.62    1.48
  16   6  -4   30.54    1.55
  14  -6  -4   25.72    1.26
 -14  -6   4   26.99    1.27
  14   6  -4   25.39    1.33
 -14   6   4   27.30    1.29
 -12  -6   4   52.27    2.45
  12  -6  -4   54.65    2.45
 -12   6   4   53.50    2.47
  12   6  -4   53.78    2.52
 -10  -6   4   99.63    4.25
  10  -6  -4   98.72    4.25
 -10   6   4   88.95    4.26
  10   6  -4   91.03    4.31
   8  -6  -4   71.78    3.30
  -8  -6   4   74.28    3.31
   8   6  -4   73.81    3.37
  -6  -6   4   78.95    3.48
  -6  -6   4   77.12    3.93
  -6  -6   4   80.49    3.48
   6  -6  -4   81.91    4.94
   6  -6  -4   75.24    3.48
  -6   6   4   74.75    3.50
   6   6  -4   75.65    3.54
  -6   6   4   77.90    3.51
  -4  -6   4  125.73    6.21
  -4  -6   4  133.49    5.72
  -4  -6   4  129.73    5.72
  -4   6   4  122.30    5.73
  -4   6   4  137.09   11.79
  -4   6   4  123.59    5.76
   4   6  -4  126.35    5.83
   4   6  -4  136.68    6.49
  -2  -6   4  133.60    5.55
   2  -6  -4  114.91    5.58
  -2  -6   4  118.92    5.55
  -2   6   4  127.87    5.61
   2   6  -4  119.29    6.08
  -2   6   4  133.90    5.56
   2   6  -4  122.01    5.78
   0  -6   4   73.06    3.36
   0  -6  -4   70.49    3.34
   0   6  -4   83.97    3.43
   0   6  -4   67.80    3.92
   2  -6   4   60.60    2.83
  -2  -6  -4   62.06    2.83
   2   6   4   58.07    2.88
  -2   6  -4   68.54    2.90
  -4  -6  -4   77.22    3.38
   4  -6   4   73.83    3.38
  -4   6  -4   70.26    3.43
   4   6   4   77.39    3.45
  -6  -6  -4   38.34    1.81
   6  -6   4   41.34    1.83
   6   6   4   38.59    1.88
  -6   6  -4   37.98    1.89
  -8  -6  -4   25.20    1.22
   8  -6   4   24.28    1.22
   8   6   4   25.93    1.29
  10  -6   4   21.84    1.12
 -10  -6  -4   23.32    1.14
  10   6   4   23.88    1.20
  12  -6   4   17.14    0.86
  12   6   4   15.91    0.92
  19  -7  -4    5.85    0.40
 -19  -7   4    4.99    0.36
 -19   7   4    5.03    0.40
  17  -7  -4    0.88    0.16
 -17  -7   4    0.71    0.15
  17   7  -4    0.42    0.19
 -17   7   4    1.14    0.27
 -15  -7   4    5.07    0.35
  15  -7  -4    5.14    0.35
  15   7  -4    5.22    0.45
 -15   7   4    4.68    0.40
  13  -7  -4    5.52    0.35
 -13  -7   4    4.95    0.34
 -13   7   4    5.03    0.37
  13   7  -4    5.07    0.42
 -11  -7   4    0.28    0.13
  11  -7  -4    0.29    0.11
  11   7  -4    0.28    0.15
 -11   7   4    0.12    0.13
   9  -7  -4    8.63    0.47
  -9  -7   4    8.22    0.47
   9   7  -4    8.49    0.53
  -9   7   4    8.13    0.50
   7  -7  -4    3.16    0.24
  -7  -7   4    2.86    0.23
  -7   7   4    3.05    0.28
   7   7  -4    2.58    0.30
   5  -7  -4    0.66    0.12
  -5  -7   4    0.51    0.12
  -5   7   4    0.52    0.16
   5   7  -4    0.40    0.15
  -5   7   4    0.40    0.14
  -3  -7   4    5.31    0.33
   3  -7  -4    5.51    0.33
  -3  -7   4    5.06    0.34
   3   7  -4    5.83    0.42
  -3   7   4    5.54    0.40
   3   7  -4    6.30    1.11
   1  -7  -4    3.94    0.27
  -1   7   4    4.15    0.34
   1   7  -4    3.83    0.33
   1  -7   4   31.16    1.50
  -1  -7  -4   32.98    1.49
  -1   7  -4   31.31    1.56
   1   7   4   31.68    1.56
  -3  -7  -4   10.68    0.57
   3  -7   4   10.06    0.58
  -3   7  -4   10.55    0.65
   3   7   4   11.05    0.65
  -5  -7  -4    2.59    0.25
   5  -7   4    2.36    0.25
   5   7   4    2.44    0.29
  -5   7  -4    2.34    0.33
   7  -7   4    6.56    0.41
  -7  -7  -4    6.27    0.41
   7   7   4    6.07    0.46
  -9  -7  -4   16.14    0.85
   9  -7   4   16.21    0.85
   9   7   4   16.94    0.92
 -11  -7  -4    1.44    0.22
  11   7   4    1.65    0.25
 -18  -8   4   26.52    1.26
  18  -8  -4   25.05    1.27
  18   8  -4   25.90    1.37
 -18   8   4   26.49    1.29
  16  -8  -4   23.98    1.18
 -16  -8   4   25.01    1.18
 -16   8   4   24.03    1.21
  16   8  -4   24.08    1.27
  14  -8  -4   43.59    2.07
 -14  -8   4   43.24    2.06
  14   8  -4   45.11    2.15
 -14   8   4   46.32    2.10
  12  -8  -4   22.03    1.15
 -12  -8   4   23.66    1.16
  12   8  -4   25.19    1.24
 -12   8   4   24.91    1.20
 -10  -8   4    2.42    0.24
  10  -8  -4    1.98    0.21
 -10   8   4    2.00    0.24
  -8  -8   4  105.49    4.49
   8  -8  -4  101.07    4.48
   8   8  -4   99.64    4.55
  -8   8   4   92.43    4.50
   6  -8  -4   54.26    2.50
  -6  -8   4   53.16    2.49
   6   8  -4   56.38    2.58
   4  -8  -4   13.84    0.72
  -4  -8   4   14.68    0.73
   4   8  -4   14.34    0.80
   2  -8  -4   13.53    0.68
  -2  -8   4   12.38    0.69
   2   8  -4   13.48    0.75
  -2   8   4   13.41    0.76
   0  -8   4   55.03    2.46
   0  -8  -4   54.01    2.44
   0   8  -4   50.15    2.51
   0   8   4   54.20    2.52
   2  -8   4   84.26    3.72
  -2  -8  -4   79.35    3.69
   2   8   4   83.10    3.78
  -2   8  -4   80.76    3.78
  -4  -8  -4    7.30    0.42
   4  -8   4    6.78    0.44
   4   8   4    7.18    0.50
  -4   8  -4    6.58    0.52
  -6  -8  -4   34.35    1.70
   6  -8   4   35.01    1.83
   6   8   4   38.42    1.79
   8  -8   4   20.13    0.98
  -8  -8  -4   18.98    0.97
   8   8   4   18.49    1.03
 -10  -8  -4   23.02    1.15
  10  -8   4   22.41    1.14
  10   8   4   24.19    1.22
  15  -9  -4    4.33    0.34
 -15  -9   4    3.71    0.30
  15   9  -4    3.54    0.39
 -15   9   4    3.82    0.37
  13  -9  -4    0.54    0.15
 -13  -9   4    0.67    0.16
 -13   9   4    0.39    0.19
  13   9  -4    0.53    0.18
 -11  -9   4    0.25    0.14
  11   9  -4    0.25    0.22
 -11   9   4    0.28    0.19
  -9  -9   4    0.48    0.13
   9  -9  -4    0.38    0.14
  -9   9   4    0.33    0.19
   9   9  -4    0.66    0.18
  -7  -9   4    4.86    0.35
   7  -9  -4    4.81    0.32
   7   9  -4    4.54    0.40
  -5  -9   4    1.22    0.19
   5  -9  -4    1.22    0.18
   5   9  -4    1.21    0.22
   3  -9  -4    0.10    0.11
   3   9  -4    0.05    0.15
   1  -9  -4    1.38    0.18
   1   9  -4    1.48    0.24
  -1   9   4    1.42    0.24
   1  -9   4    1.81    0.24
  -1  -9  -4    1.22    0.17
  -1   9  -4    1.49    0.26
   1   9   4    1.32    0.26
  -3  -9  -4   -0.01    0.10
   3  -9   4    0.15    0.14
   3   9   4    0.13    0.16
  -3   9  -4    0.15    0.19
   5  -9   4   -0.18    0.13
  -5  -9  -4    0.12    0.12
   5   9   4   -0.16    0.16
  -7  -9  -4    0.77    0.16
   7  -9   4    0.73    0.18
   7   9   4    1.06    0.23
  -9  -9  -4    0.78    0.18
   9  -9   4    0.48    0.16
   9   9   4    0.49    0.20
 -14 -10   4   24.37    1.16
  14 -10  -4   22.52    1.16
  14  10  -4   23.24    1.23
 -14  10   4   24.95    1.22
  12 -10  -4   17.29    0.86
 -12 -10   4   17.66    0.86
  12  10  -4   16.71    0.94
 -12  10   4   15.64    0.94
 -10 -10   4    6.58    0.44
  10 -10  -4    7.45    0.44
  10  10  -4    6.81    0.52
  -8 -10   4   29.08    1.42
   8 -10  -4   30.64    1.42
   8  10  -4   29.00    1.48
  -6 -10   4   34.10    1.49
   6 -10  -4   27.30    1.52
   4  10  -4   21.55    1.14
   2  10  -4   15.75    0.89
   0 -10  -4   30.84    1.56
   0  10  -4   34.69    1.68
   0  10   4   34.20    1.68
  -2 -10  -4   35.30    1.65
  -2  10  -4   35.47    1.77
   2  10   4   34.37    1.74
  -4 -10  -4   11.10    0.60
   4 -10   4   10.59    0.65
   4  10   4   10.75    0.68
   6 -10   4   18.02    0.96
  -6 -10  -4   18.76    0.93
   6  10   4   19.12    1.03
 -11 -11   4    0.62    0.18
  11 -11  -4    0.52    0.16
  11  11  -4    0.26    0.18
  -9 -11   4   -0.08    0.15
   9 -11  -4    0.07    0.13
   9  11  -4   -0.03    0.17
   7 -11  -4    2.88    0.27
   7  11  -4    2.68    0.35
   5 -11  -4    5.50    0.36
   5  11  -4    4.76    0.45
   3 -11  -4   -0.06    0.12
   3  11  -4   -0.09    0.19
   1 -11  -4    1.82    0.21
   1  11  -4    1.47    0.28
  -1 -11  -4    4.79    0.35
   1  11   4    4.34    0.49
  -3 -11  -4    0.16    0.13
   3  11   4    0.17    0.21
   6 -12  -4   25.49    1.20
   6  12  -4   23.65    1.28
   4 -12  -4   28.03    1.39
   4  12  -4   30.24    1.50
   2 -12  -4   20.44    1.02
   2  12  -4   20.96    1.13
   0 -12  -4   17.22    0.90
  22   0  -5    0.21    0.12
 -20   0   5   -0.01    0.17
  20   0  -5    0.13    0.13
  18   0  -5   -0.11    0.09
 -18   0   5    0.05    0.14
 -16   0   5   -0.10    0.11
  16   0  -5    0.03    0.09
  14   0  -5   -0.10    0.08
 -14   0   5   -0.05    0.12
 -12   0   5   -0.06    0.09
 -12   0   5    2.09    2.21
  12   0  -5   -0.06    0.07
 -12   0   5   -0.03    0.52
  10   0  -5    0.01    0.44
 -10   0   5    0.81    1.71
 -10   0   5    0.71    0.49
  10   0  -5    2.38    1.99
   8   0  -5   -2.27    1.42
  -8   0   5    0.16    0.38
   8   0  -5    0.02    0.06
   8   0  -5    0.03    0.06
   8   0  -5    0.81    0.41
  -8   0   5    0.06    0.07
   6   0  -5    0.47    0.28
   6   0  -5   -0.01    0.04
  -6   0   5    0.48    2.02
  -6   0   5   -0.05    0.06
  -6   0   5   -0.07    0.33
   6   0  -5    0.06    0.07
  -4   0   5    0.34    0.29
   4   0  -5    0.46    0.35
   2   0  -5    2.29    1.79
   2   0  -5    0.23    0.29
  -2   0   5   -0.05    0.07
  -2   0   5   -0.15    0.24
   0   0  -5    0.04    0.03
   0   0   5    0.06    0.07
   0   0   5    0.13    0.38
   0   0  -5   -0.76    2.22
   0   0   5    0.01    0.08
   0   0  -5   -0.05    0.36
   2   0   5    0.12    0.10
  -2   0  -5    0.10    0.49
   2   0   5    0.04    0.08
   2   0   5   -0.22    0.44
  -2   0  -5    0.21    2.56
   4   0   5   -0.73    0.53
   4   0   5    0.07    0.10
   4   0   5    0.08    0.08
   6   0   5    0.06    0.10
   6   0   5   -0.06    0.09
   8   0   5    0.05    0.12
  10   0   5    0.04    0.14
 -10   0  -5    0.08    0.13
 -12   0  -5    0.05    0.18
  23  -1  -5    6.59    0.42
  23   1  -5    6.27    0.41
  21  -1  -5   91.11    4.19
  21   1  -5   92.56    4.19
 -21   1   5   95.23    4.24
 -19  -1   5   32.08    1.52
  19  -1  -5   31.48    1.47
  19   1  -5   29.86    1.47
 -19   1   5   30.72    1.50
  17  -1  -5    2.62    0.23
 -17  -1   5    2.40    0.28
 -17   1   5    2.11    0.26
  17   1  -5    2.40    0.23
  15  -1  -5   60.87    2.76
 -15  -1   5   57.64    2.78
 -15   1   5   61.41    2.78
  15   1  -5   63.01    2.77
 -13  -1   5  168.56    7.29
  13  -1  -5  165.08    7.88
  13  -1  -5  137.50    7.37
  13   1  -5  152.93    7.30
  13   1  -5  183.02    7.97
  13   1  -5  167.17    7.30
 -13   1   5  175.11    7.30
  11  -1  -5  135.32    6.47
  11  -1  -5  129.49    5.92
 -11  -1   5  126.26    9.12
 -11  -1   5  137.41    6.44
 -11  -1   5  135.59    5.93
 -11   1   5  132.58    5.93
  11   1  -5  135.92    6.65
  11   1  -5  130.91    5.94
  11   1  -5  131.21    5.92
 -11   1   5  131.51    9.01
 -11   1   5  135.46    6.49
   9  -1  -5    6.32    0.35
  -9  -1   5    7.27    0.38
   9  -1  -5    7.76    2.40
   9  -1  -5    7.39    0.86
  -9  -1   5    6.40    0.79
   9  -1  -5    6.96    0.36
  -9  -1   5    4.73    2.53
  -9   1   5    6.40    0.38
  -9   1   5    7.23    0.88
   9   1  -5    4.35    2.67
   9   1  -5    7.30    0.87
  -9   1   5    4.58    2.70
   9   1  -5    6.79    0.39
   7  -1  -5  262.82   15.23
   7  -1  -5  268.89   12.29
  -7  -1   5  274.78   15.12
  -7  -1   5  267.10   12.23
  -7  -1   5  256.01   11.84
  -7   1   5  277.15   15.34
  -7   1   5  264.43   11.84
   7   1  -5  276.13   12.27
   7   1  -5  274.00   15.42
   7   1  -5  261.03   11.82
  -7   1   5  269.98   12.27
   5  -1  -5  337.69   15.23
  -5  -1   5  330.51   15.20
   5   1  -5  336.84   15.24
  -5   1   5  336.72   15.23
  -3  -1   5   99.06    4.38
  -3  -1   5   99.54    4.79
   3  -1  -5   99.68    4.35
  -3  -1   5   98.37    7.68
   3  -1  -5   91.89    4.78
   3  -1  -5  105.83    7.66
  -3   1   5   98.85    4.40
   3   1  -5  101.93    4.82
  -3   1   5   84.60    7.21
  -3   1   5  104.31    4.38
   3   1  -5  101.71    7.61
  -3   1   5  101.40    4.79
   3   1  -5   88.24    4.40
  -1  -1   5  174.68    7.59
  -1  -1   5  166.23    7.99
   1  -1  -5  151.83   10.62
   1  -1  -5  177.86    8.03
   1  -1  -5  171.78    7.55
   1   1  -5  175.19    7.62
   1   1  -5  178.70    8.05
  -1   1   5  159.21    7.58
  -1   1   5  174.39    7.62
   1   1  -5  174.73   11.01
  -1  -1  -5   99.74    4.61
   1  -1   5  102.85    5.11
   1  -1   5  108.28    4.65
  -1  -1  -5  106.59    7.86
  -1  -1  -5  106.97    5.12
  -1   1  -5  125.92    8.78
   1   1   5   89.23    4.63
   1   1   5  112.12    5.11
  -1   1  -5  100.42    4.68
   1   1   5  102.56    4.68
  -1   1  -5  107.32    5.13
  -3  -1  -5  120.62    8.89
  -3  -1  -5  124.58    5.50
   3  -1   5  120.57    6.03
   3  -1   5  122.25    5.53
   3   1   5  134.62    6.05
   3   1   5  129.54    5.58
  -3   1  -5  119.74    5.57
   3   1   5  119.15    5.53
  -5  -1  -5   50.40    3.26
   5  -1   5   55.95    2.61
  -5   1  -5   64.37    2.67
   5   1   5   56.00    2.65
   5   1   5   56.50    2.61
   7  -1   5   71.63    3.11
  -7   1  -5   63.82    3.15
   7   1   5   66.84    3.10
   7   1   5   70.12    3.15
   9  -1   5   41.30    1.93
  -9   1  -5   42.25    2.00
   9   1   5   40.43    1.98
  11  -1   5   16.55    1.01
 -13  -1  -5   38.99    1.92
  22  -2  -5    2.30    0.25
 -22   2   5    1.60    0.27
  22   2  -5    2.25    0.24
  20  -2  -5    2.10    0.22
  20   2  -5    1.48    0.19
  18  -2  -5    0.63    0.14
 -18   2   5    0.50    0.16
  18   2  -5    0.71    0.14
  16  -2  -5    0.17    0.11
 -16  -2   5    0.09    0.14
 -16   2   5    0.39    0.14
  16   2  -5    0.37    0.11
 -14  -2   5    1.03    0.16
 -14  -2   5    2.15    0.79
  14  -2  -5    1.24    0.16
  14   2  -5    1.36    0.16
 -14   2   5    1.02    0.17
  14   2  -5    3.17    1.28
  14   2  -5    1.15    0.19
  12  -2  -5   46.12    2.77
 -12  -2   5   51.67    2.19
  12  -2  -5   47.67    2.17
 -12  -2   5   44.21    4.97
  12   2  -5   46.64    2.73
  12   2  -5   49.23    2.21
  12   2  -5   47.13    2.17
 -12   2   5   45.57    2.19
 -12   2   5   43.83    5.16
 -10  -2   5   28.17    4.46
  10  -2  -5   32.43    1.45
  10  -2  -5   32.07    2.00
 -10  -2   5   30.26    1.45
 -10  -2   5   29.54    1.90
 -10   2   5   32.88    1.47
 -10   2   5   32.76    4.45
  10   2  -5   31.20    1.48
  10   2  -5   33.08    1.45
 -10   2   5   27.55    1.95
  -8  -2   5    1.43    0.49
   8  -2  -5    1.92    0.49
  -8  -2   5   -0.42    1.49
   8  -2  -5    1.72    0.14
   8  -2  -5    1.93    0.15
  -8  -2   5    1.82    0.17
   8   2  -5    1.88    0.15
  -8   2   5    3.21    2.06
   8   2  -5    2.33    0.53
   8   2  -5    1.95    0.20
  -8   2   5    2.42    0.55
  -8   2   5    1.88    0.19
   6  -2  -5   40.81    2.32
  -6  -2   5   41.35    1.91
  -6  -2   5   41.56    2.30
   6  -2  -5   42.25    1.90
   6  -2  -5   45.87    1.91
  -6   2   5   39.65    2.32
  -6   2   5   41.31    1.91
   6   2  -5   42.96    2.36
   6   2  -5   42.36    1.94
   6   2  -5   40.04    1.88
  -4  -2   5   22.07    0.99
  -4  -2   5   19.01    1.34
  -4  -2   5   21.12    0.94
   4  -2  -5   20.06    1.39
   4  -2  -5   22.01    0.97
   4   2  -5   22.50    1.45
  -4   2   5   22.31    1.42
  -4   2   5   18.99    0.98
  -4   2   5   18.18    4.14
  -4   2   5   20.50    1.00
   4   2  -5   21.11    1.02
  -2  -2   5   23.28    1.08
   2  -2  -5   21.58    1.47
  -2  -2   5   21.47    1.43
   2  -2  -5   23.18    1.05
   2  -2  -5   25.55    4.51
  -2   2   5   24.07    1.50
  -2   2   5   22.60    1.07
   2   2  -5   21.72    1.10
   2   2  -5   25.04    1.56
  -2   2   5   22.99    1.10
   2   2  -5   24.30    4.15
   0  -2  -5   17.43    0.82
   0  -2   5   16.98    1.32
   0  -2   5   17.68    0.85
   0  -2  -5   18.87    4.06
   0   2   5   18.08    0.84
   0   2  -5   16.96    1.33
   0   2   5   16.17    1.29
   0   2   5   17.33    0.88
   0   2  -5   17.59    3.78
   0   2  -5   17.91    0.88
  -2  -2  -5   33.81    5.42
   2  -2   5   28.09    2.02
  -2  -2  -5   35.63    2.28
  -2  -2  -5   32.35    1.52
   2  -2   5   32.06    1.55
  -2   2  -5   34.64    1.59
   2   2   5   35.91    1.54
  -2   2  -5   32.73    5.12
   2   2   5   33.67    1.59
   4  -2   5    9.83    0.52
  -4  -2  -5   10.02    0.50
  -4   2  -5    9.44    0.56
   4   2   5    9.73    0.56
   4   2   5    9.08    0.51
  -6  -2  -5    0.45    0.13
   6  -2   5    0.75    0.14
   6   2   5    0.57    0.13
  -6   2  -5    0.41    0.14
   6   2   5    0.98    0.18
   8  -2   5    0.75    0.15
   8   2   5    0.80    0.18
  -8   2  -5    0.91    0.19
  10  -2   5    6.40    0.43
  10   2   5    6.66    0.48
 -10   2  -5    7.31    0.53
  12  -2   5    0.16    0.14
 -12   2  -5    0.26    0.24
  12   2   5    0.43    0.19
  21  -3  -5   16.89    0.85
 -21   3   5   16.30    0.89
  21   3  -5   16.97    0.85
  19  -3  -5   23.76    1.09
  19   3  -5   18.49    1.09
 -19   3   5   24.43    1.13
  17  -3  -5   48.38    2.23
  17   3  -5   48.10    2.23
 -17   3   5   48.62    2.25
  15  -3  -5   65.06    2.83
 -15  -3   5   57.52    2.85
  15   3  -5   62.62    2.82
  15   3  -5   64.68    2.90
 -15   3   5   60.65    2.84
 -13  -3   5   84.87    4.25
 -13  -3   5   76.11    3.63
  13  -3  -5   79.45    3.63
  13   3  -5   79.43    4.23
  13   3  -5   82.05    3.63
 -13   3   5   79.66    3.65
  13   3  -5   84.08    3.69
 -11  -3   5   32.09    4.87
  11  -3  -5   34.08    2.18
  11  -3  -5   36.01    1.66
 -11  -3   5   37.30    1.67
 -11  -3   5   34.84    2.21
 -11   3   5   47.25    6.17
 -11   3   5   37.10    1.68
  11   3  -5   35.91    1.66
  11   3  -5   35.14    1.71
   9  -3  -5   73.28    3.35
   9  -3  -5   79.46    3.92
  -9  -3   5   77.62    3.82
  -9  -3   5   75.49    3.36
  -9   3   5   76.47    3.38
  -9   3   5   74.65    7.32
   9   3  -5   76.38    3.84
   9   3  -5   70.98    3.40
  -9   3   5   68.37    3.86
   9   3  -5   75.58    3.35
  -7  -3   5   76.76    8.18
  -7  -3   5   69.83    3.19
  -7  -3   5   67.98    3.60
   7  -3  -5   71.13    3.19
   7   3  -5   81.44    3.92
   7   3  -5   68.25    3.23
  -7   3   5   68.37    3.65
  -7   3   5   73.29    3.21
   7   3  -5   69.35    3.17
   5  -3  -5  210.39   13.29
   5  -3  -5  213.97    9.41
   5  -3  -5  193.00    8.91
  -5  -3   5  193.25   12.71
  -5  -3   5  188.14    8.92
  -5  -3   5  208.79    9.37
  -5   3   5  222.84    9.42
  -5   3   5  198.70   13.07
   5   3  -5  187.37    8.96
   5   3  -5  205.34    9.38
  -5   3   5  208.83    8.93
  -5   3   5  191.39    8.93
  -3  -3   5   83.66    4.26
  -3  -3   5   85.64    3.84
   3  -3  -5   85.63    3.82
   3  -3  -5   82.00    4.25
  -3   3   5   87.85    4.28
   3   3  -5   84.20    3.87
   3   3  -5   82.32    4.27
  -3   3   5   91.23    3.84
  -3   3   5   86.89    3.86
   1  -3  -5    0.78    0.10
  -1  -3   5    0.60    0.38
  -1  -3   5    0.46    0.10
   1  -3  -5    0.34    0.42
   1  -3  -5    1.47    2.84
  -1   3   5    0.86    0.46
  -1   3   5    0.48    0.10
   1   3  -5    1.78    2.69
   1   3  -5    0.58    0.48
   1   3  -5    0.45    0.13
  -1   3   5    0.49    0.11
   1  -3   5   96.00    4.85
  -1  -3  -5   97.44    8.74
  -1  -3  -5  101.52    4.32
   1  -3   5   97.52    4.34
  -1   3  -5   97.57    8.95
   1   3   5   98.80    4.80
   1   3   5   93.46    4.33
   1   3   5   94.72    4.38
  -1   3  -5   96.46    4.85
  -1   3  -5   95.68    4.38
   3  -3   5  144.38    6.10
  -3  -3  -5  137.10    6.07
   3   3   5  140.22    6.08
  -3   3  -5  116.89    6.12
   3   3   5  147.59    6.64
   3   3   5  135.38    6.14
  -5  -3  -5   49.54    2.29
   5  -3   5   48.85    2.30
   5   3   5   50.02    2.35
  -5   3  -5   51.99    2.36
   7  -3   5    1.10    0.16
  -7   3  -5    1.35    0.22
   7   3   5    1.51    0.24
   9  -3   5   34.23    1.69
  -9   3  -5   36.20    1.76
   9   3   5   37.10    1.76
  11  -3   5   98.19    4.41
  11   3   5   96.78    4.46
  13  -3   5   13.51    0.75
  13   3   5   13.83    0.81
  22  -4  -5    0.03    0.12
 -22  -4   5   -0.13    0.13
 -22   4   5   -0.05    0.16
  20  -4  -5    3.45    0.29
 -20   4   5    4.12    0.36
  18  -4  -5    1.84    0.22
 -18   4   5    2.09    0.26
  18   4  -5    2.38    0.24
  16  -4  -5    0.13    0.10
  16   4  -5    0.04    0.11
 -16   4   5    0.05    0.12
  16   4  -5   -0.15    0.15
  14  -4  -5    0.74    0.13
 -14   4   5    0.60    0.14
  14   4  -5    0.53    0.17
  14   4  -5    0.73    0.13
  12  -4  -5    8.27    0.47
 -12  -4   5    9.30    0.49
  12   4  -5    8.68    0.48
 -12   4   5    8.34    0.50
  12   4  -5    8.93    0.54
  10  -4  -5   12.90    1.30
 -10  -4   5   13.29    1.21
  10  -4  -5   13.43    0.68
 -10  -4   5   14.46    0.68
  10   4  -5   12.50    0.72
  10   4  -5   13.19    0.67
  10   4  -5   16.27    1.40
 -10   4   5   13.67    0.70
  -8  -4   5    0.02    0.08
   8  -4  -5   -0.05    0.50
   8  -4  -5   -0.04    0.07
  -8  -4   5   -0.01    0.07
  -8  -4   5    0.13    0.47
  -8   4   5   -0.39    0.38
  -8   4   5    0.07    0.10
   8   4  -5    0.04    0.11
   8   4  -5   -0.03    0.52
  -6  -4   5    5.58    3.04
  -6   4   5    2.78    3.89
   4  -4  -5    9.00    0.45
  -4  -4   5    8.48    0.42
  -4  -4   5    7.57    0.93
  -4  -4   5    8.58    0.46
   4  -4  -5   10.22    3.97
   4   4  -5    7.05    0.89
  -4   4   5   11.47    1.04
   4   4  -5    9.16    0.51
  -4   4   5    8.73    0.47
  -4   4   5    8.32    0.48
  -2  -4   5    9.68    0.50
  -2  -4   5    9.01    0.98
   2  -4  -5    9.67    0.49
   2   4  -5    9.99    1.10
  -2   4   5   10.98    1.12
  -2   4   5    9.55    0.50
   2   4  -5    8.87    0.54
  -2   4   5    9.24    0.53
   0  -4  -5    4.91    0.30
   0  -4   5    4.83    0.31
   0  -4  -5    5.56    3.59
   0  -4   5    4.81    0.79
   0   4  -5    4.88    0.35
   0   4  -5    0.56    4.74
   0   4   5    4.97    0.36
   0   4  -5    6.01    0.83
   0   4   5    5.54    0.31
  -2  -4  -5   11.88    1.31
   2  -4   5   11.15    0.60
  -2  -4  -5   11.63    0.59
   2   4   5   11.49    0.64
  -2   4  -5   11.34    0.65
   2   4   5   10.90    1.32
   4  -4   5    0.78    0.14
  -4   4  -5    0.75    0.17
   4   4   5    0.69    0.17
   6  -4   5    0.37    0.13
  -6  -4  -5    0.38    0.14
  -6   4  -5    0.35    0.16
   6   4   5    0.27    0.15
  -8  -4  -5    8.38    0.51
   8  -4   5    7.86    0.49
  -8   4  -5    9.46    0.59
   8   4   5    7.82    0.54
  10  -4   5    5.83    0.40
  10   4   5    6.02    0.46
  12  -4   5   -0.14    0.13
  12   4   5   -0.15    0.17
  21  -5  -5    2.11    0.23
 -21  -5   5    1.56    0.21
 -21   5   5    2.50    0.30
 -19  -5   5   11.88    0.67
  19  -5  -5   12.25    0.66
 -19   5   5   13.19    0.71
 -17  -5   5   39.13    1.85
  17  -5  -5   39.58    1.84
  17   5  -5   36.32    2.06
 -17   5   5   42.33    1.87
 -15  -5   5   43.54    1.93
  15  -5  -5   40.03    1.91
  15   5  -5   40.85    2.00
 -15   5   5   40.88    1.94
 -13  -5   5   48.08    2.28
  13  -5  -5   49.40    2.28
 -13   5   5   52.65    2.31
  13   5  -5   48.86    2.34
  11  -5  -5   40.11    1.84
 -11  -5   5   41.14    1.85
 -11   5   5   37.64    1.86
  11   5  -5   40.82    1.91
  -9  -5   5  120.54    5.32
  -9  -5   5  116.61    5.78
  -9  -5   5  123.83    5.32
   9  -5  -5  118.99    5.32
   9   5  -5  115.25    5.38
  -7  -5   5   72.68    3.67
  -7  -5   5   72.15    3.15
  -7  -5   5   73.57    3.15
   7  -5  -5   67.82    3.15
   7  -5  -5   58.86    3.87
  -7   5   5   67.34    3.72
  -7   5   5   74.35    3.17
   7   5  -5   68.48    3.21
   5  -5  -5  193.26    8.74
  -5  -5   5  193.20    8.74
   5  -5  -5  188.46    9.31
  -5  -5   5  190.72    8.73
   5   5  -5  227.49    8.83
  -5   5   5  201.74    9.32
  -5   5   5  191.48    8.75
  -5   5   5  193.66    8.77
   5   5  -5  193.48    9.28
   3  -5  -5  165.83    7.72
  -3  -5   5  170.75    7.73
  -3   5   5  168.64    7.77
  -3   5   5  190.58    7.73
  -1  -5   5   26.37    1.23
   1  -5  -5   25.90    1.22
  -1   5   5   26.82    1.28
  -1   5   5   21.72    1.73
  -1   5   5   28.88    1.23
   1   5  -5   23.95    1.27
   1  -5   5  127.75    5.77
  -1   5  -5  124.97    5.82
   1   5   5  134.48    5.83
   3  -5   5  143.54    6.57
  -3  -5  -5  149.61    6.56
  -3   5  -5  150.33    6.62
   3   5   5  145.18    6.62
  -5  -5  -5   72.03    3.50
   5  -5   5   78.23    3.51
   5   5   5   72.69    3.56
  -5   5  -5   86.60    3.59
   7  -5   5    7.30    0.43
  -7  -5  -5    6.68    0.42
   7   5   5    6.29    0.46
  -7   5  -5    6.18    0.49
   9  -5   5   36.02    1.70
   9   5   5   35.74    1.76
  11  -5   5   80.34    3.64
  11   5   5   79.61    3.70
 -20  -6   5    0.26    0.14
  20  -6  -5    0.21    0.14
 -20   6   5   -0.09    0.14
  18  -6  -5    0.06    0.12
 -18  -6   5    0.08    0.13
  18   6  -5    0.01    0.22
 -18   6   5    0.14    0.15
  16  -6  -5   19.06    0.93
 -16  -6   5   17.84    0.93
  16   6  -5   18.32    1.02
 -16   6   5   18.73    0.95
  14  -6  -5    9.12    0.49
 -14  -6   5    8.18    0.48
  14   6  -5    9.11    0.58
 -14   6   5    7.43    0.50
 -12  -6   5   25.44    1.21
  12  -6  -5   25.07    1.20
  12   6  -5   24.64    1.27
 -12   6   5   25.49    1.23
  10  -6  -5   19.20    0.96
 -10  -6   5   19.45    0.96
 -10   6   5   20.96    0.99
  10   6  -5   19.17    1.02
   8  -6  -5   37.62    1.82
  -8  -6   5   42.13    1.83
   8   6  -5   39.83    1.89
  -8   6   5   38.76    1.85
  -6  -6   5    0.90    0.79
  -6  -6   5    0.81    0.13
  -6  -6   5    0.98    0.14
   6  -6  -5    0.73    0.12
  -6   6   5    0.65    0.15
   6   6  -5    0.70    0.17
  -6   6   5    0.85    0.15
   6   6  -5    1.10    0.83
  -4  -6   5   23.17    1.08
   4  -6  -5   22.42    1.07
  -4  -6   5   20.28    1.77
  -4   6   5   22.45    1.12
  -4   6   5   23.54    1.09
   4   6  -5   21.06    1.13
   4   6  -5   23.13    1.76
   2  -6  -5    0.15    0.09
   2   6  -5    0.10    0.12
  -2   6   5   -0.14    0.10
   0  -6   5   36.58    1.64
   0  -6  -5   35.02    1.61
   0   6   5   35.57    1.69
   0   6  -5   31.98    1.67
  -2  -6  -5    7.86    0.45
   2  -6   5    8.12    0.47
  -2   6  -5    8.09    0.52
   2   6   5    8.06    0.51
  -4  -6  -5    3.54    0.29
   4  -6   5    3.80    0.30
  -4   6  -5    4.27    0.36
   4   6   5    4.39    0.36
   6  -6   5   12.70    0.69
  -6  -6  -5   13.16    0.69
  -6   6  -5   13.45    0.79
   6   6   5   12.55    0.75
  -8  -6  -5    0.45    0.18
   8  -6   5    0.17    0.13
   8   6   5    0.44    0.18
  10  -6   5    4.06    0.32
  10   6   5    3.79    0.38
 -19  -7   5   29.41    1.41
  19  -7  -5   30.45    1.42
 -19   7   5   28.68    1.45
  17  -7  -5   15.47    0.81
 -17  -7   5   16.39    0.82
 -17   7   5   15.94    0.86
  15  -7  -5   26.02    1.26
 -15  -7   5   26.20    1.27
  15   7  -5   27.02    1.35
 -15   7   5   26.13    1.29
  13  -7  -5   41.88    1.82
 -13  -7   5   36.47    1.81
 -13   7   5   37.71    1.84
  13   7  -5   39.72    1.90
 -11  -7   5   50.60    2.39
  11  -7  -5   52.71    2.39
 -11   7   5   51.99    2.42
  11   7  -5   53.09    2.47
  -9  -7   5   16.62    0.82
   9  -7  -5   16.59    0.81
  -9   7   5   15.29    0.83
   9   7  -5   15.84    0.88
   7  -7  -5   29.76    1.43
   7   7  -5   29.53    1.50
  -7   7   5   32.45    1.47
   5  -7  -5   18.38    0.91
  -5  -7   5   18.63    0.92
  -5   7   5   19.81    0.94
   5   7  -5   17.95    0.98
  -3  -7   5   24.99    1.16
   3  -7  -5   22.23    1.14
   3   7  -5   25.23    1.22
  -3   7   5   23.59    1.21
  -1  -7   5   49.03    2.26
   1  -7  -5   51.32    2.26
  -1   7   5   50.14    2.32
   1   7  -5   45.80    2.31
  -1  -7  -5    8.31    0.46
   1  -7   5    7.74    0.47
  -1   7  -5    8.07    0.54
   1   7   5    8.08    0.53
  -3  -7  -5   10.29    0.57
   3  -7   5   10.26    0.59
   3   7   5   10.61    0.64
  -3   7  -5   10.84    0.66
  -5  -7  -5   18.59    0.92
   5  -7   5   18.59    0.92
  -5   7  -5   16.09    0.99
   5   7   5   19.69    1.00
   7  -7   5   39.02    1.90
  -7  -7  -5   41.19    1.92
   7   7   5   41.87    1.97
   9  -7   5   17.95    0.92
  -9  -7  -5   18.69    0.96
   9   7   5   18.08    1.00
 -18  -8   5    7.49    0.45
 -18   8   5    6.97    0.48
  18   8  -5    6.80    0.56
  16  -8  -5    0.11    0.13
 -16  -8   5   -0.12    0.12
 -16   8   5    0.04    0.16
  16   8  -5    0.14    0.18
  14  -8  -5   -0.07    0.11
 -14   8   5   -0.05    0.16
  14   8  -5    0.00    0.16
 -12  -8   5   18.74    0.96
  12  -8  -5   18.73    0.94
  12   8  -5   19.93    1.03
 -12   8   5   18.91    0.99
 -10  -8   5    7.79    0.46
  10  -8  -5    7.42    0.45
  10   8  -5    7.84    0.53
 -10   8   5    8.42    0.51
   8  -8  -5    0.07    0.11
  -8  -8   5    0.01    0.11
  -8   8   5    0.31    0.16
   8   8  -5   -0.01    0.14
   6  -8  -5    0.00    0.10
   6   8  -5   -0.02    0.13
   4  -8  -5    9.31    0.52
   4   8  -5    9.48    0.58
   2  -8  -5    1.86    0.20
  -2  -8   5    1.63    0.21
   2   8  -5    1.99    0.28
  -2   8   5    1.80    0.26
   0  -8   5    4.66    0.35
   0  -8  -5    5.14    0.34
   0   8   5    4.63    0.40
   0   8  -5    4.71    0.40
   2  -8   5    0.95    0.16
  -2  -8  -5    0.64    0.16
   2   8   5    0.75    0.20
  -2   8  -5    1.03    0.23
  -4  -8  -5    0.11    0.12
   4  -8   5   -0.04    0.12
  -4   8  -5   -0.02    0.19
   6  -8   5    0.16    0.14
  -6  -8  -5    0.23    0.14
   6   8   5    0.11    0.17
   8  -8   5    4.21    0.35
  -8  -8  -5    3.91    0.35
   8   8   5    3.89    0.38
 -17  -9   5    5.64    0.39
  17  -9  -5    5.06    0.38
  17   9  -5    5.20    0.48
 -17   9   5    5.34    0.44
  15  -9  -5   14.17    0.78
 -15  -9   5   15.44    0.80
 -15   9   5   16.59    0.85
  15   9  -5   15.09    0.87
 -13  -9   5   22.89    1.15
  13  -9  -5   22.73    1.14
  13   9  -5   24.43    1.23
 -13   9   5   23.98    1.19
 -11  -9   5   47.46    2.11
  11  -9  -5   44.34    2.09
 -11   9   5   48.00    2.14
  11   9  -5   40.93    2.15
  -9  -9   5   23.25    1.14
   9  -9  -5   22.23    1.12
   9   9  -5   24.07    1.21
   7  -9  -5   65.08    2.93
   7   9  -5   63.79    3.01
   5  -9  -5   35.23    1.62
   5   9  -5   33.75    1.69
   3  -9  -5   39.29    1.85
   3   9  -5   40.23    1.94
  -1  -9   5  110.97    5.09
   1  -9  -5  112.36    4.99
  -1   9   5  109.10    5.08
   1   9  -5  112.48    5.07
  -1  -9  -5   35.75    1.78
   1  -9   5   35.03    1.70
   1   9   5   36.45    1.77
  -1   9  -5   35.44    1.76
   3  -9   5   24.10    1.15
  -3  -9  -5   20.80    1.11
   3   9   5   23.49    1.21
  -3   9  -5   23.73    1.25
   5  -9   5   27.44    1.34
  -5  -9  -5   26.04    1.32
   5   9   5   28.93    1.41
  -7  -9  -5   62.18    2.78
   7  -9   5   59.64    2.79
   7   9   5   60.09    2.85
 -14 -10   5    3.19    0.32
  14 -10  -5    3.96    0.32
 -14  10   5    3.89    0.41
  14  10  -5    4.01    0.38
 -12 -10   5    9.89    0.56
  12 -10  -5    8.43    0.52
  12  10  -5    9.30    0.61
  10 -10  -5    4.83    0.34
 -10 -10   5    4.66    0.38
  10  10  -5    4.40    0.42
   8 -10  -5    1.03    0.17
   8  10  -5    0.86    0.22
   6 -10  -5    9.75    0.53
   6  10  -5    8.29    0.60
   4 -10  -5    1.76    0.22
   4  10  -5    2.05    0.29
   2 -10  -5    1.88    0.22
   2  10  -5    1.57    0.28
   0 -10  -5    3.57    0.30
   0  10  -5    4.09    0.43
   0  10   5    3.38    0.42
   2 -10   5    6.15    0.50
  -2 -10  -5    5.86    0.39
   2  10   5    5.79    0.50
  -2  10  -5    6.25    0.72
  -4 -10  -5    5.20    0.36
   4 -10   5    4.97    0.42
   4  10   5    4.82    0.44
  11 -11  -5    7.25    0.45
  11  11  -5    7.63    0.55
   9 -11  -5   26.92    1.34
   9  11  -5   29.31    1.44
   7 -11  -5   16.68    0.83
   7  11  -5   15.66    0.91
   5 -11  -5    8.02    0.47
   5  11  -5    7.94    0.58
   3 -11  -5    7.21    0.46
   3  11  -5    7.78    0.57
   1 -11  -5    5.89    0.41
   1  11  -5    6.94    0.53
  -1 -11  -5   18.13    0.93
  -1  11  -5   18.63    1.20
  22   0  -6   25.38    1.23
 -20   0   6   35.30    1.55
  20   0  -6   27.11    1.60
  18   0  -6   39.82    1.87
 -18   0   6   40.46    1.90
  16   0  -6  102.26    4.70
 -16   0   6  107.61    4.73
 -14   0   6  256.67   11.43
  14   0  -6  258.52   11.42
  12   0  -6   10.08    0.54
 -12   0   6   10.39    0.55
 -12   0   6   10.06    1.19
  12   0  -6   10.34    0.53
 -12   0   6   10.49    2.96
  10   0  -6   41.03    2.45
 -10   0   6   38.28    2.37
  10   0  -6   42.40    1.89
 -10   0   6   36.49    7.19
  10   0  -6   43.28    1.92
 -10   0   6   41.40    1.91
  -8   0   6  290.12   13.11
   8   0  -6  294.61   13.60
  -8   0   6  305.23   13.61
   6   0  -6  323.55   18.47
  -6   0   6  313.68   13.68
   6   0  -6  300.69   13.67
  -6   0   6  283.44   13.17
   6   0  -6  280.51   13.19
  -4   0   6    3.56    0.61
   4   0  -6    2.66    0.15
   4   0  -6    2.49    0.59
  -4   0   6    2.35    0.20
   4   0  -6    2.22    0.21
   2   0  -6    0.63    0.13
  -2   0   6    0.96    0.50
   2   0  -6    3.57    2.68
   2   0  -6    1.31    0.54
  -2   0   6    0.51    0.11
   0   0  -6  218.20    9.79
   0   0   6  208.25    9.74
   0   0  -6  195.68    9.28
   0   0   6  217.23    9.26
   0   0  -6  201.21   14.19
   4   0   6    5.55    0.36
   6   0   6   22.41    1.12
  -6   0  -6   23.31    1.16
   8   0   6   17.94    0.91
  -8   0  -6   17.34    0.96
 -10   0  -6   25.68    1.32
 -12   0  -6    9.02    0.64
  23  -1  -6    3.42    0.29
 -23   1   6    3.91    0.44
  23   1  -6    3.57    0.30
  21  -1  -6    1.13    0.17
 -21   1   6    0.85    0.22
  21   1  -6    1.30    0.18
 -19  -1   6    4.05    0.38
  19  -1  -6    4.12    0.30
 -19   1   6    4.48    0.36
  19   1  -6    3.78    0.30
 -17  -1   6    0.05    0.14
  17  -1  -6    0.13    0.11
  17   1  -6    0.31    0.11
 -17   1   6    0.21    0.14
 -15  -1   6    8.99    0.51
  15  -1  -6    8.38    0.48
  15   1  -6    8.57    0.48
 -15   1   6    8.67    0.50
 -13  -1   6   28.12    1.34
 -13  -1   6   27.53    1.95
  13  -1  -6   27.63    1.33
  13   1  -6   30.44    1.37
  13   1  -6   27.51    1.33
 -13   1   6   27.85    1.34
  11  -1  -6    0.57    0.54
  11  -1  -6    0.33    0.09
 -11  -1   6    0.01    0.50
 -11  -1   6    0.26    0.11
 -11   1   6    0.48    0.12
  11   1  -6    0.50    0.13
 -11   1   6    0.69    0.59
  11   1  -6    0.26    0.09
  11   1  -6    0.64    0.47
  -9  -1   6   22.05    1.07
   9  -1  -6   23.71    1.08
   9  -1  -6   23.37    1.06
   9  -1  -6   20.70    1.57
   9   1  -6   22.93    1.10
  -9   1   6   22.86    1.58
   9   1  -6   22.45    1.06
  -9   1   6   22.55    1.08
   9   1  -6   21.96    1.60
   7  -1  -6   20.46    1.48
  -7  -1   6   15.13    3.51
   7  -1  -6   20.82    0.96
   7  -1  -6   22.04    0.99
  -7  -1   6   19.76    1.40
  -7  -1   6   20.86    0.98
   7   1  -6   18.62    1.47
   7   1  -6   20.55    1.00
  -7   1   6   17.64    3.93
   7   1  -6   20.59    0.95
  -7   1   6   20.64    0.99
  -7   1   6   19.92    1.47
  -5  -1   6    9.77    0.50
   5  -1  -6    9.33    0.46
   5  -1  -6    9.66    0.52
   5  -1  -6    9.49    0.92
  -5  -1   6   10.16    0.99
   5   1  -6    9.45    0.45
  -5   1   6    9.28    0.50
   5   1  -6    9.48    0.52
  -5   1   6    8.83    0.99
   5   1  -6    9.00    0.89
  -3  -1   6   55.68    3.05
   3  -1  -6   61.09    7.74
  -3  -1   6   58.08    2.60
   3  -1  -6   59.74    2.57
  -3   1   6   50.00    3.04
   3   1  -6   54.87    3.10
   3   1  -6   59.66    2.64
   3   1  -6   40.10    6.21
  -3   1   6   63.82    2.61
   1  -1  -6    3.05    3.90
   1  -1  -6    0.62    0.51
  -1  -1   6    0.60    0.13
   1  -1  -6    0.68    0.08
  -1  -1   6    0.32    0.38
   1   1  -6   -0.34    2.61
   1   1  -6    1.29    0.44
   1   1  -6    0.43    0.12
  -1   1   6    0.02    0.43
  -1   1   6    0.53    0.13
  -1   1   6    0.64    0.12
  -1  -1  -6   -0.01    0.55
  -1  -1  -6   -5.87    4.04
   1  -1   6    0.17    0.10
  -1   1  -6    0.26    0.13
  -1   1  -6   -3.36    4.14
  -1   1  -6    0.28    0.45
   1   1   6   -0.27    0.57
   1   1   6    0.41    0.11
   3  -1   6    0.13    0.10
   3   1   6    0.26    0.12
  -3   1  -6    0.17    0.12
   3   1   6    0.31    0.10
   5  -1   6    7.85    0.46
  -5   1  -6    8.29    0.51
   5   1   6    7.11    0.45
   5   1   6    7.95    0.50
   7  -1   6    0.82    0.16
  -7   1  -6    0.62    0.17
   7   1   6    0.70    0.18
   7   1   6    0.66    0.16
   9  -1   6   20.10    1.00
  -9   1  -6   19.48    1.10
 -11  -1  -6   -0.06    0.16
 -11   1  -6    0.23    0.19
  22  -2  -6   11.33    0.62
  22   2  -6   11.30    0.62
 -22   2   6   11.47    0.67
  20  -2  -6    5.33    0.36
 -20   2   6    4.83    0.52
  20   2  -6    5.42    0.35
  18  -2  -6   14.97    0.78
  18   2  -6   16.18    0.79
 -18   2   6   14.92    0.81
  16  -2  -6   47.25    2.22
 -16  -2   6   49.78    2.25
 -16   2   6   48.97    2.24
  16   2  -6   47.11    2.22
 -14  -2   6   40.78    1.93
  14  -2  -6   41.59    1.91
  14   2  -6   38.81    2.63
 -14   2   6   40.97    1.93
  14   2  -6   42.13    1.97
  14   2  -6   43.20    1.92
 -12  -2   6   14.61    0.77
 -12  -2   6   14.93    3.76
  12  -2  -6   15.63    0.77
  12   2  -6   16.55    0.82
 -12   2   6   15.02    0.79
  12   2  -6   17.15    0.78
  12   2  -6   13.30    1.43
  10  -2  -6   62.01    2.77
 -10  -2   6   62.93    2.78
  10   2  -6   63.29    2.76
 -10   2   6   56.02    3.31
  10   2  -6   61.69    2.80
 -10   2   6   59.73    2.78
   8  -2  -6  190.17    8.20
  -8  -2   6  183.85    8.21
   8  -2  -6  176.96    8.71
   8  -2  -6  179.17    8.21
  -8  -2   6  193.25    8.69
   8  -2  -6  183.21   12.76
   8   2  -6  175.07    8.24
  -8   2   6  188.28    8.72
   8   2  -6  184.04    8.71
  -8   2   6  186.68    8.22
   8   2  -6  190.24    8.19
  -8   2   6  191.34   12.56
   6  -2  -6  164.72    7.02
   6  -2  -6  155.15    7.05
  -6  -2   6  163.43    7.90
  -6  -2   6  156.41    7.03
   6   2  -6  160.75    7.00
   6   2  -6  161.79    7.55
  -6   2   6  155.31    7.53
  -6   2   6  159.39    7.04
   6   2  -6  148.74    7.06
  -4  -2   6   67.08    2.94
   4  -2  -6   66.45    4.11
   4  -2  -6   69.36    2.92
  -4  -2   6   65.91    3.41
   4   2  -6   63.04    2.97
  -4   2   6   63.48    2.94
  -4   2   6   66.11    2.96
   4   2  -6   67.52    3.47
  -4   2   6   53.49    3.73
   2  -2  -6  131.87    5.73
  -2  -2   6  135.58    5.76
  -2  -2   6  129.78    6.22
   2  -2  -6  131.63    6.29
   2   2  -6  118.57    5.78
   2   2  -6  125.23    6.22
  -2   2   6  123.78    5.75
  -2   2   6  132.16    5.79
   2   2  -6  142.25   11.00
  -2   2   6  128.29    6.27
   0  -2  -6  250.40   11.12
   0  -2  -6  260.16   17.26
   0  -2   6  252.96   11.16
   0   2  -6  246.20   11.73
   0   2   6  243.10   11.64
   0   2   6  247.00   11.15
   0   2   6  249.47   11.19
   0   2  -6  280.18   16.89
   2  -2   6  136.64    6.01
  -2   2  -6  123.76    6.04
   2   2   6  142.09    6.00
   2   2   6  135.13    6.05
   4  -2   6   49.68    2.39
   4   2   6   52.74    2.40
  -4   2  -6   52.60    2.45
   4   2   6   53.97    2.45
   6  -2   6   69.36    3.23
   6   2   6   72.74    3.28
  -6   2  -6   70.79    3.29
   8  -2   6   96.89    4.27
  -8   2  -6   90.58    4.33
   8   2   6   95.85    4.32
  10  -2   6   59.10    2.46
 -10   2  -6   44.71    2.45
 -12  -2  -6   16.07    0.91
  23  -3  -6   11.67    0.62
 -23   3   6   11.42    0.68
  23   3  -6   11.09    0.62
  21  -3  -6    4.13    0.31
 -21   3   6    4.27    0.38
  21   3  -6    4.27    0.32
  19  -3  -6    7.57    0.45
  19   3  -6    7.61    0.46
 -19   3   6    8.07    0.51
  17  -3  -6    5.67    0.36
 -17   3   6    5.27    0.38
  17   3  -6    5.49    0.35
 -15  -3   6    1.00    0.18
  15  -3  -6    1.16    0.16
  15   3  -6    0.96    0.15
 -15   3   6    0.63    0.16
 -13  -3   6    3.78    0.28
  13  -3  -6    3.70    0.25
 -13  -3   6    3.96    1.01
 -13   3   6    3.00    0.27
  13   3  -6    3.26    0.24
  13   3  -6    3.01    0.31
 -11  -3   6   48.91    3.24
  11  -3  -6   44.44    2.18
 -11  -3   6   49.01    2.18
  11   3  -6   50.36    2.17
  11   3  -6   46.60    2.81
 -11   3   6   45.28    2.18
  11   3  -6   48.42    2.22
  -9  -3   6    8.26    0.45
   9  -3  -6    8.13    1.03
   9  -3  -6    8.19    0.44
  -9   3   6    7.43    1.03
   9   3  -6    8.27    0.43
  -9   3   6    8.39    0.47
   9   3  -6    8.78    0.50
  -7  -3   6    4.05    0.74
   7  -3  -6    6.68    4.44
   7  -3  -6    4.53    0.28
  -7  -3   6    4.66    0.29
   7   3  -6    4.53    0.33
   7   3  -6    5.14    0.83
  -7   3   6    4.92    0.74
  -7   3   6    6.67    3.22
   7   3  -6    1.14    3.49
  -7   3   6    4.68    0.31
  -5  -3   6   14.70    0.72
   5  -3  -6   14.96    0.71
  -5   3   6   12.46    1.21
  -5   3   6   14.59    0.74
   5   3  -6   14.99    1.31
   5   3  -6   14.28    0.76
  -5   3   6   14.70    0.73
  -3  -3   6    0.10    0.09
  -3  -3   6    0.34    0.51
   3  -3  -6   -0.40    0.49
   3  -3  -6    0.07    0.07
   3   3  -6   -0.17    0.46
   3   3  -6    0.16    0.11
  -3   3   6    0.10    0.10
  -3   3   6    0.14    0.10
  -1  -3   6   15.55    0.84
   1  -3  -6   17.74    0.80
   1  -3  -6   15.49    6.50
  -1   3   6   17.45    0.82
   1   3  -6   13.91    0.97
  -1   3   6   17.68    0.86
   1  -3   6    3.29    0.25
  -1  -3  -6    3.37    0.23
   1   3   6    3.10    0.28
   1   3   6    3.13    0.25
  -1   3  -6    3.03    0.28
  -3  -3  -6    0.20    0.11
   3  -3   6    0.01    0.10
  -3   3  -6    0.31    0.13
   3   3   6    0.03    0.11
   3   3   6    0.14    0.11
   5  -3   6    9.29    0.53
   5   3   6    8.87    0.57
  -5   3  -6    9.75    0.58
   7  -3   6    0.06    0.12
  -7   3  -6   -0.04    0.12
   7   3   6    0.19    0.14
   9  -3   6    3.10    0.29
   9   3   6    3.11    0.33
  -9   3  -6    2.41    0.35
  11  -3   6   13.86    0.76
  11   3   6   14.38    0.81
  22  -4  -6   39.11    1.89
 -22   4   6   42.00    1.93
  20  -4  -6   18.24    0.93
  20   4  -6   19.84    0.95
 -20   4   6   18.67    0.98
  18  -4  -6   62.56    2.96
  18   4  -6   67.30    2.96
 -18   4   6   65.04    2.99
  16  -4  -6   93.44    4.39
 -16   4   6  100.25    4.42
  16   4  -6  100.42    4.40
  16   4  -6   96.92    4.49
  14  -4  -6    9.56    0.52
  14   4  -6    9.53    0.60
 -14   4   6    9.64    0.55
  14   4  -6    9.70    0.52
 -12  -4   6  107.72    4.66
  12  -4  -6  104.21    4.65
 -12  -4   6   98.11    5.24
  12   4  -6  103.99    4.65
 -12   4   6  103.93    4.67
  12   4  -6  103.67    4.72
  10  -4  -6  136.48    6.20
 -10  -4   6  149.22    6.22
 -10  -4   6  140.14    6.80
 -10   4   6  128.65    6.22
  10   4  -6  141.94    6.26
  -8  -4   6   96.58    4.13
   8  -4  -6   83.11    4.67
   8  -4  -6   93.85    4.14
  -8  -4   6   93.65    4.15
  -8   4   6   90.80    4.16
  -8   4   6   87.67    4.73
   8   4  -6   97.67    4.74
   8   4  -6   93.90    4.20
   6  -4  -6   18.47    0.91
  -6  -4   6   19.06    0.92
  -6   4   6   17.98    1.44
  -6   4   6   19.81    0.94
  -6   4   6   18.94    0.93
  -4  -4   6   45.84    2.15
   4  -4  -6   48.79    2.14
   4  -4  -6   47.63    2.91
  -4  -4   6   44.79    2.68
   4   4  -6   49.32    2.21
  -4   4   6   47.48    2.16
   4   4  -6   41.52    2.72
  -4   4   6   47.96    2.19
  -4   4   6   46.21    2.76
  -2  -4   6  136.75    6.10
   2  -4  -6  139.41    6.04
   2   4  -6  134.40    6.10
  -2   4   6  115.78    6.04
  -2   4   6  136.04    6.10
  -2   4   6  163.49    7.52
   0  -4  -6   15.91    0.76
   0  -4   6   14.33    0.77
   0  -4  -6   15.13    1.61
   0   4   6   15.63    0.82
   0   4   6   14.14    0.77
   0   4  -6   16.98    0.84
   2  -4   6   42.40    2.01
  -2  -4  -6   41.72    2.00
   2   4   6   42.95    2.06
  -2   4  -6   46.63    2.08
  -4  -4  -6    7.69    0.47
   4  -4   6    8.37    0.47
  -4   4  -6    7.73    0.52
   4   4   6    7.61    0.51
   6  -4   6   12.21    0.64
   6   4   6   11.79    0.68
  -6   4  -6   10.84    0.69
   8  -4   6   60.93    2.77
   8   4   6   59.62    2.82
  10  -4   6   18.15    0.89
  10   4   6   16.11    0.93
  21  -5  -6   -0.07    0.12
 -21  -5   6   -0.04    0.14
 -21   5   6   -0.11    0.16
 -19  -5   6    0.48    0.15
  19  -5  -6    0.21    0.12
 -19   5   6    0.10    0.15
  17  -5  -6    0.08    0.11
 -17  -5   6    0.16    0.13
 -17   5   6   -0.20    0.15
  15  -5  -6    1.69    0.20
 -15  -5   6    2.21    0.24
  15   5  -6    2.21    0.32
 -15   5   6    1.81    0.23
  13  -5  -6    0.81    0.14
 -13  -5   6    0.52    0.13
 -13   5   6    0.69    0.17
  13   5  -6    0.84    0.19
 -11  -5   6    4.54    0.33
  11  -5  -6    4.61    0.31
 -11  -5   6    4.69    0.32
  11   5  -6    5.19    0.38
 -11   5   6    4.38    0.33
  -9  -5   6    0.36    0.11
  -9  -5   6    0.30    0.11
   9  -5  -6    0.30    0.10
  -9   5   6    0.23    0.12
   9   5  -6    0.44    0.15
  -7  -5   6   20.14    1.60
   7  -5  -6   20.99    1.66
  -7  -5   6   19.60    0.95
   7  -5  -6   19.76    0.94
  -7   5   6   18.46    0.96
   7   5  -6   19.45    1.00
  -5  -5   6   23.59    1.14
   5   5  -6   20.70    1.83
  -5   5   6   23.65    1.18
  -5   5   6   24.96    1.16
   5   5  -6   24.95    1.21
  -3  -5   6    8.86    0.49
   3  -5  -6    9.25    0.51
  -3   5   6    8.12    0.50
   3   5  -6   10.02    0.56
  -3   5   6    9.13    0.54
  -1  -5   6    0.26    0.11
   1  -5  -6    0.26    0.10
   1   5  -6    0.14    0.13
  -1   5   6    0.27    0.14
   1  -5   6   12.71    0.65
  -1  -5  -6   12.26    0.64
   1   5   6   12.42    0.70
  -1   5  -6   12.16    0.70
  -3  -5  -6    7.58    0.45
   3  -5   6    7.95    0.45
  -3   5  -6    6.26    0.48
   3   5   6    8.34    0.51
   5  -5   6   15.74    0.77
  -5  -5  -6   14.23    0.77
   5   5   6   14.90    0.82
  -5   5  -6   13.08    0.81
   7  -5   6    6.05    0.40
  -7   5  -6    6.60    0.49
   7   5   6    6.10    0.46
   9  -5   6    6.54    0.44
   9   5   6    6.49    0.47
 -20  -6   6    7.65    0.46
  20  -6  -6    7.44    0.45
 -20   6   6    6.96    0.50
 -18  -6   6   19.34    0.94
  18  -6  -6   18.18    0.92
 -18   6   6   18.13    0.95
 -16  -6   6   30.66    1.50
  16  -6  -6   32.02    1.49
 -16   6   6   32.52    1.52
  16   6  -6   30.80    1.58
  14  -6  -6   17.83    0.87
 -14  -6   6   17.24    0.88
  14   6  -6   16.07    0.93
 -14   6   6   18.58    0.90
  12  -6  -6   23.55    1.14
 -12  -6   6   24.07    1.15
 -12   6   6   23.21    1.16
  12   6  -6   23.94    1.21
 -10  -6   6   41.83    1.98
  10  -6  -6   43.86    1.98
 -10   6   6   44.49    2.01
  10   6  -6   41.66    2.04
   8  -6  -6   62.34    2.87
  -8  -6   6   60.81    2.87
   8   6  -6   64.07    2.94
  -8   6   6   65.78    2.90
  -6  -6   6   46.11    2.95
  -6  -6   6   45.10    2.25
   6  -6  -6   48.68    2.25
   6  -6  -6   41.25    3.00
  -6   6   6   51.60    2.32
   6   6  -6   52.06    2.32
  -6   6   6   54.56    2.32
   4  -6  -6   54.60    2.52
  -4  -6   6   55.01    2.53
   4   6  -6   54.27    2.59
  -4   6   6   55.85    2.58
  -4   6   6   56.50    2.54
   2  -6  -6   72.58    3.25
  -2  -6   6   69.95    3.26
   2   6  -6   72.56    3.31
  -2   6   6   71.92    3.31
   0  -6  -6   62.05    2.71
   0  -6   6   58.38    2.72
   0   6  -6   57.56    2.77
   0   6   6   59.45    2.77
  -2  -6  -6   67.28    2.96
   2  -6   6   63.23    2.96
  -2   6  -6   66.43    3.03
   2   6   6   62.44    3.01
   4  -6   6   47.93    2.24
  -4  -6  -6   47.76    2.25
   4   6   6   48.51    2.30
  -4   6  -6   49.64    2.32
   6  -6   6   35.65    1.64
  -6  -6  -6   34.26    1.65
   6   6   6   35.48    1.70
  -6   6  -6   32.65    1.75
   8  -6   6   37.06    1.76
   8   6   6   37.55    1.82
  19  -7  -6    1.14    0.18
 -19  -7   6    0.90    0.17
 -19   7   6    1.56    0.24
  17  -7  -6    0.21    0.13
 -17  -7   6    0.32    0.15
 -17   7   6   -0.13    0.15
  17   7  -6    0.03    0.18
 -15  -7   6   -0.03    0.13
  15   7  -6    0.17    0.17
 -15   7   6   -0.01    0.16
  13  -7  -6    0.06    0.11
 -13  -7   6   -0.08    0.11
 -13   7   6    0.19    0.15
  13   7  -6    0.20    0.16
  11  -7  -6    0.68    0.14
 -11  -7   6    0.88    0.16
  11   7  -6    0.74    0.19
 -11   7   6    0.59    0.17
  -9  -7   6   15.93    0.92
   9  -7  -6   15.74    0.81
  -9   7   6   16.59    0.85
   9   7  -6   16.39    0.88
   7  -7  -6    1.02    0.15
  -7   7   6    0.68    0.16
   7   7  -6    0.80    0.19
   5  -7  -6    8.68    0.47
  -5  -7   6    8.20    0.48
   5   7  -6    7.73    0.54
  -3  -7   6   24.30    1.18
   3  -7  -6   24.57    1.17
   3   7  -6   23.72    1.24
  -3   7   6   24.79    1.25
  -1  -7   6    3.75    0.30
   1  -7  -6    3.02    0.27
   1   7  -6    3.42    0.35
  -1   7   6    3.36    0.33
  -1  -7  -6    3.74    0.29
   1  -7   6    3.82    0.31
  -1   7  -6    4.17    0.37
   1   7   6    3.68    0.36
   3  -7   6    9.38    0.53
  -3  -7  -6    9.03    0.52
   3   7   6    8.69    0.57
  -3   7  -6    8.54    0.59
   5  -7   6   12.86    0.67
  -5   7  -6   10.66    0.75
   5   7   6   13.01    0.74
   7  -7   6    2.90    0.28
   7   7   6    3.01    0.33
 -18  -8   6   15.61    0.82
  18  -8  -6   15.86    0.81
 -18   8   6   15.70    0.85
  16  -8  -6   20.71    1.02
 -16  -8   6   20.25    1.03
 -16   8   6   20.76    1.06
  16   8  -6   20.98    1.12
  14  -8  -6   80.36    3.57
 -14   8   6   78.00    3.59
  14   8  -6   77.54    3.64
 -12  -8   6   11.85    0.65
  12  -8  -6   12.20    0.63
  12   8  -6   11.30    0.70
 -12   8   6   11.94    0.68
  10  -8  -6   18.84    0.95
  10   8  -6   18.73    1.01
 -10   8   6   19.73    1.00
   8  -8  -6   45.70    2.22
  -8   8   6   54.62    2.32
   8   8  -6   45.08    2.29
   6  -8  -6   70.09    3.23
   6   8  -6   72.45    3.31
   4  -8  -6   33.17    1.46
   4   8  -6   28.37    1.52
  -2  -8   6    4.20    0.35
   2  -8  -6    3.78    0.30
  -2   8   6    4.61    0.42
   2   8  -6    3.99    0.38
   0  -8  -6   58.75    2.65
   0  -8   6   56.60    2.66
   0   8   6   57.80    2.73
   0   8  -6   57.98    2.73
  -2  -8  -6   19.93    1.08
   2  -8   6   22.76    1.17
  -2   8  -6   23.92    1.19
  -4  -8  -6   30.70    1.44
   4  -8   6   28.15    1.43
   4   8   6   28.26    1.49
  -4   8  -6   32.64    1.56
  -6  -8  -6   22.01    1.11
   6  -8   6   23.06    1.11
   6   8   6   21.29    1.16
  17  -9  -6    2.78    0.29
 -17  -9   6    2.88    0.31
  17   9  -6    3.13    0.41
  15  -9  -6    0.92    0.16
 -15  -9   6    0.31    0.16
 -15   9   6    1.05    0.23
  15   9  -6    0.44    0.19
  13  -9  -6    7.07    0.43
 -13  -9   6    7.21    0.46
 -13   9   6    7.00    0.50
  13   9  -6    6.99    0.52
  11  -9  -6    2.91    0.26
  11   9  -6    3.05    0.34
 -11   9   6    2.92    0.36
   9  -9  -6    2.38    0.26
   9   9  -6    1.48    0.29
   7  -9  -6    0.49    0.14
   7   9  -6    0.33    0.18
   5  -9  -6    4.07    0.31
   5   9  -6    4.38    0.39
   3  -9  -6    1.80    0.22
   3   9  -6    2.03    0.30
   1  -9  -6    5.73    0.38
  -1  -9   6    5.76    0.43
   1   9  -6    4.91    0.44
  -1   9   6    5.45    0.50
  -1  -9  -6   -0.08    0.13
   1  -9   6   -0.06    0.15
  -1   9  -6    0.04    0.19
   1   9   6   -0.07    0.17
   3  -9   6    1.75    0.25
  -3  -9  -6    2.48    0.25
   3   9   6    1.70    0.27
  -3   9  -6    1.76    0.31
  -5  -9  -6    0.86    0.19
   5  -9   6    0.55    0.19
   5   9   6    1.14    0.24
  14 -10  -6   18.13    0.90
 -14  10   6   17.30    1.10
  14  10  -6   17.72    0.99
  12 -10  -6   22.72    1.12
  12  10  -6   23.18    1.20
  10 -10  -6   19.49    0.98
  10  10  -6   19.84    1.05
   8 -10  -6   11.43    0.64
   8  10  -6   12.48    0.73
   6 -10  -6   20.51    1.02
   6  10  -6   21.01    1.11
   4 -10  -6   25.57    1.24
   4  10  -6   25.71    1.33
   2 -10  -6   17.50    0.91
   2  10  -6   19.00    1.01
   0 -10  -6   21.00    1.03
   0  10  -6   20.42    1.13
   2 -10   6   13.66    0.73
  -2 -10  -6   12.07    0.68
   2  10   6   11.54    0.76
  11 -11  -6    2.77    0.29
  11  11  -6    3.19    0.38
   9 -11  -6    0.29    0.14
   9  11  -6    0.36    0.19
   7 -11  -6    1.26    0.18
   7  11  -6    0.57    0.22
   5 -11  -6    0.32    0.13
   5  11  -6    0.24    0.20
   3 -11  -6    1.49    0.21
   3  11  -6    2.04    0.30
   1 -11  -6    1.39    0.21
   1  11  -6    1.59    0.31
  24   0  -7    0.04    0.14
 -22   0   7   -0.19    0.21
  22   0  -7   -0.14    0.12
 -20   0   7    0.01    0.17
  20   0  -7   -0.04    0.12
 -18   0   7    0.16    0.14
  18   0  -7    0.01    0.09
 -16   0   7    0.04    0.12
  16   0  -7    0.10    0.09
 -14   0   7   -0.03    0.12
  14   0  -7    0.04    0.09
  12   0  -7    0.03    0.08
 -12   0   7    0.24    0.12
 -10   0   7    1.33    0.60
 -10   0   7   -0.03    0.08
  10   0  -7   -0.25    0.55
  10   0  -7    0.07    0.08
  10   0  -7    0.06    0.10
   8   0  -7   -0.06    0.09
  -8   0   7   -0.97    3.03
   8   0  -7    0.09    0.07
   8   0  -7    0.23    0.40
  -8   0   7   -0.14    0.08
  -8   0   7   -0.27    0.35
   6   0  -7    0.05    0.10
   6   0  -7    0.03    0.06
   6   0  -7   -0.32    0.49
  -6   0   7   -0.12    0.34
  -6   0   7    0.02    0.09
  -4   0   7    0.38    0.49
   4   0  -7    0.84    3.25
   4   0  -7    0.13    0.10
  -2   0   7    0.13    0.10
   0   0  -7   -0.05    0.10
   0   0   7    0.07    0.10
   2   0   7   -0.11    0.09
  -2   0  -7    0.13    0.13
   4   0   7   -0.08    0.10
  -4   0  -7    0.05    0.13
  -6   0  -7    0.06    0.13
   6   0   7    0.02    0.12
   8   0   7    0.20    0.16
  -8   0  -7    0.02    0.15
 -10   0  -7   -0.14    0.16
  23  -1  -7    3.01    0.28
  23   1  -7    2.66    0.27
 -23   1   7    3.15    0.35
  21  -1  -7   31.75    1.51
 -21   1   7   31.27    1.55
  21   1  -7   32.85    1.52
 -19  -1   7   71.38    3.32
  19  -1  -7   73.61    3.28
 -19   1   7   72.18    3.31
  19   1  -7   72.10    3.28
  17  -1  -7   37.19    1.72
 -17  -1   7   36.82    1.74
 -17   1   7   37.37    1.74
  17   1  -7   35.69    1.72
 -15  -1   7    3.34    0.30
  15  -1  -7    3.27    0.25
 -15   1   7    3.21    0.28
  15   1  -7    3.32    0.25
  13  -1  -7   89.60    4.10
 -13  -1   7   88.25    4.11
  13   1  -7   94.78    4.13
  13   1  -7   96.77    4.16
 -13   1   7   86.69    4.11
  11  -1  -7  107.25    4.66
 -11  -1   7  104.71    4.67
  11   1  -7  106.90    4.66
  11   1  -7  104.79    4.70
  11   1  -7   97.14    5.25
 -11   1   7  102.54    4.69
  -9  -1   7  107.78    4.81
  -9  -1   7  100.23    5.32
   9  -1  -7  110.10    4.79
  -9  -1   7  126.64   12.28
   9  -1  -7  114.07    4.82
   9  -1  -7  101.25    5.33
   9   1  -7  106.92    4.84
   9   1  -7  103.80    5.35
  -9   1   7  100.95    5.31
   9   1  -7  110.34    4.78
  -9   1   7  105.46    9.94
  -9   1   7  108.91    4.81
  -7  -1   7   61.52    3.45
   7  -1  -7   69.84    2.97
   7  -1  -7   61.42    3.00
  -7  -1   7   71.17    3.00
  -7   1   7   65.13    3.54
  -7   1   7   63.26    2.99
   7   1  -7   68.61    2.95
   7   1  -7   64.24    3.51
   7   1  -7   67.29    3.03
  -5  -1   7   16.90    1.44
  -5  -1   7   18.80    0.94
   5  -1  -7   21.14    0.97
   5  -1  -7   18.34    0.90
   5   1  -7   21.34    0.98
  -5   1   7   16.77    1.46
  -5   1   7   19.33    0.94
   5   1  -7   17.80    1.41
   3  -1  -7  183.87   16.63
   3  -1  -7  158.95    7.27
   3  -1  -7  170.54    7.91
  -3  -1   7  164.70    7.25
  -3   1   7  159.29    7.24
   3   1  -7  161.28    7.28
  -3   1   7  156.70    7.76
  -1  -1   7  147.04    6.17
   1   1  -7  129.11    6.20
   1  -1   7   60.57    2.71
   1   1   7   58.36    2.70
  -1   1  -7   58.95    2.75
   3  -1   7    7.39    0.45
  -3   1  -7    8.34    0.51
   3   1   7    7.64    0.46
   5  -1   7   57.31    2.62
   5   1   7   57.63    2.63
  -5   1  -7   56.09    2.67
  -7  -1  -7  139.84    5.82
   7  -1   7  116.13    5.74
  -9  -1  -7    9.13    0.60
   9  -1   7    8.60    0.55
  -9   1  -7    8.99    0.61
  22  -2  -7    0.59    0.15
 -22   2   7    0.79    0.20
  22   2  -7    0.50    0.15
  20  -2  -7    1.94    0.22
  20   2  -7    1.86    0.22
 -18  -2   7    1.14    0.21
  18  -2  -7    1.02    0.16
  18   2  -7    1.10    0.17
 -18   2   7    0.77    0.18
 -16  -2   7   34.72    1.65
  16  -2  -7   33.70    1.62
  16   2  -7   35.96    1.63
 -16   2   7   34.28    1.64
 -14  -2   7    8.00    0.48
  14  -2  -7    8.28    0.46
  14   2  -7    7.98    0.45
 -14   2   7    8.27    0.48
  14   2  -7    8.44    0.53
 -12  -2   7   23.65    1.19
  12  -2  -7   24.89    1.18
  12   2  -7   25.04    1.24
 -12   2   7   24.77    1.20
  12   2  -7   25.86    1.18
 -10  -2   7   -0.35    0.56
  10  -2  -7    0.07    0.08
 -10  -2   7   -0.08    0.09
 -10   2   7   -0.05    0.09
  10   2  -7    0.04    0.08
  10   2  -7    0.01    0.10
   8  -2  -7   30.33    2.13
   8  -2  -7   41.91    7.36
   8  -2  -7   36.17    1.63
   8  -2  -7   36.43    1.66
  -8  -2   7   35.59    1.65
   8   2  -7   35.28    1.62
  -8   2   7   32.11    2.23
  -8   2   7   35.76    1.66
   8   2  -7   38.13    1.70
  -6  -2   7    4.55    0.30
  -6  -2   7    3.45    0.73
   6  -2  -7    4.61    0.31
   6  -2  -7    4.76    0.27
  -6   2   7    4.80    0.31
   6   2  -7    3.09    0.76
   6   2  -7    4.21    0.32
  -6   2   7    3.26    0.78
   4  -2  -7   85.07    3.90
  -4  -2   7   81.07    3.93
   4   2  -7   92.78    3.98
  -4   2   7   85.97    3.93
  -4   2   7   93.79    4.53
   2  -2  -7   10.40    1.47
  -2  -2   7   13.57    0.70
  -2   2   7   13.25    0.73
  -2   2   7   13.24    1.39
   2   2  -7   14.78    0.75
  -2   2   7   13.97    0.70
   0  -2   7    0.15    0.10
   0   2   7    0.00    0.10
   0   2   7   -0.01    0.10
   0   2  -7    0.09    0.12
   2  -2   7    0.36    0.12
  -2   2  -7    0.46    0.16
   2   2   7    0.62    0.15
   2   2   7    0.44    0.14
   4  -2   7    0.60    0.14
  -4   2  -7    0.77    0.18
   4   2   7    0.53    0.15
   4   2   7    0.51    0.16
   6  -2   7    3.71    0.30
  -6   2  -7    3.39    0.35
   6   2   7    3.90    0.34
   8  -2   7    1.13    0.20
  -8   2  -7    1.55    0.26
 -10  -2  -7    0.13    0.17
  10  -2   7    0.47    0.18
 -10   2  -7    0.17    0.19
  23  -3  -7   21.19    1.05
 -23   3   7   22.73    1.11
  23   3  -7   20.37    1.05
  21  -3  -7   13.53    0.73
 -21   3   7   14.24    0.78
  21   3  -7   14.48    0.74
  19  -3  -7   44.97    2.06
 -19   3   7   43.45    2.08
  19   3  -7   45.08    2.07
  17  -3  -7   64.50    2.97
 -17   3   7   64.15    2.98
  17   3  -7   66.88    2.97
 -15  -3   7   68.21    3.15
  15  -3  -7   70.08    3.13
  15   3  -7   71.00    3.31
  15   3  -7   67.15    3.13
 -15   3   7   68.97    3.15
  13  -3  -7   28.45    1.32
 -13  -3   7   26.11    1.33
  13   3  -7   27.79    1.42
  13   3  -7   29.54    1.32
 -13   3   7   27.28    1.33
 -11  -3   7  143.52    6.21
  11  -3  -7  136.02    6.20
  11   3  -7  139.48    6.20
  11   3  -7  135.06    6.25
 -11   3   7  141.45    6.22
   9  -3  -7  105.73    4.59
  -9  -3   7  107.53    4.61
  -9  -3   7   89.51    5.25
   9   3  -7  106.54    4.66
  -9   3   7  102.94    4.62
   9   3  -7  100.07    4.58
  -7  -3   7   30.06    2.10
   7  -3  -7   29.07    2.07
   7  -3  -7   31.27    1.42
   7  -3  -7   29.34    1.46
  -7  -3   7   31.07    1.44
   7   3  -7   33.28    1.49
  -7   3   7   30.13    1.44
   7   3  -7   28.28    1.97
   5  -3  -7  114.79    5.85
   5  -3  -7  120.95    5.21
  -5   3   7  110.43    5.23
  -5   3   7  119.97    5.26
   5   3  -7  115.32    5.27
  -5   3   7  119.56    5.87
  -3  -3   7   97.38    4.40
   3  -3  -7  103.92    4.38
   3  -3  -7   93.91    4.99
  -3   3   7   97.39    4.44
   3   3  -7   94.58    4.45
  -3   3   7  104.42    4.41
  -3   3   7   91.37    4.99
   1  -3  -7   49.71    2.20
  -1  -3   7   46.35    2.21
   1  -3  -7   43.10    3.11
   1   3  -7   49.06    2.26
  -1   3   7   49.78    2.26
   1  -3   7    9.46    0.51
   1   3   7    8.68    0.55
   1   3   7    8.44    0.51
  -1   3  -7    9.76    0.56
   3  -3   7   59.90    2.70
   3   3   7   59.81    2.75
  -3   3  -7   57.11    2.75
   5  -3   7   58.89    2.73
   5   3   7   59.47    2.78
  -5   3  -7   60.21    2.79
   7  -3   7    5.90    0.39
  -7   3  -7    5.92    0.46
   7   3   7    4.93    0.41
   9  -3   7   14.79    0.76
  -9   3  -7   13.17    0.84
  22  -4  -7    0.02    0.11
 -22   4   7    0.14    0.17
  20  -4  -7    2.58    0.25
  20   4  -7    2.19    0.24
 -20   4   7    2.52    0.31
  18  -4  -7   -0.11    0.10
  18   4  -7   -0.03    0.11
 -18   4   7   -0.09    0.13
  16  -4  -7    4.67    0.33
  16   4  -7    5.18    0.45
 -16   4   7    5.56    0.38
  16   4  -7    4.48    0.34
  14  -4  -7    0.00    0.10
 -14  -4   7   -0.17    0.13
 -14   4   7    0.07    0.12
  14   4  -7   -0.12    0.14
  14   4  -7   -0.09    0.10
 -12  -4   7    1.30    0.19
  12  -4  -7    1.48    0.18
  12   4  -7    1.24    0.20
 -12   4   7    1.46    0.19
  12   4  -7   -0.19    1.00
  12   4  -7    1.66    0.20
 -10  -4   7    2.61    0.23
 -10  -4   7    2.95    0.24
  10  -4  -7    2.81    0.22
 -10   4   7    2.35    0.25
  10   4  -7    1.80    0.84
  10   4  -7    2.59    0.29
  -8  -4   7   20.93    1.00
   8  -4  -7   17.94    1.05
   8   4  -7   23.80    2.21
  -8   4   7   20.46    1.00
   8   4  -7   21.18    1.05
  -6  -4   7    0.88    0.14
   6  -4  -7    1.32    0.15
  -6   4   7    1.17    0.18
   6   4  -7    0.85    0.17
  -6   4   7    1.13    0.17
   4  -4  -7    1.41    0.16
  -4  -4   7    0.69    0.14
  -4   4   7    1.35    0.17
  -4   4   7    1.11    0.19
   4   4  -7    1.06    0.19
  -2  -4   7   10.17    0.55
   2  -4  -7    9.41    1.39
   2  -4  -7    9.35    0.53
  -2   4   7   10.39    0.56
  -2   4   7   10.05    0.60
   2   4  -7   10.73    0.61
  -2   4   7   11.67    1.45
   0  -4   7   12.41    0.62
   0  -4  -7   11.34    0.61
   0   4   7    9.46    0.72
   0   4  -7   11.80    0.66
   0   4   7   11.25    0.66
   2  -4   7   -0.26    0.09
   2   4   7    0.01    0.12
  -2   4  -7    0.09    0.14
   4  -4   7    0.84    0.17
  -4   4  -7    0.58    0.18
   4   4   7    0.70    0.18
   6  -4   7    1.47    0.20
   6   4   7    1.12    0.21
  -6   4  -7    0.98    0.24
   8  -4   7    2.09    0.26
  -8   4  -7    2.66    0.38
  21  -5  -7    4.57    0.33
 -21  -5   7    4.64    0.36
 -21   5   7    4.02    0.37
  19  -5  -7   12.16    0.66
 -19  -5   7   11.84    0.67
 -19   5   7   13.12    0.70
  17  -5  -7   25.62    1.27
 -17  -5   7   27.69    1.29
 -17   5   7   26.26    1.30
  15  -5  -7   31.54    1.51
 -15  -5   7   32.25    1.53
  15   5  -7   33.43    1.60
 -15   5   7   31.48    1.54
  13  -5  -7    3.20    0.27
 -13  -5   7    3.50    0.29
  13   5  -7    3.75    0.35
 -13   5   7    3.73    0.31
 -11  -5   7   63.36    2.84
  11  -5  -7   63.57    2.83
 -11   5   7   60.92    2.85
  11   5  -7   60.92    2.89
  -9  -5   7   46.58    2.15
   9  -5  -7   46.77    2.13
   9   5  -7   47.91    2.20
  -9   5   7   44.37    2.15
  -7  -5   7   11.83    0.64
   7  -5  -7   12.75    0.64
   7   5  -7   11.99    0.70
  -7   5   7   12.57    0.66
  -5  -5   7   89.69    3.95
  -5   5   7   88.06    3.96
  -5   5   7   87.69    4.00
   5   5  -7   84.82    4.00
  -3  -5   7   73.53    3.16
   3  -5  -7   71.49    3.15
  -3   5   7   63.04    3.15
   3   5  -7   67.77    3.21
  -3   5   7   71.69    3.21
   1  -5  -7   50.37    2.36
  -1  -5   7   50.81    2.37
   1   5  -7   54.30    2.44
  -1   5   7   50.75    2.42
   1  -5   7   20.75    1.01
  -1  -5  -7   20.21    1.01
   1   5   7   19.46    1.06
  -1   5  -7   20.88    1.06
   3  -5   7   94.06    4.44
  -3   5  -7  108.02    4.51
   3   5   7   93.21    4.49
   5  -5   7   78.47    3.72
   5   5   7   85.96    3.80
   7  -5   7   12.06    0.67
   7   5   7   12.44    0.73
  -7   5  -7   12.82    0.77
  20  -6  -7    0.11    0.12
 -20  -6   7   -0.34    0.13
 -20   6   7   -0.29    0.14
  18  -6  -7    4.06    0.31
 -18  -6   7    3.95    0.33
 -18   6   7    3.82    0.35
 -16  -6   7    4.29    0.33
  16  -6  -7    4.25    0.31
  16   6  -7    4.14    0.43
 -16   6   7    4.98    0.36
 -14  -6   7    1.00    0.16
  14  -6  -7    0.64    0.14
  14   6  -7    0.82    0.20
 -14   6   7    0.53    0.16
 -12  -6   7    0.42    0.15
  12  -6  -7    0.10    0.11
 -12   6   7    0.35    0.15
  12   6  -7    0.25    0.16
  10  -6  -7    0.86    0.15
 -10  -6   7    0.90    0.18
  10   6  -7    0.68    0.18
 -10   6   7    1.04    0.18
  -8  -6   7    8.18    0.48
   8  -6  -7    7.46    0.45
  -8   6   7    8.18    0.50
   8   6  -7    8.13    0.53
  -6  -6   7    5.67    0.38
   6  -6  -7    5.70    0.37
  -6   6   7    5.63    0.45
  -6   6   7    6.50    0.41
   6   6  -7    6.85    0.45
   4  -6  -7    0.72    0.14
  -4  -6   7    0.54    0.13
  -4   6   7    0.49    0.18
   4   6  -7    0.41    0.17
   2  -6  -7   17.67    0.85
  -2  -6   7   17.12    0.86
   2   6  -7   16.13    0.91
  -2   6   7   16.72    0.91
   0  -6   7    0.47    0.14
   0  -6  -7    0.10    0.13
   0   6   7    0.31    0.15
   0   6  -7    0.39    0.17
  -2  -6  -7    4.20    0.35
   2  -6   7    4.38    0.33
   2   6   7    3.90    0.37
  -2   6  -7    4.28    0.38
   4  -6   7    9.03    0.51
   4   6   7    8.76    0.57
  -4   6  -7    8.27    0.60
   6  -6   7    2.74    0.27
   6   6   7    3.10    0.33
  -6   6  -7    3.55    0.41
   8  -6   7    1.13    0.20
   8   6   7    0.65    0.18
  19  -7  -7   40.56    1.92
 -19  -7   7   40.88    1.93
 -19   7   7   42.36    1.95
  17  -7  -7   33.41    1.56
 -17  -7   7   34.63    1.58
 -17   7   7   30.95    1.58
 -15  -7   7   21.51    1.12
  15  -7  -7   20.78    1.10
  15   7  -7   24.73    1.23
 -15   7   7   24.42    1.16
  13  -7  -7   69.47    2.95
 -13   7   7   59.22    2.96
  13   7  -7   65.03    3.02
  11  -7  -7   53.82    2.41
 -11   7   7   50.56    2.44
  11   7  -7   52.99    2.48
   9  -7  -7   57.21    2.57
  -9   7   7   55.16    2.60
   9   7  -7   56.30    2.64
   7  -7  -7   47.91    2.29
  -7  -7   7   47.22    2.31
  -7   7   7   57.60    2.34
   7   7  -7   47.29    2.37
   5  -7  -7   16.64    0.83
  -5  -7   7   16.30    0.85
   5   7  -7   16.61    0.90
   3  -7  -7   50.46    2.28
  -3  -7   7   50.36    2.29
   3   7  -7   47.65    2.34
  -3   7   7   48.84    2.35
  -1  -7   7   41.56    1.99
   1  -7  -7   41.93    1.99
  -1   7   7   42.29    2.06
   1   7  -7   44.72    2.07
   1  -7   7   26.75    1.26
  -1  -7  -7   25.19    1.26
   1   7   7   26.63    1.32
  -1   7  -7   24.54    1.32
   3  -7   7    3.30    0.29
   3   7   7    2.79    0.33
  -3   7  -7    3.17    0.38
   5  -7   7    8.88    0.52
   5   7   7    8.89    0.59
  -5   7  -7    8.32    0.62
 -18  -8   7    1.25    0.21
  18  -8  -7    0.41    0.15
 -18   8   7    0.63    0.19
  16  -8  -7    1.11    0.16
 -16  -8   7    0.77    0.18
  16   8  -7    1.02    0.25
 -16   8   7    1.37    0.23
  14  -8  -7    0.08    0.11
  14   8  -7   -0.01    0.16
 -14   8   7    0.15    0.17
  12  -8  -7    0.27    0.12
 -12   8   7    0.34    0.17
  12   8  -7    0.50    0.26
  10  -8  -7    4.93    0.34
 -10   8   7    4.82    0.41
  10   8  -7    4.93    0.42
   8  -8  -7    9.57    0.55
   8   8  -7   10.59    0.65
   6  -8  -7    1.69    0.21
   6   8  -7    2.09    0.28
   4  -8  -7    0.47    0.14
  -4  -8   7    0.53    0.16
   4   8  -7    0.24    0.18
   2  -8  -7    1.97    0.23
  -2  -8   7    2.02    0.25
   2   8  -7    1.48    0.25
  -2   8   7    1.33    0.26
   0  -8   7   12.90    0.68
   0   8   7   11.45    0.73
   0   8  -7   11.96    0.74
   2  -8   7    2.16    0.24
  -2  -8  -7    1.76    0.24
  -2   8  -7    1.73    0.28
   2   8   7    2.34    0.33
   4  -8   7    0.77    0.17
   4   8   7    0.87    0.22
  -4   8  -7    0.99    0.27
  15  -9  -7    2.74    0.26
  15   9  -7    3.17    0.38
  13  -9  -7   32.29    1.47
  13   9  -7   29.58    1.54
 -13   9   7   30.69    1.52
  11  -9  -7    5.73    0.38
  11   9  -7    5.72    0.45
   9  -9  -7   12.94    0.69
   9   9  -7   13.05    0.77
   7  -9  -7   34.42    1.64
   7   9  -7   35.16    1.72
   5  -9  -7   10.22    0.57
   5   9  -7   10.08    0.64
   3  -9  -7   25.92    1.23
   3   9  -7   24.18    1.29
  -1  -9   7   29.69    1.54
   1  -9  -7   34.28    1.54
   1   9  -7   31.90    1.61
  -1   9   7   32.55    1.64
   1  -9   7   55.20    2.62
  -1  -9  -7   56.92    2.61
  -1   9  -7   57.64    2.70
   3  -9   7   13.03    0.81
  -3  -9  -7   13.80    0.75
   3   9   7   13.79    0.82
  -3   9  -7   13.53    0.86
  14 -10  -7    3.66    0.32
  14  10  -7    4.07    0.42
  12 -10  -7    8.57    0.51
  12  10  -7    9.06    0.58
  10 -10  -7   -0.10    0.12
  10  10  -7    0.03    0.17
   8 -10  -7    6.18    0.39
   8  10  -7    5.63    0.47
   6 -10  -7    2.47    0.25
   6  10  -7    2.28    0.35
   4  10  -7   33.58    1.67
   2 -10  -7    0.19    0.14
   2  10  -7    0.38    0.22
   0 -10  -7    0.23    0.16
   0  10  -7    0.07    0.20
   9 -11  -7   12.42    0.74
   7 -11  -7   31.94    1.44
   7  11  -7   28.15    1.50
   5 -11  -7   39.57    1.85
   5  11  -7   39.52    1.93
  24   0  -8    6.23    0.42
 -22   0   8   42.37    2.06
  22   0  -8   44.30    2.02
 -20   0   8   77.92    3.57
 -18   0   8    1.06    0.19
  18   0  -8    1.42    0.19
  16   0  -8   61.50    2.81
 -16   0   8   61.61    2.83
 -14   0   8  196.59    8.66
  14   0  -8  192.29    8.64
  12   0  -8  166.74    7.37
 -12   0   8  164.44    7.38
 -10   0   8   15.19    0.77
  10   0  -8   15.54    0.80
  10   0  -8   14.63    0.74
   8   0  -8   64.14    3.07
  -8   0   8   69.95    3.05
  -6   0   8  402.76   17.81
  -4   0   8   78.06    3.51
   4   0  -8   77.02    3.55
  -2   0   8   39.83    1.89
   2   0  -8   41.68    1.94
   0   0   8   26.65    1.32
   0   0  -8   28.83    1.38
  -2   0  -8   62.76    2.91
   2   0   8   62.05    2.86
   4   0   8   72.57    3.13
  -4   0  -8   63.89    3.16
  -6   0  -8    6.78    0.49
   6   0   8    6.60    0.46
  -8   0  -8    8.54    0.57
  23  -1  -8    0.52    0.15
  23   1  -8    0.34    0.14
 -23   1   8    0.47    0.20
  21  -1  -8   -0.03    0.12
 -21  -1   8   -0.07    0.18
  21   1  -8    0.08    0.12
 -21   1   8    0.04    0.18
 -19  -1   8    2.06    0.27
  19  -1  -8    1.73    0.21
 -19   1   8    1.82    0.23
  19   1  -8    2.22    0.23
 -17  -1   8   15.86    0.83
  17  -1  -8   15.97    0.80
 -17   1   8   15.47    0.82
  17   1  -8   16.02    0.81
 -15  -1   8    0.47    0.13
  15  -1  -8    0.30    0.12
 -15   1   8    0.36    0.14
  15   1  -8    0.38    0.13
  13  -1  -8    1.12    0.16
 -13  -1   8    0.68    0.15
 -13   1   8    1.06    0.18
  11  -1  -8    0.03    0.10
 -11  -1   8    0.28    0.12
  11   1  -8    0.24    0.14
  11   1  -8    0.28    0.11
 -11   1   8    0.12    0.11
  -9  -1   8    4.44    0.31
   9  -1  -8    5.18    0.30
   9  -1  -8    4.55    0.34
   9   1  -8    4.22    0.35
  -9   1   8    5.08    0.32
  -7  -1   8    3.32    0.27
   7  -1  -8    3.92    0.31
  -7   1   8    3.83    0.29
   7   1  -8    4.27    0.32
  -5  -1   8    4.34    0.29
   5   1  -8    3.93    0.31
  -5   1   8    3.87    0.29
   3  -1  -8   17.43    0.91
  -3  -1   8   16.19    0.86
  -3   1   8   18.43    0.87
   3   1  -8   17.00    0.90
   1  -1  -8   28.21    1.47
  -1  -1   8   24.41    1.29
   1   1  -8   25.06    1.30
  -1   1   8   26.99    1.26
  -1  -1  -8    1.23    0.20
   1  -1   8    0.80    0.15
   1   1   8    0.95    0.16
  -1   1  -8    0.94    0.19
  -3  -1  -8    0.04    0.13
   3  -1   8    0.25    0.13
  -3   1  -8   -0.04    0.12
   3   1   8    0.26    0.13
  -5  -1  -8   35.37    1.59
   5  -1   8   27.75    1.56
   5   1   8   31.67    1.53
  -5   1  -8   31.54    1.57
   7  -1   8    0.65    0.19
  -7  -1  -8    0.31    0.16
  -7   1  -8    0.78    0.20
  22  -2  -8   34.68    1.58
  22   2  -8   32.75    1.58
 -22   2   8   32.78    1.61
  20  -2  -8   35.10    1.68
  20   2  -8   36.74    1.69
 -20   2   8   35.38    1.70
 -18  -2   8    9.84    0.59
  18  -2  -8   10.08    0.55
  18   2  -8   10.02    0.56
 -18   2   8    9.95    0.58
  16  -2  -8   12.58    0.64
 -16  -2   8   12.50    0.66
  16   2  -8   11.69    0.64
 -16   2   8   11.49    0.66
 -14  -2   8   46.68    2.18
  14  -2  -8   46.18    2.16
  14   2  -8   49.36    2.18
 -14   2   8   46.41    2.18
  12  -2  -8   52.03    2.39
 -12  -2   8   52.71    2.41
  12   2  -8   50.68    2.45
 -12   2   8   52.06    2.41
  12   2  -8   54.36    2.39
  10  -2  -8    9.07    0.50
 -10  -2   8    9.13    0.52
  10   2  -8    9.94    0.50
  10   2  -8    9.14    0.56
 -10   2   8    9.32    0.52
   8  -2  -8   13.12    0.63
   8  -2  -8   11.53    0.67
  -8  -2   8   12.89    0.66
   8   2  -8   12.28    0.70
  -8   2   8   12.33    0.66
   6  -2  -8   73.03    3.32
   6  -2  -8   74.75    3.26
  -6  -2   8   68.62    3.28
  -6   2   8   71.34    3.29
   6   2  -8   74.51    3.33
   4  -2  -8   60.17    2.81
  -4  -2   8   63.02    2.78
  -4   2   8   60.89    2.78
   4   2  -8   59.16    2.81
  -2  -2   8   20.93    0.99
  -2   2   8   19.18    0.99
   2   2  -8   19.89    1.03
   0  -2   8   26.05    1.20
   0   2   8   24.28    1.20
   0   2  -8   23.91    1.24
   2  -2   8   68.21    3.11
  -2   2  -8   66.54    3.16
   2   2   8   69.65    3.12
   4  -2   8   66.92    3.04
  -4   2  -8   65.81    3.09
  -6  -2  -8   26.13    1.38
   6  -2   8   28.12    1.35
  -6   2  -8   29.52    1.51
   8  -2   8   27.88    1.40
  -8  -2  -8   30.62    1.46
  -8   2  -8   28.03    1.46
  23  -3  -8    0.91    0.16
  23   3  -8    1.30    0.20
 -23   3   8    1.16    0.21
  21  -3  -8    7.77    0.46
 -21   3   8    7.67    0.51
  21   3  -8    8.03    0.48
  19   3  -8    3.99    0.32
 -17  -3   8    2.16    0.27
  17  -3  -8    1.90    0.21
  17   3  -8    1.84    0.22
 -17   3   8    2.14    0.26
 -15  -3   8    4.94    0.38
  15  -3  -8    5.88    0.36
  15   3  -8    5.24    0.46
  15   3  -8    5.72    0.37
 -15   3   8    5.69    0.38
 -13  -3   8    0.21    0.13
  13  -3  -8    0.10    0.10
  13   3  -8    0.03    0.13
  13   3  -8    0.09    0.11
 -13   3   8    0.07    0.13
 -11  -3   8    2.31    0.24
  11  -3  -8    2.11    0.21
  11   3  -8    2.18    0.28
 -11   3   8    2.02    0.23
  11   3  -8    2.69    0.22
   9  -3  -8    2.03    0.20
  -9  -3   8    2.25    0.23
  -9   3   8    2.04    0.22
   9   3  -8    2.35    0.27
   7  -3  -8   25.05    1.19
   7  -3  -8   23.12    1.23
  -7  -3   8   24.26    1.20
  -7   3   8   26.05    1.22
   7   3  -8   27.10    1.27
   5  -3  -8    3.37    0.25
  -5  -3   8    3.37    0.27
   5   3  -8    3.40    0.31
  -5   3   8    3.04    0.27
  -3  -3   8    0.28    0.12
   3   3  -8    0.26    0.14
  -3   3   8    0.46    0.15
  -3   3   8    0.37    0.13
  -1  -3   8    0.52    0.14
  -1   3   8    0.49    0.15
   1   3  -8    0.73    0.17
  -1   3   8    0.55    0.16
   1  -3   8   39.47    1.86
   1   3   8   39.58    1.90
   1   3   8   40.21    1.87
  -1   3  -8   39.44    1.91
   3  -3   8   14.18    0.77
   3   3   8   14.52    0.81
  -3   3  -8   15.28    0.83
   5  -3   8   11.51    0.65
   5   3   8   10.89    0.68
  -5   3  -8   12.65    0.71
   7  -3   8    2.66    0.28
  -7   3  -8    1.66    0.26
  22  -4  -8   21.30    1.09
 -22   4   8   23.36    1.13
  20  -4  -8   18.88    0.94
  20   4  -8   19.00    0.95
 -20   4   8   18.84    0.97
  18  -4  -8   69.59    3.26
  18   4  -8   73.90    3.27
  16  -4  -8   23.21    1.09
  16   4  -8   20.96    1.08
 -16   4   8   22.50    1.10
 -14  -4   8   45.47    2.03
  14  -4  -8   41.92    2.00
  14   4  -8   42.14    2.07
 -14   4   8   43.88    2.02
  14   4  -8   42.44    2.00
  12  -4  -8   80.94    3.58
 -12  -4   8   79.85    3.60
  12   4  -8   80.13    3.66
 -12   4   8   76.16    3.59
 -10  -4   8  127.02    5.94
  10  -4  -8  130.53    5.93
  10   4  -8  139.23    6.00
 -10   4   8  134.21    5.95
   8  -4  -8   73.56    3.42
  -8  -4   8   77.38    3.44
   8   4  -8   76.61    3.49
  -8   4   8   75.80    3.44
  -6  -4   8   19.83    0.97
   6   4  -8   21.34    1.04
  -6   4   8   18.15    0.98
  -4  -4   8  154.42    6.92
   4  -4  -8  160.07    6.92
  -4   4   8  134.75    6.92
   4   4  -8  174.47    7.00
  -4   4   8  152.06    6.97
  -2  -4   8   47.05    2.05
  -2   4   8   45.87    2.09
  -2   4   8   42.13    2.04
   2   4  -8   40.68    2.08
   0  -4   8   36.88    1.68
   0   4  -8   34.36    1.73
   0   4   8   35.53    1.73
   2  -4   8   51.01    2.21
   2   4   8   50.94    2.27
  -2   4  -8   40.93    2.25
   4  -4   8   19.88    0.92
  -4   4  -8   15.52    0.96
   4   4   8   18.32    0.96
   6  -4   8   15.87    0.82
  -6   4  -8   15.99    0.90
   6   4   8   14.90    0.86
  21  -5  -8    2.93    0.26
 -21  -5   8    2.78    0.32
 -21   5   8    3.18    0.33
  19  -5  -8    0.42    0.13
 -19  -5   8    0.71    0.18
 -19   5   8    0.53    0.17
 -17  -5   8    1.50    0.22
  15  -5  -8   14.66    0.77
 -15  -5   8   14.79    0.79
  15   5  -8   15.82    0.88
 -15   5   8   15.18    0.80
  13  -5  -8    0.21    0.12
 -13  -5   8    0.66    0.17
 -13   5   8    0.20    0.13
  13   5  -8    0.45    0.18
 -11  -5   8    2.41    0.28
  11  -5  -8    2.78    0.24
 -11   5   8    3.29    0.29
  11   5  -8    2.56    0.32
   9  -5  -8    0.14    0.10
  -9  -5   8    0.25    0.13
   9   5  -8    0.13    0.15
  -9   5   8    0.39    0.15
  -7  -5   8    0.83    0.15
   7  -5  -8    1.17    0.18
   7   5  -8    0.69    0.18
  -7   5   8    1.01    0.18
   5  -5  -8    0.13    0.11
  -5  -5   8    0.04    0.12
  -5   5   8    0.34    0.15
  -5   5   8    0.26    0.16
   5   5  -8    0.12    0.14
   3  -5  -8    5.83    0.38
  -3  -5   8    5.63    0.37
  -3   5   8    4.74    0.41
  -3   5   8    5.60    0.39
   3   5  -8    4.86    0.40
  -1  -5   8   -0.10    0.11
   1   5  -8   -0.03    0.13
  -1   5   8    0.18    0.15
   1  -5   8    2.99    0.27
  -1   5  -8    2.70    0.32
   1   5   8    3.40    0.33
   3  -5   8    5.96    0.40
   3   5   8    5.76    0.45
  -3   5  -8    5.81    0.46
   5  -5   8   -0.01    0.12
  -5   5  -8    0.05    0.17
   5   5   8   -0.04    0.14
   7   5   8    1.05    0.22
  20  -6  -8   17.04    0.85
 -20   6   8   15.97    0.88
  18  -6  -8   19.79    0.97
 -18  -6   8   19.18    0.99
 -18   6   8   19.07    0.99
 -16  -6   8   24.46    1.14
  16  -6  -8   21.67    1.10
  16   6  -8   22.48    1.20
 -16   6   8   21.69    1.12
  14  -6  -8   27.98    1.36
  14   6  -8   27.32    1.43
 -14   6   8   30.45    1.40
  12  -6  -8   22.70    1.14
 -12   6   8   24.95    1.18
  12   6  -8   23.45    1.22
 -10  -6   8   23.72    1.21
  10  -6  -8   24.34    1.20
  10   6  -8   27.84    1.29
 -10   6   8   23.56    1.23
  -8  -6   8   23.17    1.17
   8  -6  -8   24.20    1.16
  -8   6   8   24.57    1.18
   8   6  -8   23.31    1.22
   6  -6  -8   26.43    1.28
  -6  -6   8   26.02    1.29
   6   6  -8   25.49    1.35
  -6   6   8   29.05    1.32
   4  -6  -8   41.46    2.00
  -4  -6   8   42.36    2.01
  -4   6   8   43.49    2.08
   4   6  -8   45.47    2.08
  -2  -6   8   22.77    1.15
   2  -6  -8   22.74    1.15
   2   6  -8   25.16    1.22
  -2   6   8   23.51    1.22
   0  -6   8   20.28    1.00
   0   6   8   19.98    1.06
   0   6  -8   19.33    1.05
   2  -6   8   36.98    1.69
   2   6   8   35.22    1.75
  -2   6  -8   34.41    1.75
   4  -6   8   36.11    1.76
   4   6   8   36.45    1.82
  -4   6  -8   39.68    1.86
   6  -6   8   20.60    1.03
   6   6   8   17.98    1.04
  19  -7  -8    7.15    0.45
 -19   7   8    7.12    0.49
  17  -7  -8    7.51    0.45
  17   7  -8    7.25    0.56
 -17   7   8    7.91    0.50
  15  -7  -8    9.53    0.53
  15   7  -8    9.26    0.63
 -15   7   8    9.68    0.57
  13  -7  -8    1.82    0.23
 -13   7   8    1.34    0.21
  13   7  -8    1.44    0.25
  11   7  -8    7.48    0.52
 -11   7   8    7.35    0.50
   9  -7  -8    1.21    0.18
  -9   7   8    0.70    0.19
   9   7  -8    1.03    0.22
  -7  -7   8    0.24    0.15
   7  -7  -8   -0.01    0.11
   7   7  -8    0.04    0.15
   5  -7  -8    0.09    0.13
  -5  -7   8    0.21    0.15
   5   7  -8    0.01    0.15
  -3  -7   8    1.70    0.22
   3  -7  -8    1.77    0.22
  -3   7   8    1.02    0.24
   3   7  -8    1.87    0.28
   1  -7  -8    6.43    0.43
  -1  -7   8    6.15    0.42
  -1   7   8    5.65    0.53
   1   7  -8    5.89    0.47
   1  -7   8   -0.14    0.13
  -1   7  -8    0.11    0.17
   1   7   8    0.02    0.17
   3  -7   8    0.73    0.17
  -3   7  -8    0.53    0.21
   3   7   8    0.39    0.19
  18  -8  -8    1.34    0.18
 -18   8   8    0.73    0.19
  16  -8  -8   33.33    1.50
  16   8  -8   32.59    1.60
 -16   8   8   28.78    1.52
  14  -8  -8   40.91    2.03
  14   8  -8   46.81    2.13
  12  -8  -8   27.25    1.31
  12   8  -8   28.77    1.40
 -12   8   8   25.89    1.37
  10  -8  -8    7.92    0.48
  10   8  -8    7.86    0.55
   8  -8  -8   21.45    1.32
   8   8  -8   26.82    1.27
   6  -8  -8   93.10    4.37
   6   8  -8   99.52    4.43
   4  -8  -8   11.70    0.80
  -4  -8   8   11.63    0.68
   4   8  -8   12.29    0.72
  -2  -8   8   25.90    1.33
   2  -8  -8   26.42    1.33
  -2   8   8   28.06    1.46
   2   8  -8   29.14    1.41
   0  -8   8   23.78    1.16
   0  -8  -8   22.82    1.17
   0   8   8   23.79    1.23
   0   8  -8   22.68    1.23
   2  -8   8   18.30    0.97
   2   8   8   20.00    1.06
  -2   8  -8   19.20    1.06
  15  -9  -8    0.89    0.17
  15   9  -8    1.68    0.28
 -15   9   8    0.89    0.23
  13  -9  -8   -0.03    0.12
  13   9  -8   -0.20    0.17
  11  -9  -8    3.52    0.29
  11   9  -8    3.46    0.37
   9  -9  -8    0.03    0.13
   9   9  -8    0.07    0.16
   7  -9  -8   12.88    0.68
   7   9  -8   12.64    0.77
   5  -9  -8    0.17    0.13
   5   9  -8    0.32    0.18
   3  -9  -8    7.51    0.47
   3   9  -8    6.57    0.52
  -1  -9   8    0.30    0.17
   1  -9  -8    0.50    0.18
   1   9  -8    0.25    0.20
   1  -9   8    7.35    0.52
  -1   9  -8    7.62    0.57
   1   9   8    6.13    0.57
  12 -10  -8   15.62    0.77
  12  10  -8   13.66    0.83
  10 -10  -8   17.16    0.90
  10  10  -8   18.73    1.00
   8 -10  -8   24.87    1.22
   8  10  -8   25.44    1.30
   6 -10  -8   19.22    0.98
   6  10  -8   19.72    1.06
   4  10  -8    7.18    0.55
 -22   0   9    0.18    0.18
  22   0  -9   -0.05    0.13
 -20   0   9   -0.10    0.19
  20   0  -9    0.12    0.12
 -18   0   9   -0.04    0.14
  18   0  -9   -0.12    0.11
 -16   0   9    0.08    0.13
  16   0  -9    0.05    0.11
 -14   0   9   -0.27    0.10
  14   0  -9    0.00    0.10
  12   0  -9    0.00    0.11
  12   0  -9    0.01    0.15
 -12   0   9   -0.10    0.11
  10   0  -9    0.04    0.12
 -10   0   9    0.01    0.10
   8   0  -9   -0.03    0.11
  -8   0   9   -0.04    0.09
  -6   0   9    0.02    0.11
   6   0  -9    0.02    0.12
  -4   0   9   -0.06    0.10
   4   0  -9    0.00    0.11
  -2   0   9    0.00    0.11
   2   0  -9    0.02    0.12
   0   0  -9    0.01    0.13
   0   0   9   -0.16    0.11
  -2   0  -9   -0.05    0.12
   2   0   9    0.05    0.12
   4   0   9   -0.02    0.15
  -4   0  -9   -0.15    0.12
  -6   0  -9    0.06    0.16
  23  -1  -9   17.36    0.90
 -23   1   9   17.78    0.95
  23   1  -9   18.09    0.91
  21  -1  -9   16.75    0.86
 -21   1   9   16.47    0.89
  21   1  -9   17.37    0.87
 -19  -1   9   41.17    1.97
  19  -1  -9   42.15    1.94
 -19   1   9   41.54    1.97
  19   1  -9   41.94    1.95
 -17  -1   9   24.06    1.19
  17  -1  -9   23.56    1.17
  17   1  -9   25.08    1.18
 -17   1   9   23.84    1.20
  15  -1  -9   69.86    3.16
 -15  -1   9   69.39    3.17
 -15   1   9   66.98    3.17
  15   1  -9   71.98    3.17
 -13  -1   9   33.37    1.52
  13  -1  -9   31.67    1.50
 -13   1   9   30.86    1.51
  11  -1  -9   10.35    0.54
 -11  -1   9    9.35    0.54
  11   1  -9    9.27    0.59
 -11   1   9   10.27    0.56
   9  -1  -9   99.17    4.72
  -9  -1   9  103.77    4.68
  -9   1   9   99.37    4.68
   9   1  -9  114.09    4.73
  -7  -1   9   87.12    4.17
   7  -1  -9   96.75    4.23
  -7   1   9   89.81    4.18
   7   1  -9   97.18    4.24
  -5  -1   9   26.51    1.29
   5  -1  -9   26.08    1.32
   5   1  -9   28.41    1.33
  -5   1   9   26.04    1.29
   3  -1  -9    1.70    0.26
  -3  -1   9    2.25    0.24
  -3   1   9    2.27    0.24
   3   1  -9    2.16    0.26
   1  -1  -9   90.10    4.25
  -1  -1   9   92.23    4.20
  -1   1   9   98.57    4.21
   1   1  -9   91.24    4.25
  -1  -1  -9  108.47    4.82
   1  -1   9  106.84    4.77
   1   1   9  111.36    4.78
  -1   1  -9   96.62    4.80
   3  -1   9    2.04    0.25
  -3  -1  -9    2.65    0.30
  -3   1  -9    2.10    0.28
   3   1   9    2.41    0.30
  -5  -1  -9   12.77    0.76
   5  -1   9   13.86    0.74
  -5   1  -9   13.51    0.78
  22  -2  -9    6.74    0.44
 -22   2   9    7.36    0.49
  22   2  -9    7.74    0.46
 -20  -2   9    4.86    0.49
  20  -2  -9    5.53    0.38
 -20   2   9    5.96    0.42
  20   2  -9    6.12    0.39
 -18  -2   9    0.04    0.16
  18  -2  -9    0.10    0.12
 -18   2   9   -0.01    0.15
  18   2  -9   -0.03    0.12
 -16  -2   9    6.59    0.44
  16  -2  -9    6.51    0.41
  16   2  -9    6.62    0.42
 -16   2   9    6.64    0.44
 -14  -2   9    8.32    0.50
  14  -2  -9    8.73    0.49
  14   2  -9    8.62    0.50
 -14   2   9    8.36    0.50
 -12  -2   9   10.02    0.55
  12  -2  -9    9.58    0.54
 -12   2   9   10.19    0.55
  12   2  -9    9.40    0.61
  10  -2  -9    6.22    0.38
 -10  -2   9    6.34    0.40
  10   2  -9    5.88    0.43
 -10   2   9    5.74    0.39
   8  -2  -9   43.06    1.88
  -8  -2   9   37.76    1.82
  -8   2   9   38.80    1.83
   8   2  -9   36.53    1.86
  -6  -2   9    2.38    0.23
   6  -2  -9    1.69    0.26
   6   2  -9    2.28    0.27
  -6   2   9    2.17    0.25
  -4  -2   9    0.67    0.14
   4  -2  -9    0.64    0.17
   4   2  -9    0.88    0.19
  -4   2   9    0.68    0.15
  -2  -2   9    2.86    0.26
   2  -2  -9    3.23    0.32
  -2   2   9    2.35    0.26
   2   2  -9    2.88    0.31
   0  -2   9    0.78    0.16
   0  -2  -9    0.73    0.18
   0   2   9    0.84    0.17
   0   2  -9    0.56    0.17
  -2  -2  -9    2.99    0.35
  -2   2  -9    2.29    0.32
   2   2   9    2.50    0.29
  -4  -2  -9    0.63    0.18
   4  -2   9    0.64    0.15
  -4   2  -9    0.45    0.17
  -6  -2  -9   -0.02    0.14
   6  -2   9   -0.22    0.15
  -6   2  -9    0.07    0.16
  23  -3  -9   36.70    1.70
 -23   3   9   34.60    1.72
  23   3  -9   37.23    1.71
  21  -3  -9   15.08    0.79
 -21   3   9   15.10    0.82
  21   3  -9   15.45    0.80
  19  -3  -9    3.17    0.27
  19   3  -9    2.06    0.36
 -19   3   9    2.75    0.30
  17  -3  -9   68.89    3.19
 -17  -3   9   72.76    3.22
  17   3  -9   69.14    3.19
 -17   3   9   69.25    3.20
  15  -3  -9   68.70    3.09
 -15  -3   9   64.01    3.10
 -15   3   9   69.76    3.11
  15   3  -9   68.60    3.10
 -13  -3   9   38.40    1.77
  13  -3  -9   36.98    1.76
 -13   3   9   38.15    1.78
  13   3  -9   37.15    1.83
  11  -3  -9   46.21    2.13
 -11  -3   9   47.24    2.15
 -11   3   9   46.19    2.15
  11   3  -9   45.58    2.21
  -9  -3   9   49.72    2.20
   9  -3  -9   49.90    2.19
   9   3  -9   49.92    2.25
  -9   3   9   40.46    2.19
  -7  -3   9  103.28    4.71
   7  -3  -9  114.59    4.77
   7  -3  -9  104.59    4.80
  -7   3   9   96.74    4.71
   7   3  -9  104.31    4.77
   5  -3  -9   58.71    2.87
  -5  -3   9   59.26    2.81
   5   3  -9   60.59    2.87
  -5   3   9   68.03    2.84
  -3  -3   9   66.41    3.04
   3   3  -9   70.02    3.11
  -3   3   9   63.26    3.05
  -1  -3   9   32.39    1.56
  -1   3   9   34.30    1.58
   1   3  -9   32.05    1.61
   1  -3   9   34.35    1.73
  -1   3  -9   38.72    1.80
   3  -3   9   64.63    2.98
  -3   3  -9   65.33    3.04
  -5  -3  -9   13.33    0.74
   5  -3   9   11.48    0.68
  -5   3  -9   12.70    0.76
  22  -4  -9    0.42    0.14
 -22   4   9    0.37    0.18
  20  -4  -9    0.36    0.13
 -20   4   9    0.18    0.16
  18  -4  -9    5.99    0.38
  18   4  -9    5.41    0.41
 -18   4   9    5.70    0.42
 -16  -4   9    2.32    0.29
  16  -4  -9    1.49    0.20
 -16   4   9    1.55    0.21
 -14  -4   9    1.04    0.19
  14  -4  -9    1.81    0.21
 -14   4   9    1.76    0.23
  14   4  -9    1.57    0.25
  12  -4  -9    0.34    0.12
 -12  -4   9    0.08    0.12
 -12   4   9    0.09    0.13
  12   4  -9    0.13    0.16
 -10  -4   9    5.94    0.39
  10  -4  -9    5.50    0.37
  10   4  -9    5.99    0.45
 -10   4   9    5.95    0.39
   8  -4  -9    0.12    0.12
  -8  -4   9    0.13    0.12
   8   4  -9    0.09    0.14
  -8   4   9    0.06    0.13
   6  -4  -9    2.72    0.30
  -6  -4   9    2.34    0.25
  -6   4   9    2.04    0.26
   6   4  -9    2.32    0.29
  -4  -4   9    1.24    0.19
   4   4  -9    1.00    0.21
  -4   4   9    0.84    0.17
  -2  -4   9    0.12    0.12
   2   4  -9    0.34    0.15
  -2   4   9    0.22    0.20
  -2   4   9    0.19    0.16
   0  -4   9    0.20    0.15
   0   4   9    0.40    0.17
   0   4  -9    0.16    0.16
   2  -4   9    5.20    0.37
   2   4   9    5.61    0.41
  -2   4  -9    3.77    0.38
   4  -4   9    2.21    0.25
  -4   4  -9    2.23    0.31
 -21  -5   9   12.06    0.73
  21  -5  -9   14.68    0.72
 -21   5   9   13.81    0.74
  19  -5  -9    2.71    0.26
 -19   5   9    2.48    0.30
  17  -5  -9   56.17    2.60
 -17   5   9   56.91    2.62
  15  -5  -9   29.41    1.42
 -15   5   9   29.29    1.44
  15   5  -9   30.71    1.52
  13  -5  -9   12.75    0.66
 -13  -5   9   12.44    0.70
 -13   5   9   12.19    0.69
  13   5  -9   12.21    0.74
  11  -5  -9   25.21    1.25
 -11  -5   9   25.49    1.26
  11   5  -9   25.42    1.32
 -11   5   9   27.82    1.28
   9  -5  -9   16.04    0.80
  -9  -5   9   15.56    0.81
  -9   5   9   17.67    0.83
   9   5  -9   13.04    0.84
  -7  -5   9   30.63    1.45
   7  -5  -9   31.08    1.45
  -7   5   9   27.05    1.46
   7   5  -9   32.56    1.52
   5  -5  -9   15.80    0.82
  -5  -5   9   15.84    0.81
   5   5  -9   15.45    0.85
  -5   5   9   15.09    0.83
  -3  -5   9   39.49    1.87
  -3   5   9   40.08    1.94
   3   5  -9   40.39    1.94
  -1   5   9    9.15    0.59
   1  -5   9   10.49    0.61
   1   5   9   11.47    0.69
  -1   5  -9   11.43    0.69
   3  -5   9   55.30    2.53
   3   5   9   52.18    2.58
  -3   5  -9   56.88    2.61
  20  -6  -9   15.03    0.78
 -20   6   9   15.06    0.81
  18  -6  -9    0.64    0.15
 -18   6   9    0.88    0.20
  16  -6  -9    0.72    0.16
  16   6  -9    0.48    0.21
 -16   6   9    0.66    0.19
  14  -6  -9    3.99    0.32
  14   6  -9    4.12    0.39
 -14   6   9    3.34    0.34
  12  -6  -9   22.34    1.08
 -12   6   9   23.77    1.12
  12   6  -9   20.02    1.13
 -10  -6   9   -0.11    0.14
  10  -6  -9    0.07    0.13
 -10   6   9    0.15    0.15
  10   6  -9   -0.10    0.15
   8  -6  -9   24.17    1.19
  -8  -6   9   24.99    1.21
  -8   6   9   25.04    1.22
   8   6  -9   23.94    1.26
  -6  -6   9   12.75    0.69
   6  -6  -9   12.59    0.69
   6   6  -9   12.73    0.74
  -4  -6   9    0.70    0.17
  -4   6   9    0.46    0.21
   4   6  -9    0.82    0.20
  -2  -6   9    4.49    0.34
   2   6  -9    4.78    0.42
   0  -6   9    2.71    0.28
   0   6   9    2.39    0.34
   0   6  -9    2.70    0.32
   2  -6   9    0.85    0.16
  -2   6  -9    1.02    0.23
   2   6   9    1.10    0.23
  19  -7  -9   31.40    1.51
 -19   7   9   32.15    1.54
  17  -7  -9   18.73    0.94
 -17   7   9   18.73    0.97
  15  -7  -9   27.21    1.31
 -15   7   9   25.82    1.34
  15   7  -9   29.23    1.49
  13  -7  -9   29.46    1.41
 -13   7   9   30.64    1.45
  13   7  -9   28.38    1.48
  11   7  -9   33.18    1.74
 -11   7   9   38.48    1.72
  -9  -7   9   78.37    3.46
   9  -7  -9   81.24    3.45
   9   7  -9   65.98    3.51
  -9   7   9   77.07    3.51
  -7  -7   9   44.86    2.10
   7  -7  -9   45.22    2.08
   7   7  -9   43.35    2.13
   5  -7  -9   34.12    1.57
   5   7  -9   31.48    1.62
  -3  -7   9   26.14    1.27
   3   7  -9   25.98    1.33
  -3   7   9   25.96    1.36
  -1  -7   9   63.49    2.76
   1   7  -9   56.35    2.81
   1  -7   9   44.23    2.12
  -1   7  -9   48.10    2.21
   1   7   9   44.67    2.19
  16  -8  -9    1.01    0.17
  16   8  -9    1.73    0.29
 -16   8   9    1.31    0.24
  14  -8  -9    0.06    0.12
 -14   8   9   -0.27    0.20
  14   8  -9    0.18    0.18
  12  -8  -9    0.20    0.13
  12   8  -9   -0.01    0.18
 -12   8   9   -0.01    0.19
  10  -8  -9    3.88    0.33
  10   8  -9    4.12    0.41
   8  -8  -9    1.95    0.24
   8   8  -9    1.85    0.27
   6  -8  -9    6.37    0.44
  -6  -8   9    6.32    0.48
   6   8  -9    7.37    0.53
   4  -8  -9    1.30    0.22
  -4  -8   9    1.80    0.23
   4   8  -9    1.87    0.27
  -2  -8   9    0.81    0.17
   2   8  -9    0.93    0.22
   0  -8   9    0.16    0.16
   0   8   9   -0.14    0.21
   0   8  -9    0.37    0.21
  13  -9  -9   14.51    0.76
  13   9  -9   14.38    0.84
  11  -9  -9    9.02    0.54
  11   9  -9    9.30    0.61
   9  -9  -9   18.22    0.92
   9   9  -9   17.81    0.98
   7  -9  -9    5.70    0.41
   7   9  -9    6.11    0.47
   5  -9  -9    9.22    0.56
   5   9  -9    9.39    0.62
   3   9  -9    3.51    0.40
  22   0 -10   19.31    0.96
 -22   0  10   18.35    0.98
  20   0 -10   19.71    1.00
 -20   0  10   20.04    1.01
  18   0 -10   23.19    1.14
 -18   0  10   22.61    1.14
  16   0 -10    7.30    0.47
 -16   0  10    7.50    0.46
 -14   0  10   51.54    2.37
  14   0 -10   50.57    2.36
 -12   0  10  102.28    4.61
 -10   0  10   18.80    0.90
  10   0 -10   16.73    0.95
  -8   0  10   86.56    3.92
   8   0 -10   86.68    3.97
  -6   0  10   49.12    2.37
   6   0 -10   53.82    2.43
   4   0 -10   87.50    4.11
  -4   0  10   92.47    4.07
   2   0 -10   90.94    4.41
  -2   0  10  102.50    4.37
   0   0 -10   33.34    1.63
   2   0  10   32.30    1.55
  -2   0 -10   32.26    1.59
  -4   0 -10   25.55    1.32
   4   0  10   26.69    1.30
  23  -1 -10    0.23    0.15
 -23   1  10    0.56    0.20
  23   1 -10    0.36    0.21
  21  -1 -10    2.64    0.27
  21   1 -10    2.58    0.27
 -19   1  10    6.32    0.42
  19   1 -10    5.99    0.42
 -17  -1  10    2.31    0.26
  17  -1 -10    1.86    0.22
  17   1 -10    1.25    0.20
 -17   1  10    2.14    0.24
 -15  -1  10    1.43    0.20
  15  -1 -10    1.16    0.20
 -15   1  10    1.34    0.20
  15   1 -10    1.38    0.27
  13  -1 -10    9.62    0.58
 -13  -1  10    9.91    0.57
 -13   1  10   11.01    0.59
 -11  -1  10    0.41    0.14
 -11   1  10    0.47    0.14
  11   1 -10    0.42    0.18
   9  -1 -10    1.49    0.24
  -9  -1  10    1.53    0.19
  -9   1  10    1.58    0.20
   9   1 -10    1.10    0.19
   7  -1 -10    1.00    0.20
  -7  -1  10    1.09    0.17
   7   1 -10    1.35    0.23
  -7   1  10    1.63    0.21
  -5  -1  10   16.03    0.84
   5  -1 -10   16.55    0.89
  -5   1  10   16.55    0.85
   5   1 -10   16.46    0.89
   3  -1 -10    1.32    0.22
  -3  -1  10    1.22    0.18
   3   1 -10    1.36    0.22
  -3   1  10    1.64    0.22
   1  -1 -10    9.15    0.61
  -1  -1  10   10.58    0.57
  -1   1  10    9.71    0.58
   1   1 -10   10.98    0.63
  -1  -1 -10    3.50    0.33
   1  -1  10    3.36    0.31
   1   1  10    2.77    0.31
  -1   1 -10    3.48    0.35
  -3  -1 -10    0.11    0.15
   3  -1  10    0.43    0.17
  -3   1 -10    0.16    0.16
  22  -2 -10   16.25    0.83
  22   2 -10   15.73    0.84
 -22   2  10   16.40    0.87
 -20  -2  10   42.21    2.03
  20  -2 -10   42.00    1.99
  20   2 -10   42.16    2.00
 -20   2  10   43.96    2.01
  18  -2 -10   60.29    2.78
 -18  -2  10   59.18    2.80
 -18   2  10   61.47    2.80
  18   2 -10   61.61    2.79
  16  -2 -10   30.07    1.46
 -16  -2  10   31.37    1.48
 -16   2  10   30.19    1.47
  14  -2 -10   17.72    0.92
 -14  -2  10   19.04    0.93
 -14   2  10   17.89    0.92
  12  -2 -10   44.74    2.19
 -12  -2  10   47.30    2.20
  12   2 -10   49.29    2.27
 -12   2  10   47.85    2.20
 -10  -2  10   56.99    2.62
 -10   2  10   60.36    2.63
  10   2 -10   53.61    2.67
  -8  -2  10   24.23    1.19
   8  -2 -10   25.46    1.26
  -8   2  10   24.50    1.20
   8   2 -10   24.34    1.25
  -6  -2  10    8.02    0.47
   6  -2 -10    8.07    0.52
   6   2 -10    6.95    0.50
  -6   2  10    7.40    0.47
   4  -2 -10   22.64    1.14
  -4  -2  10   21.90    1.08
   4   2 -10   21.25    1.13
  -4   2  10   21.84    1.09
  -2  -2  10   35.84    1.66
   2  -2 -10   32.25    1.70
  -2   2  10   36.34    1.68
   2   2 -10   36.07    1.72
   0  -2 -10   14.02    0.81
   0  -2  10   15.05    0.78
   0   2 -10   14.87    0.82
  -2  -2 -10    4.25    0.40
   2  -2  10    5.17    0.37
  -2   2 -10    4.77    0.40
  -4  -2 -10   15.70    0.84
   4  -2  10   13.56    0.78
  21  -3 -10    5.38    0.38
 -21   3  10    5.64    0.43
  21   3 -10    5.63    0.43
  19  -3 -10    1.95    0.23
 -19  -3  10    1.42    0.25
  19   3 -10    1.46    0.23
 -19   3  10    1.67    0.23
 -17  -3  10    3.28    0.35
  17  -3 -10    4.14    0.32
  15  -3 -10    7.31    0.44
 -15  -3  10    7.72    0.47
 -15   3  10    6.35    0.44
 -13  -3  10    0.23    0.13
  13  -3 -10    0.06    0.14
  13   3 -10    0.05    0.16
 -13   3  10    0.03    0.14
  11  -3 -10    4.28    0.34
 -11  -3  10    4.22    0.33
 -11   3  10    4.84    0.34
  11   3 -10    4.28    0.38
  -9  -3  10    7.36    0.45
  -9   3  10    7.07    0.46
   9   3 -10    8.03    0.52
  -7  -3  10    6.16    0.39
   7  -3 -10    6.41    0.47
   7   3 -10    4.81    0.43
  -7   3  10    6.75    0.42
  -5  -3  10   10.13    0.56
   5  -3 -10    9.31    0.61
   5   3 -10   10.14    0.62
  -5   3  10   10.29    0.58
   3  -3 -10    1.93    0.27
  -3  -3  10    1.22    0.18
   3   3 -10    1.59    0.24
  -3   3  10    1.42    0.21
  -1  -3  10   13.66    0.73
   1  -3 -10   14.80    0.81
   1   3 -10   12.92    0.79
  -1  -3 -10    6.41    0.48
   1  -3  10    6.86    0.44
  -1   3 -10    7.14    0.50
  -3  -3 -10    3.26    0.35
   3  -3  10    3.66    0.33
  -3   3 -10    4.07    0.41
  22  -4 -10    0.29    0.15
 -22   4  10    0.28    0.18
  20  -4 -10   17.88    0.89
 -20   4  10   17.14    0.92
  18  -4 -10   45.30    2.16
 -18   4  10   47.98    2.19
  16  -4 -10   36.34    1.67
 -16  -4  10   36.03    1.70
 -16   4  10   33.82    1.68
  14  -4 -10    1.19    0.19
 -14  -4  10    1.51    0.22
 -14   4  10    1.52    0.21
  14   4 -10    1.36    0.25
 -12  -4  10   17.38    0.88
  12  -4 -10   16.98    0.86
  12   4 -10   16.07    0.93
 -12   4  10   16.72    0.87
  10  -4 -10  159.36    7.28
 -10  -4  10  164.38    7.28
  10   4 -10  153.15    7.34
 -10   4  10  175.15    7.30
  -8  -4  10   28.01    1.34
  -8   4  10   25.38    1.34
   8   4 -10   29.78    1.41
  -6  -4  10   20.29    1.03
   6  -4 -10   21.72    1.11
  -6   4  10   20.72    1.06
   6   4 -10   20.88    1.10
   4  -4 -10   42.39    2.17
  -4  -4  10   46.86    2.11
   4   4 -10   47.05    2.17
  -4   4  10   44.49    2.13
  -2  -4  10   71.22    3.27
   2   4 -10   72.24    3.32
   0  -4 -10   56.19    2.68
   0  -4  10   60.78    2.64
   0   4 -10   54.48    2.68
   2  -4  10   18.20    0.89
  -2  -4 -10   15.38    0.92
  -2   4 -10   18.18    0.96
  21  -5 -10    9.03    0.53
 -21   5  10    8.69    0.56
  19  -5 -10    0.10    0.13
 -19   5  10    0.19    0.16
  17  -5 -10    1.03    0.18
 -17   5  10    1.25    0.21
  15   5 -10    0.11    0.19
 -15   5  10    0.12    0.15
 -13  -5  10    3.06    0.33
  13  -5 -10    3.53    0.31
 -13   5  10    3.11    0.32
  13   5 -10    2.99    0.37
 -11  -5  10   14.09    0.75
  11  -5 -10   13.77    0.75
  11   5 -10   13.01    0.80
 -11   5  10   15.45    0.77
  -9  -5  10    0.51    0.16
   9  -5 -10    0.48    0.18
  -9   5  10    0.32    0.18
   9   5 -10    0.74    0.21
  -7  -5  10    0.88    0.18
  -7   5  10    0.79    0.19
   7   5 -10    0.63    0.19
   5  -5 -10    0.03    0.18
   5   5 -10    0.19    0.16
  -3  -5  10    8.69    0.54
   3   5 -10   10.03    0.62
  -1  -5  10    0.41    0.15
   1   5 -10    0.07    0.16
   1  -5  10   13.44    0.68
  -1   5 -10   10.79    0.73
  18  -6 -10   27.92    1.33
 -18   6  10   26.90    1.35
  16  -6 -10   29.07    1.42
 -16   6  10   29.43    1.44
  16   6 -10   30.35    1.52
  14  -6 -10   21.19    1.03
 -14   6  10   20.20    1.05
  14   6 -10   20.24    1.10
  12  -6 -10   32.27    1.53
 -12  -6  10   26.35    1.43
  12   6 -10   30.49    1.49
  10  -6 -10   39.20    1.84
 -10  -6  10   40.16    1.86
 -10   6  10   36.51    1.85
  10   6 -10   40.48    1.91
   8   6 -10   17.07    0.92
  -8   6  10   16.23    0.91
  -6  -6  10   14.79    0.76
   6   6 -10   13.86    0.82
  -4  -6  10   25.47    1.22
   4   6 -10   23.71    1.26
  -2  -6  10   23.63    1.23
   2   6 -10   27.15    1.32
   0  -6  10   11.37    0.63
   0   6 -10   11.43    0.71
  17  -7 -10    3.48    0.30
 -17   7  10    3.52    0.35
  15  -7 -10    0.93    0.19
  15   7 -10    0.95    0.24
 -15   7  10    1.16    0.21
  13  -7 -10    0.20    0.14
 -13   7  10   -0.09    0.16
  13   7 -10    0.31    0.19
  11  -7 -10    1.38    0.20
 -11   7  10    1.64    0.25
  11   7 -10    1.15    0.23
  -9  -7  10    5.77    0.45
   9  -7 -10    5.84    0.43
   9   7 -10    5.76    0.48
  -7  -7  10    1.47    0.22
   7   7 -10    1.37    0.24
  -5  -7  10    1.74    0.22
   5   7 -10    2.13    0.29
  -3  -7  10    3.44    0.32
   3   7 -10    3.21    0.37
  -1  -7  10    0.19    0.15
   1   7 -10    0.40    0.20
  16  -8 -10    5.99    0.56
  14  -8 -10   37.11    1.71
  14   8 -10   35.23    1.78
  12  -8 -10   34.59    1.68
  12   8 -10   35.97    1.74
  10  -8 -10    0.46    0.17
  10   8 -10    0.30    0.19
   8  -8 -10   28.05    1.38
   8   8 -10   28.01    1.43
   6   8 -10   30.44    1.53
  -4  -8  10   27.97    1.37
   4   8 -10   28.11    1.42
   9  -9 -10    0.95    0.21
   9   9 -10    0.59    0.36
 -22   0  11   -0.03    0.16
  22   0 -11    0.08    0.17
 -20   0  11    0.15    0.16
  20   0 -11   -0.14    0.17
 -18   0  11    0.02    0.14
 -16   0  11    0.07    0.13
 -14   0  11    0.22    0.13
 -12   0  11   -0.14    0.11
  10   0 -11    0.02    0.16
 -10   0  11   -0.07    0.13
  -8   0  11   -0.11    0.12
   8   0 -11   -0.11    0.14
  -6   0  11   -0.14    0.12
   6   0 -11    0.14    0.15
  -2   0  11    0.07    0.14
   2   0 -11    0.16    0.15
   0   0  11    0.01    0.13
   0   0 -11    0.09    0.16
   2   0  11   -0.22    0.17
  -2   0 -11    0.09    0.16
  21  -1 -11   56.15    2.55
 -21  -1  11   55.01    2.56
 -21   1  11   55.88    2.56
  21   1 -11   53.32    2.55
 -19  -1  11   31.97    1.55
  19  -1 -11   32.12    1.55
 -19   1  11   32.41    1.55
 -17  -1  11   10.12    0.61
 -17   1  11   10.06    0.59
 -15  -1  11   40.36    1.89
 -15   1  11   39.85    1.89
 -13  -1  11   48.25    2.23
 -13   1  11   47.80    2.23
 -11  -1  11   37.96    1.87
  11   1 -11   44.14    1.97
 -11   1  11   38.21    1.88
   9  -1 -11    9.41    0.62
  -9   1  11    9.81    0.55
   9   1 -11    9.09    0.60
  -7  -1  11   74.71    3.26
   7  -1 -11   73.92    3.32
   7   1 -11   68.89    3.31
  -7   1  11   68.21    3.25
   5  -1 -11   43.94    2.06
   5   1 -11   44.35    2.06
  -5   1  11   40.22    2.00
  -3  -1  11    8.38    0.47
   3  -1 -11    7.67    0.53
  -3   1  11    7.09    0.47
   3   1 -11    7.05    0.50
   1  -1 -11   31.85    1.53
  -1  -1  11   31.77    1.48
   1   1 -11   29.34    1.52
  -1   1  11   30.05    1.49
  -1  -1 -11   24.41    1.26
   1  -1  11   25.01    1.22
  -1   1 -11   24.09    1.25
   1   1  11   24.61    1.24
  22  -2 -11    0.28    0.17
 -22   2  11   -0.07    0.15
  20  -2 -11    0.02    0.16
 -20  -2  11    0.09    0.17
 -20   2  11   -0.03    0.15
 -18  -2  11    1.00    0.20
  18  -2 -11    1.74    0.23
 -18   2  11    1.48    0.21
 -16  -2  11    5.33    0.45
  16  -2 -11    5.76    0.48
 -16   2  11    5.29    0.39
 -14  -2  11    8.49    0.53
 -14   2  11    8.84    0.52
 -12  -2  11   14.60    0.74
  12   2 -11   12.78    0.80
 -12   2  11   13.87    0.74
 -10  -2  11    3.43    0.29
 -10   2  11    3.67    0.30
  10   2 -11    2.83    0.34
  -8  -2  11    1.42    0.20
   8  -2 -11    1.86    0.27
  -8   2  11    1.97    0.22
   8   2 -11    1.53    0.24
  -6  -2  11    0.92    0.18
   6  -2 -11    0.80    0.21
  -6   2  11    0.61    0.16
   6   2 -11    0.63    0.19
  -4  -2  11    0.39    0.14
   4  -2 -11    0.44    0.19
   4   2 -11    0.46    0.19
  -4   2  11    0.64    0.26
   2  -2 -11    0.24    0.16
  -2  -2  11   -0.05    0.13
  -2   2  11    0.18    0.16
   2   2 -11    0.13    0.16
   0  -2 -11    0.41    0.17
   0  -2  11    0.69    0.17
   0   2 -11    0.79    0.21
  21  -3 -11   16.82    0.88
 -21   3  11   17.34    0.89
  19  -3 -11   13.18    0.72
 -19  -3  11   13.60    0.77
 -19   3  11   12.75    0.72
  17  -3 -11    9.15    0.57
 -17  -3  11    9.60    0.59
 -17   3  11   10.21    0.58
  15  -3 -11   19.36    0.95
 -15  -3  11   17.01    0.93
 -15   3  11   17.58    0.92
 -13  -3  11   70.85    3.12
  13   3 -11   64.34    3.19
 -13   3  11   69.09    3.12
 -11  -3  11   31.47    1.47
  11   3 -11   29.90    1.53
 -11   3  11   30.21    1.47
  -9  -3  11   17.64    0.88
  -9   3  11   15.84    0.88
   9   3 -11   17.61    0.94
   7  -3 -11   13.31    0.79
  -7   3  11   13.35    0.71
   7   3 -11   12.28    0.76
  -5  -3  11   82.22    3.31
   5   3 -11   62.80    3.33
  -3  -3  11   76.90    3.40
   3  -3 -11   76.52    3.47
   3   3 -11   67.59    3.45
  -3   3  11   77.84    3.43
  -1  -3  11    4.86    0.38
   1  -3 -11    4.64    0.41
   1   3 -11    5.38    0.44
  -1  -3 -11   22.85    1.22
   1  -3  11   24.38    1.17
  -1   3 -11   23.57    1.22
  20  -4 -11    0.49    0.16
 -20   4  11    1.07    0.20
  18  -4 -11    0.16    0.15
 -18   4  11   -0.10    0.13
  16  -4 -11    2.32    0.27
 -16  -4  11    2.13    0.26
 -16   4  11    1.43    0.21
  14  -4 -11    2.74    0.33
 -14   4  11    2.56    0.28
  14   4 -11    2.91    0.40
 -12  -4  11    0.13    0.16
  12   4 -11    0.19    0.19
 -10  -4  11    0.07    0.20
  10   4 -11    0.08    0.16
 -10   4  11    0.07    0.15
  -8  -4  11    2.63    0.27
  -8   4  11    3.02    0.31
   8   4 -11    2.75    0.34
  -6  -4  11    4.53    0.35
   6  -4 -11    5.03    0.48
  -6   4  11    3.91    0.51
   6   4 -11    4.72    0.42
   4  -4 -11    0.03    0.17
  -4  -4  11   -0.13    0.13
   4   4 -11   -0.06    0.15
   2  -4 -11    0.82    0.21
  -2  -4  11    0.95    0.19
   2   4 -11    0.34    0.17
   0  -4  11    0.07    0.13
   0  -4 -11    0.21    0.18
   0   4 -11    0.09    0.18
  19  -5 -11   19.04    1.00
 -19   5  11   20.68    1.01
  17  -5 -11   24.33    1.20
 -17   5  11   24.06    1.19
  15  -5 -11   26.02    1.34
 -15  -5  11   26.89    1.37
 -15   5  11   26.70    1.35
  15   5 -11   30.74    1.45
 -13   5  11   49.59    2.41
  13   5 -11   54.13    2.49
 -11  -5  11   25.20    1.27
  11   5 -11   25.75    1.34
 -11   5  11   26.69    1.28
  -9  -5  11   22.91    1.16
  -9   5  11   23.70    1.19
   9   5 -11   24.20    1.23
  -7  -5  11    5.59    0.40
   7   5 -11    5.87    0.46
  -7   5  11    5.75    0.45
  -5  -5  11   36.97    1.76
   5   5 -11   37.82    1.82
  -3  -5  11   46.04    2.18
   3  -5 -11   47.78    2.26
   1  -5 -11    0.18    0.21
  -1  -5  11    0.71    0.17
   1   5 -11    0.13    0.17
  18  -6 -11   10.54    0.59
 -18   6  11    9.25    0.59
  16  -6 -11    4.90    0.39
 -16   6  11    4.30    0.38
  14  -6 -11    5.77    0.44
  14   6 -11    5.54    0.49
 -14   6  11    5.97    0.43
 -12  -6  11   39.09    1.95
 -12   6  11   43.10    1.96
  12   6 -11   41.83    2.02
 -10  -6  11    5.32    0.42
  10   6 -11    5.48    0.45
 -10   6  11    5.63    0.44
  -8  -6  11    0.07    0.15
   8   6 -11    0.22    0.18
  -6  -6  11    1.46    0.21
   6   6 -11    0.64    0.19
  -4  -6  11    4.68    0.36
   4   6 -11    4.19    0.41
  15  -7 -11   15.62    0.86
 -15   7  11   17.47    0.90
  13  -7 -11    6.84    0.67
 -13   7  11    7.82    0.54
  13   7 -11    7.81    0.57
  11   7 -11   17.18    0.95
   9   7 -11   24.22    1.26
  -7  -7  11   44.58    2.02
   7   7 -11   40.78    2.06
  -5  -7  11   18.34    0.94
   5   7 -11   17.80    0.98
 -20   0  12   17.27    0.90
 -18   0  12    1.03    0.18
 -16   0  12    5.23    0.39
 -12   0  12    5.95    0.40
  10   0 -12    6.67    0.53
 -10   0  12    6.31    0.43
   8   0 -12   27.90    1.45
  -8   0  12   29.12    1.38
  -6   0  12   40.10    1.83
   6   0 -12   37.42    1.89
   4   0 -12   23.95    1.26
  -4   0  12   25.40    1.22
  -2   0  12   12.03    0.68
 -21  -1  12    3.06    0.35
 -21   1  12    2.98    0.33
 -19  -1  12    0.08    0.15
 -19   1  12    0.13    0.14
 -17  -1  12    0.11    0.14
 -17   1  12    0.06    0.14
 -15  -1  12    1.28    0.21
 -15   1  12    0.78    0.17
 -13  -1  12    0.01    0.13
 -13   1  12   -0.02    0.14
 -11  -1  12    3.01    0.28
  11   1 -12    2.53    0.38
 -11   1  12    3.04    0.29
   9  -1 -12    0.76    0.24
  -9  -1  12    0.43    0.17
   9   1 -12    0.34    0.27
  -9   1  12    0.34    0.14
  -7  -1  12    3.72    0.31
   7  -1 -12    3.68    0.39
  -7   1  12    3.95    0.32
   7   1 -12    3.81    0.38
   5  -1 -12   15.25    0.88
  -5  -1  12   15.63    0.83
  -5   1  12   15.91    0.84
   5   1 -12   16.45    0.89
  -3  -1  12   -0.02    0.14
   3  -1 -12    0.07    0.16
  -3   1  12    0.19    0.17
   3   1 -12   -0.07    0.16
  -1  -1  12    0.54    0.20
   1  -1 -12    0.58    0.24
  -1   1  12    0.29    0.18
   1   1 -12    0.73    0.24
 -20  -2  12   16.29    0.87
 -20   2  12   16.10    0.86
 -18  -2  12   30.76    1.49
 -18   2  12   30.54    1.48
 -16  -2  12   58.97    2.76
 -16   2  12   61.06    2.76
 -14  -2  12   54.73    2.49
 -14   2  12   52.82    2.49
 -12  -2  12   22.17    1.18
 -12   2  12   23.33    1.19
  12   2 -12   28.32    1.51
 -10  -2  12   31.96    1.46
 -10   2  12   28.48    1.46
  10   2 -12   30.58    1.54
  -8  -2  12   59.68    2.86
   8  -2 -12   61.56    2.96
   8   2 -12   61.70    2.94
  -8   2  12   67.18    2.88
   6  -2 -12   40.14    2.05
  -6  -2  12   42.24    1.99
  -6   2  12   44.28    2.00
   6   2 -12   42.99    2.04
  -4  -2  12   10.96    0.61
   4  -2 -12   11.37    0.69
   4   2 -12   10.38    0.66
  -4   2  12   10.35    0.63
   2  -2 -12   13.52    0.79
  -2  -2  12   12.19    0.71
  -2   2  12   12.88    0.75
   2   2 -12   13.93    0.78
 -19  -3  12    0.76    0.23
 -19   3  12    1.27    0.21
 -17  -3  12    0.42    0.17
 -17   3  12    0.73    0.18
 -15  -3  12   -0.04    0.14
 -15   3  12    0.01    0.14
 -13  -3  12    4.60    0.35
 -13   3  12    3.47    0.33
  13   3 -12    3.28    0.42
 -11  -3  12    0.14    0.14
  11   3 -12    0.25    0.18
 -11   3  12    0.33    0.17
  -9  -3  12    5.87    0.40
   9   3 -12    5.33    0.46
  -9   3  12    5.94    0.41
  -7  -3  12    1.87    0.23
   7   3 -12    1.07    0.22
  -7   3  12    1.57    0.26
  -5  -3  12    0.03    0.13
   5  -3 -12    0.08    0.20
  -5   3  12   -0.14    0.17
   5   3 -12    0.16    0.17
   3  -3 -12    7.24    0.55
  -3  -3  12    8.13    0.48
   3   3 -12    7.30    0.52
 -18   4  12   22.93    1.15
 -16   4  12   56.35    2.61
 -14  -4  12    0.24    0.15
 -14   4  12    0.48    0.17
  14   4 -12    0.44    0.24
 -12  -4  12    5.99    0.43
 -12   4  12    7.20    0.47
 -10  -4  12   21.99    1.10
  10   4 -12   20.25    1.16
 -10   4  12   24.56    1.13
  -8  -4  12   45.89    2.23
  -8   4  12   50.81    2.26
   8   4 -12   47.45    2.30
  -6  -4  12   20.30    1.04
   6   4 -12   21.26    1.10
  -4  -4  12    4.98    0.37
   4   4 -12    4.74    0.42
 -17   5  12    1.29    0.22
 -15  -5  12    4.04    0.41
 -15   5  12    4.06    0.37
 -13  -5  12    1.47    0.23
 -13   5  12    1.99    0.26
  13   5 -12    1.87    0.31
 -11  -5  12    0.84    0.20
 -11   5  12    0.77    0.20
  11   5 -12    0.59    0.21
  -9  -5  12   14.66    0.79
  -9   5  12   15.07    0.82
   9   5 -12   14.17    0.84
  -7  -5  12    0.20    0.16
   7   5 -12    0.37    0.19
  -5  -5  12    7.50    0.49
   5   5 -12    7.89    0.55
 -14   6  12   20.55    1.02
  14   6 -12   18.46    1.08
 -12  -6  12   21.37    1.12
  12   6 -12   22.43    1.18
 -10  -6  12   31.06    1.45
  10   6 -12   28.42    1.49
  -8  -6  12   31.39    1.54
   8   6 -12   32.52    1.60
 -18   0  13   -0.07    0.13
 -16   0  13    0.32    0.16
 -14   0  13   -0.10    0.14
 -12   0  13    0.03    0.13
 -10   0  13    0.24    0.16
  -8   0  13    0.04    0.15
   8   0 -13   -0.20    0.18
  -6   0  13    0.10    0.15
   6   0 -13   -0.04    0.18
 -19  -1  13   33.07    1.58
 -19   1  13   32.62    1.57
 -17  -1  13   39.85    1.97
 -17   1  13   44.43    1.99
 -15  -1  13    9.56    0.58
 -15   1  13   10.07    0.58
 -13  -1  13   25.54    1.26
 -13   1  13   26.23    1.27
 -11  -1  13   22.70    1.13
 -11   1  13   22.47    1.12
  -9  -1  13   39.95    1.91
   9   1 -13   40.01    2.00
  -9   1  13   42.58    1.93
   7  -1 -13   36.59    1.88
  -7  -1  13   37.39    1.79
   7   1 -13   37.85    1.85
  -7   1  13   40.14    1.81
  -5  -1  13    5.07    0.39
   5  -1 -13    5.34    0.47
  -5   1  13    4.69    0.46
   5   1 -13    5.32    0.45
 -18  -2  13   10.27    0.61
 -18   2  13    9.98    0.59
 -16  -2  13   13.96    0.79
 -16   2  13   15.83    0.80
 -14  -2  13    0.63    0.17
 -14   2  13    0.74    0.19
 -12  -2  13    2.40    0.27
 -12   2  13    2.46    0.27
 -10  -2  13    2.27    0.25
 -10   2  13    2.01    0.25
  -8  -2  13    2.22    0.25
   8   2 -13    2.10    0.31
  -8   2  13    1.92    0.25
  -6  -2  13    4.06    0.34
   6   2 -13    4.33    0.42
  -6   2  13    4.09    0.38
 -17  -3  13   12.86    0.72
 -17   3  13   12.89    0.71
 -15  -3  13    9.22    0.56
 -15   3  13    9.07    0.56
 -13  -3  13    8.22    0.50
 -13   3  13    7.19    0.50
 -11  -3  13   49.49    2.36
 -11   3  13   52.63    2.37
  11   3 -13   50.55    2.45
  -9  -3  13   22.34    1.13
   9   3 -13   21.21    1.20
  -9   3  13   25.65    1.17
  -7  -3  13    0.97    0.19
  -7   3  13    1.10    0.22
   7   3 -13    0.60    0.21
 -16  -4  13    3.05    0.35
 -16   4  13    3.06    0.33
 -14  -4  13    0.26    0.19
 -14   4  13    0.17    0.17
 -12  -4  13    2.49    0.30
  12   4 -13    2.77    0.41
 -12   4  13    2.74    0.32
 -10  -4  13    0.07    0.15
  10   4 -13   -0.13    0.17
 -10   4  13    0.08    0.17
  -8  -4  13    0.94    0.22
   8   4 -13    0.85    0.21
  -8   4  13    1.56    0.27
 -14   0  14   25.59    1.27
 -12   0  14   41.16    1.94
 -13  -1  14    0.53    0.19
 -13   1  14    0.54    0.19
   0   0   0    0.00    0.00
;
_shelx_hkl_checksum              89135
loop_
_space_group_symop_operation_xyz
'x, y, z'
'-x, y, -z+1/2'
'x+1/2, y+1/2, z'
'-x+1/2, y+1/2, -z+1/2'
'-x, -y, -z'
'x, -y, z-1/2'
'-x+1/2, -y+1/2, -z'
'x+1/2, -y+1/2, z-1/2'
loop_
_atom_site_label
_atom_site_type_symbol
_atom_site_fract_x
_atom_site_fract_y
_atom_site_fract_z
_atom_site_U_iso_or_equiv
_atom_site_adp_type
_atom_site_occupancy
_atom_site_site_symmetry_order
_atom_site_calc_flag
_atom_site_refinement_flags_posn
_atom_site_refinement_flags_occupancy
C1 C 0.36004(11) 0.62308(17) 0.94915(19) 0.0071(3) Uani 1 1 d . .
C2 C 0.45867(12) 0.62926(18) 1.1635(2) 0.0082(3) Uani 1 1 d . .
O1 O 0.39780(9) 0.86706(15) 0.50086(16) 0.0111(2) Uani 1 1 d . .
O2 O 0.37367(9) 0.71568(14) 0.82721(14) 0.0082(2) Uani 1 1 d . .
O3 O 0.27133(8) 0.52668(13) 0.90351(14) 0.0104(2) Uani 1 1 d . .
Mn1 Mn 0.2500 0.7500 0.5000 0.00570(12) Uani 1 2 d S P
H1A H 0.464(2) 0.818(3) 0.550(4) 0.038(6) Uiso 1 1 d . .
H1B H 0.376(2) 0.914(3) 0.398(4) 0.032(6) Uiso 1 1 d . .
loop_
_atom_site_aniso_label
_atom_site_aniso_U_11
_atom_site_aniso_U_22
_atom_site_aniso_U_33
_atom_site_aniso_U_23
_atom_site_aniso_U_13
_atom_site_aniso_U_12
C1 0.0076(6) 0.0061(6) 0.0061(6) -0.0006(5) 0.0028(5) 0.0017(5)
C2 0.0093(6) 0.0082(6) 0.0086(6) 0.0002(5) 0.0059(5) -0.0012(5)
O1 0.0080(5) 0.0155(5) 0.0098(5) 0.0045(4) 0.0050(4) 0.0022(4)
O2 0.0081(5) 0.0097(4) 0.0056(5) 0.0003(4) 0.0030(4) -0.0007(4)
O3 0.0083(4) 0.0109(5) 0.0084(5) 0.0020(4) 0.0023(4) -0.0023(4)
Mn1 0.00498(17) 0.00698(18) 0.00403(17) -0.00029(9) 0.00178(13) 0.00037(9)
loop_
_atom_type_symbol
_atom_type_description
_atom_type_scat_dispersion_real
_atom_type_scat_dispersion_imag
_atom_type_scat_source
C C 0.0040 0.0020 'International Tables Vol C Tables 4.2.6.8 and 6.1.1.4'
H H 0.0000 0.0000 'International Tables Vol C Tables 4.2.6.8 and 6.1.1.4'
O O 0.0133 0.0073 'International Tables Vol C Tables 4.2.6.8 and 6.1.1.4'
Mn Mn 0.3550 0.8563 'International Tables Vol C Tables 4.2.6.8 and 6.1.1.4'
loop_
_geom_angle_atom_site_label_1
_geom_angle_atom_site_label_2
_geom_angle_atom_site_label_3
_geom_angle
_geom_angle_site_symmetry_1
_geom_angle_site_symmetry_3
O3 C1 O2 126.12(12) . .
O3 C1 C2 117.75(11) . .
O2 C1 C2 116.13(11) . .
C2 C2 C1 177.42(14) 2_657 .
Mn1 O1 H1A 126.3(17) . .
Mn1 O1 H1B 110.8(16) . .
H1A O1 H1B 111(2) . .
C1 O2 Mn1 128.46(8) . .
C1 O3 Mn1 133.28(8) . 4_546
O1 Mn1 O1 180.0 . 7_566
O1 Mn1 O2 93.68(4) . 7_566
O1 Mn1 O2 86.32(4) 7_566 7_566
O1 Mn1 O2 86.32(4) . .
O1 Mn1 O2 93.68(4) 7_566 .
O2 Mn1 O2 180.0 7_566 .
O1 Mn1 O3 93.21(4) . 6_565
O1 Mn1 O3 86.79(4) 7_566 6_565
O2 Mn1 O3 81.61(4) 7_566 6_565
O2 Mn1 O3 98.39(4) . 6_565
O1 Mn1 O3 86.79(4) . 4_556
O1 Mn1 O3 93.21(4) 7_566 4_556
O2 Mn1 O3 98.39(4) 7_566 4_556
O2 Mn1 O3 81.61(4) . 4_556
O3 Mn1 O3 180.0 6_565 4_556
loop_
_geom_bond_atom_site_label_1
_geom_bond_atom_site_label_2
_geom_bond_distance
_geom_bond_site_symmetry_2
C1 O3 1.2521(16) .
C1 O2 1.2624(16) .
C1 C2 1.4668(17) .
C2 C2 1.195(3) 2_657
O1 Mn1 2.1612(10) .
O1 H1A 0.84(2) .
O1 H1B 0.77(2) .
O2 Mn1 2.1808(10) .
O3 Mn1 2.2018(9) 4_546
Mn1 O1 2.1613(10) 7_566
Mn1 O2 2.1808(10) 7_566
Mn1 O3 2.2018(9) 6_565
Mn1 O3 2.2018(9) 4_556
loop_
_geom_hbond_atom_site_label_D
_geom_hbond_atom_site_label_H
_geom_hbond_atom_site_label_A
_geom_hbond_distance_DH
_geom_hbond_distance_HA
_geom_hbond_distance_DA
_geom_hbond_angle_DHA
_geom_hbond_site_symmetry_A
O1 H1A O2 0.84(2) 1.98(3) 2.8161(14) 176(2) 2_656
O1 H1B O3 0.77(2) 2.14(2) 2.8172(14) 146(2) 7_566
loop_
_geom_torsion_atom_site_label_1
_geom_torsion_atom_site_label_2
_geom_torsion_atom_site_label_3
_geom_torsion_atom_site_label_4
_geom_torsion
_geom_torsion_site_symmetry_4
O3 C1 O2 Mn1 1.85(19) .
C2 C1 O2 Mn1 -178.71(8) .
O2 C1 O3 Mn1 137.76(11) 4_546
C2 C1 O3 Mn1 -41.67(17) 4_546
